MODEL 1
REMARK VINA RESULT:     -10.9      0.000      0.000
REMARK  9 active torsions:
REMARK  status: ('A' for Active; 'I' for Inactive)
REMARK    1  A    between atoms: C_7  and  C_8 
REMARK    2  A    between atoms: C_9  and  O_10 
REMARK    3  A    between atoms: C_13  and  N_14 
REMARK    4  A    between atoms: N_14  and  C_15 
REMARK    5  A    between atoms: C_15  and  N_16 
REMARK       I    between atoms: N_16  and  C_17 
REMARK    6  A    between atoms: C_17  and  C_18 
REMARK    7  A    between atoms: C_20  and  O_21 
REMARK    8  A    between atoms: O_21  and  C_22 
REMARK    9  A    between atoms: C_22  and  C_23 
ROOT
HETATM    1  C   UNL     1      27.982  42.615  51.915  1.00  0.00     0.052 A 
HETATM    2  C   UNL     1      27.722  41.244  51.795  1.00  0.00     0.080 A 
HETATM    3  C   UNL     1      26.809  40.768  50.848  1.00  0.00     0.040 A 
HETATM    4  C   UNL     1      26.143  41.661  50.005  1.00  0.00     0.032 A 
HETATM    5  C   UNL     1      26.440  43.021  50.054  1.00  0.00     0.035 A 
HETATM    6  C   UNL     1      27.353  43.486  51.004  1.00  0.00     0.048 A 
ENDROOT
BRANCH   5   7
HETATM    7  N   UNL     1      25.709  43.906  49.239  1.00  0.00    -0.333 N 
HETATM    8  H   UNL     1      26.092  44.082  48.310  1.00  0.00     0.168 HD
BRANCH   7   9
HETATM    9  C   UNL     1      24.483  44.467  49.489  1.00  0.00     0.179 C 
HETATM   10  S   UNL     1      23.056  43.659  49.833  1.00  0.00    -0.040 SA
BRANCH   9  11
HETATM   11  N   UNL     1      24.425  45.839  49.452  1.00  0.00    -0.299 N 
HETATM   12  C   UNL     1      25.233  46.730  50.144  1.00  0.00     0.257 C 
HETATM   13  O   UNL     1      25.779  46.497  51.215  1.00  0.00    -0.267 OA
HETATM   14  H   UNL     1      23.986  46.165  48.601  1.00  0.00     0.171 HD
BRANCH  12  15
HETATM   15  C   UNL     1      25.402  48.041  49.473  1.00  0.00     0.035 A 
HETATM   16  C   UNL     1      24.308  48.705  48.904  1.00  0.00     0.053 A 
HETATM   17  C   UNL     1      24.512  49.865  48.157  1.00  0.00     0.069 A 
HETATM   18  C   UNL     1      25.810  50.365  48.011  1.00  0.00     0.037 A 
HETATM   19  C   UNL     1      26.898  49.723  48.608  1.00  0.00     0.004 A 
HETATM   20  C   UNL     1      26.695  48.557  49.344  1.00  0.00     0.017 A 
BRANCH  17  21
HETATM   21  O   UNL     1      23.546  50.579  47.505  1.00  0.00    -0.351 OA
BRANCH  21  22
HETATM   22  C   UNL     1      22.185  50.222  47.750  1.00  0.00     0.179 C 
BRANCH  22  23
HETATM   23  C   UNL     1      21.524  51.261  48.670  1.00  0.00     0.002 C 
HETATM   24  C   UNL     1      20.117  51.619  48.195  1.00  0.00     0.011 C 
HETATM   25  C   UNL     1      21.481  50.764  50.116  1.00  0.00     0.011 C 
ENDBRANCH  22  23
ENDBRANCH  21  22
ENDBRANCH  17  21
ENDBRANCH  12  15
ENDBRANCH   9  11
ENDBRANCH   7   9
ENDBRANCH   5   7
BRANCH   1  26
HETATM   26  C   UNL     1      28.778  43.183  53.005  1.00  0.00     0.183 A 
HETATM   27  O   UNL     1      28.367  44.418  53.457  1.00  0.00    -0.288 OA
HETATM   28  C   UNL     1      29.107  44.636  54.580  1.00  0.00     0.112 A 
HETATM   29  C   UNL     1      29.945  43.547  54.742  1.00  0.00     0.094 A 
HETATM   30  C   UNL     1      29.025  45.727  55.445  1.00  0.00    -0.025 A 
HETATM   31  C   UNL     1      30.790  43.500  55.858  1.00  0.00     0.041 A 
HETATM   32  N   UNL     1      29.743  42.643  53.731  1.00  0.00    -0.221 NA
HETATM   33  C   UNL     1      30.748  44.565  56.778  1.00  0.00    -0.059 A 
HETATM   34  C   UNL     1      31.582  44.510  58.025  1.00  0.00     0.048 C 
HETATM   35  C   UNL     1      29.870  45.645  56.568  1.00  0.00     0.016 A 
HETATM   36  C   UNL     1      28.078  46.868  55.263  1.00  0.00     0.051 C 
ENDBRANCH   1  26
BRANCH   2  37
HETATM   37  O   UNL     1      28.359  40.350  52.609  1.00  0.00    -0.360 OA
HETATM   38  H   UNL     1      27.876  40.263  53.446  1.00  0.00     0.217 HD
ENDBRANCH   2  37
TORSDOF 9
ENDMDL
MODEL 2
REMARK VINA RESULT:     -10.4      1.277      1.649
REMARK  9 active torsions:
REMARK  status: ('A' for Active; 'I' for Inactive)
REMARK    1  A    between atoms: C_7  and  C_8 
REMARK    2  A    between atoms: C_9  and  O_10 
REMARK    3  A    between atoms: C_13  and  N_14 
REMARK    4  A    between atoms: N_14  and  C_15 
REMARK    5  A    between atoms: C_15  and  N_16 
REMARK       I    between atoms: N_16  and  C_17 
REMARK    6  A    between atoms: C_17  and  C_18 
REMARK    7  A    between atoms: C_20  and  O_21 
REMARK    8  A    between atoms: O_21  and  C_22 
REMARK    9  A    between atoms: C_22  and  C_23 
ROOT
HETATM    1  C   UNL     1      27.158  42.665  51.912  1.00  0.00     0.052 A 
HETATM    2  C   UNL     1      27.105  41.375  51.370  1.00  0.00     0.080 A 
HETATM    3  C   UNL     1      26.017  40.968  50.591  1.00  0.00     0.040 A 
HETATM    4  C   UNL     1      24.964  41.852  50.342  1.00  0.00     0.032 A 
HETATM    5  C   UNL     1      25.028  43.163  50.806  1.00  0.00     0.035 A 
HETATM    6  C   UNL     1      26.120  43.558  51.584  1.00  0.00     0.048 A 
ENDROOT
BRANCH   5   7
HETATM    7  N   UNL     1      23.926  44.014  50.596  1.00  0.00    -0.333 N 
HETATM    8  H   UNL     1      23.410  44.295  51.429  1.00  0.00     0.168 HD
BRANCH   7   9
HETATM    9  C   UNL     1      23.532  44.610  49.426  1.00  0.00     0.179 C 
HETATM   10  S   UNL     1      23.387  43.883  47.923  1.00  0.00    -0.040 SA
BRANCH   9  11
HETATM   11  N   UNL     1      23.224  45.947  49.500  1.00  0.00    -0.299 N 
HETATM   12  C   UNL     1      24.088  46.988  49.807  1.00  0.00     0.257 C 
HETATM   13  O   UNL     1      25.091  46.888  50.502  1.00  0.00    -0.267 OA
HETATM   14  H   UNL     1      22.398  46.164  48.958  1.00  0.00     0.171 HD
BRANCH  12  15
HETATM   15  C   UNL     1      23.703  48.290  49.209  1.00  0.00     0.035 A 
HETATM   16  C   UNL     1      22.358  48.603  48.972  1.00  0.00     0.053 A 
HETATM   17  C   UNL     1      22.030  49.770  48.282  1.00  0.00     0.069 A 
HETATM   18  C   UNL     1      23.052  50.627  47.862  1.00  0.00     0.037 A 
HETATM   19  C   UNL     1      24.391  50.333  48.130  1.00  0.00     0.004 A 
HETATM   20  C   UNL     1      24.720  49.161  48.809  1.00  0.00     0.017 A 
BRANCH  17  21
HETATM   21  O   UNL     1      20.770  50.169  47.937  1.00  0.00    -0.351 OA
BRANCH  21  22
HETATM   22  C   UNL     1      19.730  49.969  48.896  1.00  0.00     0.179 C 
BRANCH  22  23
HETATM   23  C   UNL     1      19.225  51.323  49.417  1.00  0.00     0.002 C 
HETATM   24  C   UNL     1      19.356  52.419  48.360  1.00  0.00     0.011 C 
HETATM   25  C   UNL     1      17.775  51.222  49.894  1.00  0.00     0.011 C 
ENDBRANCH  22  23
ENDBRANCH  21  22
ENDBRANCH  17  21
ENDBRANCH  12  15
ENDBRANCH   9  11
ENDBRANCH   7   9
ENDBRANCH   5   7
BRANCH   1  26
HETATM   26  C   UNL     1      28.172  43.082  52.883  1.00  0.00     0.183 A 
HETATM   27  O   UNL     1      28.014  44.350  53.397  1.00  0.00    -0.288 OA
HETATM   28  C   UNL     1      28.926  44.427  54.407  1.00  0.00     0.112 A 
HETATM   29  C   UNL     1      29.608  43.224  54.441  1.00  0.00     0.094 A 
HETATM   30  C   UNL     1      29.125  45.494  55.282  1.00  0.00    -0.025 A 
HETATM   31  C   UNL     1      30.583  43.024  55.427  1.00  0.00     0.041 A 
HETATM   32  N   UNL     1      29.137  42.388  53.462  1.00  0.00    -0.221 NA
HETATM   33  C   UNL     1      30.826  44.057  56.351  1.00  0.00    -0.059 A 
HETATM   34  C   UNL     1      31.807  43.848  57.468  1.00  0.00     0.048 C 
HETATM   35  C   UNL     1      30.096  45.259  56.275  1.00  0.00     0.016 A 
HETATM   36  C   UNL     1      28.342  46.765  55.243  1.00  0.00     0.051 C 
ENDBRANCH   1  26
BRANCH   2  37
HETATM   37  O   UNL     1      28.122  40.491  51.601  1.00  0.00    -0.360 OA
HETATM   38  H   UNL     1      28.040  39.730  51.005  1.00  0.00     0.217 HD
ENDBRANCH   2  37
TORSDOF 9
ENDMDL
MODEL 3
REMARK VINA RESULT:     -10.0      1.892      2.679
REMARK  9 active torsions:
REMARK  status: ('A' for Active; 'I' for Inactive)
REMARK    1  A    between atoms: C_7  and  C_8 
REMARK    2  A    between atoms: C_9  and  O_10 
REMARK    3  A    between atoms: C_13  and  N_14 
REMARK    4  A    between atoms: N_14  and  C_15 
REMARK    5  A    between atoms: C_15  and  N_16 
REMARK       I    between atoms: N_16  and  C_17 
REMARK    6  A    between atoms: C_17  and  C_18 
REMARK    7  A    between atoms: C_20  and  O_21 
REMARK    8  A    between atoms: O_21  and  C_22 
REMARK    9  A    between atoms: C_22  and  C_23 
ROOT
HETATM    1  C   UNL     1      27.877  40.988  50.878  1.00  0.00     0.052 A 
HETATM    2  C   UNL     1      28.336  39.687  50.636  1.00  0.00     0.080 A 
HETATM    3  C   UNL     1      27.613  38.812  49.817  1.00  0.00     0.040 A 
HETATM    4  C   UNL     1      26.418  39.230  49.228  1.00  0.00     0.032 A 
HETATM    5  C   UNL     1      25.979  40.542  49.393  1.00  0.00     0.035 A 
HETATM    6  C   UNL     1      26.708  41.407  50.213  1.00  0.00     0.048 A 
ENDROOT
BRANCH   5   7
HETATM    7  N   UNL     1      24.739  40.918  48.841  1.00  0.00    -0.333 N 
HETATM    8  H   UNL     1      23.910  40.602  49.342  1.00  0.00     0.168 HD
BRANCH   7   9
HETATM    9  C   UNL     1      24.507  41.759  47.784  1.00  0.00     0.179 C 
HETATM   10  S   UNL     1      24.203  41.321  46.195  1.00  0.00    -0.040 SA
BRANCH   9  11
HETATM   11  N   UNL     1      24.529  43.104  48.063  1.00  0.00    -0.299 N 
HETATM   12  C   UNL     1      24.016  43.734  49.187  1.00  0.00     0.257 C 
HETATM   13  O   UNL     1      23.081  43.319  49.860  1.00  0.00    -0.267 OA
HETATM   14  H   UNL     1      25.272  43.571  47.558  1.00  0.00     0.171 HD
BRANCH  12  15
HETATM   15  C   UNL     1      24.706  44.999  49.541  1.00  0.00     0.035 A 
HETATM   16  C   UNL     1      23.981  46.180  49.748  1.00  0.00     0.053 A 
HETATM   17  C   UNL     1      24.657  47.384  49.940  1.00  0.00     0.069 A 
HETATM   18  C   UNL     1      26.056  47.388  49.952  1.00  0.00     0.037 A 
HETATM   19  C   UNL     1      26.779  46.205  49.781  1.00  0.00     0.004 A 
HETATM   20  C   UNL     1      26.103  45.004  49.577  1.00  0.00     0.017 A 
BRANCH  17  21
HETATM   21  O   UNL     1      24.079  48.611  50.100  1.00  0.00    -0.351 OA
BRANCH  21  22
HETATM   22  C   UNL     1      22.922  48.902  49.313  1.00  0.00     0.179 C 
BRANCH  22  23
HETATM   23  C   UNL     1      22.812  50.416  49.076  1.00  0.00     0.002 C 
HETATM   24  C   UNL     1      23.569  50.847  47.821  1.00  0.00     0.011 C 
HETATM   25  C   UNL     1      21.348  50.851  48.983  1.00  0.00     0.011 C 
ENDBRANCH  22  23
ENDBRANCH  21  22
ENDBRANCH  17  21
ENDBRANCH  12  15
ENDBRANCH   9  11
ENDBRANCH   7   9
ENDBRANCH   5   7
BRANCH   1  26
HETATM   26  C   UNL     1      28.487  41.878  51.868  1.00  0.00     0.183 A 
HETATM   27  O   UNL     1      27.793  43.039  52.128  1.00  0.00    -0.288 OA
HETATM   28  C   UNL     1      28.427  43.583  53.205  1.00  0.00     0.112 A 
HETATM   29  C   UNL     1      29.483  42.750  53.529  1.00  0.00     0.094 A 
HETATM   30  C   UNL     1      28.071  44.742  53.894  1.00  0.00    -0.025 A 
HETATM   31  C   UNL     1      30.279  43.064  54.637  1.00  0.00     0.041 A 
HETATM   32  N   UNL     1      29.524  41.685  52.666  1.00  0.00    -0.221 NA
HETATM   33  C   UNL     1      29.967  44.214  55.385  1.00  0.00    -0.059 A 
HETATM   34  C   UNL     1      30.749  44.537  56.626  1.00  0.00     0.048 C 
HETATM   35  C   UNL     1      28.875  45.023  55.016  1.00  0.00     0.016 A 
HETATM   36  C   UNL     1      26.898  45.598  53.542  1.00  0.00     0.051 C 
ENDBRANCH   1  26
BRANCH   2  37
HETATM   37  O   UNL     1      29.502  39.254  51.202  1.00  0.00    -0.360 OA
HETATM   38  H   UNL     1      29.623  39.670  52.069  1.00  0.00     0.217 HD
ENDBRANCH   2  37
TORSDOF 9
ENDMDL
MODEL 4
REMARK VINA RESULT:      -9.9      2.651      3.755
REMARK  9 active torsions:
REMARK  status: ('A' for Active; 'I' for Inactive)
REMARK    1  A    between atoms: C_7  and  C_8 
REMARK    2  A    between atoms: C_9  and  O_10 
REMARK    3  A    between atoms: C_13  and  N_14 
REMARK    4  A    between atoms: N_14  and  C_15 
REMARK    5  A    between atoms: C_15  and  N_16 
REMARK       I    between atoms: N_16  and  C_17 
REMARK    6  A    between atoms: C_17  and  C_18 
REMARK    7  A    between atoms: C_20  and  O_21 
REMARK    8  A    between atoms: O_21  and  C_22 
REMARK    9  A    between atoms: C_22  and  C_23 
ROOT
HETATM    1  C   UNL     1      26.657  44.349  52.138  1.00  0.00     0.052 A 
HETATM    2  C   UNL     1      25.976  43.183  51.768  1.00  0.00     0.080 A 
HETATM    3  C   UNL     1      24.782  43.249  51.042  1.00  0.00     0.040 A 
HETATM    4  C   UNL     1      24.253  44.489  50.674  1.00  0.00     0.032 A 
HETATM    5  C   UNL     1      24.950  45.659  50.965  1.00  0.00     0.035 A 
HETATM    6  C   UNL     1      26.140  45.581  51.691  1.00  0.00     0.048 A 
ENDROOT
BRANCH   5   7
HETATM    7  N   UNL     1      24.363  46.897  50.639  1.00  0.00    -0.333 N 
HETATM    8  H   UNL     1      23.545  47.165  51.185  1.00  0.00     0.168 HD
BRANCH   7   9
HETATM    9  C   UNL     1      24.826  47.845  49.763  1.00  0.00     0.179 C 
HETATM   10  S   UNL     1      26.424  48.254  49.471  1.00  0.00    -0.040 SA
BRANCH   9  11
HETATM   11  N   UNL     1      23.870  48.531  49.052  1.00  0.00    -0.299 N 
HETATM   12  C   UNL     1      22.694  48.020  48.524  1.00  0.00     0.257 C 
HETATM   13  O   UNL     1      22.524  46.857  48.180  1.00  0.00    -0.267 OA
HETATM   14  H   UNL     1      23.907  49.522  49.251  1.00  0.00     0.171 HD
BRANCH  12  15
HETATM   15  C   UNL     1      21.603  49.018  48.398  1.00  0.00     0.035 A 
HETATM   16  C   UNL     1      20.379  48.674  47.809  1.00  0.00     0.053 A 
HETATM   17  C   UNL     1      19.422  49.661  47.574  1.00  0.00     0.069 A 
HETATM   18  C   UNL     1      19.690  50.979  47.958  1.00  0.00     0.037 A 
HETATM   19  C   UNL     1      20.896  51.315  48.577  1.00  0.00     0.004 A 
HETATM   20  C   UNL     1      21.857  50.331  48.802  1.00  0.00     0.017 A 
BRANCH  17  21
HETATM   21  O   UNL     1      18.214  49.477  46.962  1.00  0.00    -0.351 OA
BRANCH  21  22
HETATM   22  C   UNL     1      17.749  48.134  46.815  1.00  0.00     0.179 C 
BRANCH  22  23
HETATM   23  C   UNL     1      16.458  47.931  47.624  1.00  0.00     0.002 C 
HETATM   24  C   UNL     1      16.729  47.220  48.949  1.00  0.00     0.011 C 
HETATM   25  C   UNL     1      15.754  49.266  47.877  1.00  0.00     0.011 C 
ENDBRANCH  22  23
ENDBRANCH  21  22
ENDBRANCH  17  21
ENDBRANCH  12  15
ENDBRANCH   9  11
ENDBRANCH   7   9
ENDBRANCH   5   7
BRANCH   1  26
HETATM   26  C   UNL     1      27.801  44.350  53.052  1.00  0.00     0.183 A 
HETATM   27  O   UNL     1      27.740  45.271  54.075  1.00  0.00    -0.288 OA
HETATM   28  C   UNL     1      28.781  44.944  54.893  1.00  0.00     0.112 A 
HETATM   29  C   UNL     1      29.436  43.868  54.320  1.00  0.00     0.094 A 
HETATM   30  C   UNL     1      29.119  45.542  56.106  1.00  0.00    -0.025 A 
HETATM   31  C   UNL     1      30.529  43.304  54.988  1.00  0.00     0.041 A 
HETATM   32  N   UNL     1      28.820  43.512  53.147  1.00  0.00    -0.221 NA
HETATM   33  C   UNL     1      30.916  43.853  56.226  1.00  0.00    -0.059 A 
HETATM   34  C   UNL     1      32.033  43.224  57.008  1.00  0.00     0.048 C 
HETATM   35  C   UNL     1      30.209  44.943  56.767  1.00  0.00     0.016 A 
HETATM   36  C   UNL     1      28.365  46.677  56.717  1.00  0.00     0.051 C 
ENDBRANCH   1  26
BRANCH   2  37
HETATM   37  O   UNL     1      26.472  41.958  52.118  1.00  0.00    -0.360 OA
HETATM   38  H   UNL     1      25.972  41.259  51.669  1.00  0.00     0.217 HD
ENDBRANCH   2  37
TORSDOF 9
ENDMDL
MODEL 5
REMARK VINA RESULT:      -9.8      2.301      3.188
REMARK  9 active torsions:
REMARK  status: ('A' for Active; 'I' for Inactive)
REMARK    1  A    between atoms: C_7  and  C_8 
REMARK    2  A    between atoms: C_9  and  O_10 
REMARK    3  A    between atoms: C_13  and  N_14 
REMARK    4  A    between atoms: N_14  and  C_15 
REMARK    5  A    between atoms: C_15  and  N_16 
REMARK       I    between atoms: N_16  and  C_17 
REMARK    6  A    between atoms: C_17  and  C_18 
REMARK    7  A    between atoms: C_20  and  O_21 
REMARK    8  A    between atoms: O_21  and  C_22 
REMARK    9  A    between atoms: C_22  and  C_23 
ROOT
HETATM    1  C   UNL     1      27.380  43.078  51.574  1.00  0.00     0.052 A 
HETATM    2  C   UNL     1      26.782  41.820  51.423  1.00  0.00     0.080 A 
HETATM    3  C   UNL     1      25.723  41.632  50.529  1.00  0.00     0.040 A 
HETATM    4  C   UNL     1      25.246  42.705  49.771  1.00  0.00     0.032 A 
HETATM    5  C   UNL     1      25.872  43.947  49.848  1.00  0.00     0.035 A 
HETATM    6  C   UNL     1      26.928  44.124  50.745  1.00  0.00     0.048 A 
ENDROOT
BRANCH   5   7
HETATM    7  N   UNL     1      25.332  45.026  49.122  1.00  0.00    -0.333 N 
HETATM    8  H   UNL     1      25.107  44.843  48.145  1.00  0.00     0.168 HD
BRANCH   7   9
HETATM    9  C   UNL     1      24.956  46.256  49.595  1.00  0.00     0.179 C 
HETATM   10  S   UNL     1      25.729  47.164  50.773  1.00  0.00    -0.040 SA
BRANCH   9  11
HETATM   11  N   UNL     1      23.822  46.799  49.040  1.00  0.00    -0.299 N 
HETATM   12  C   UNL     1      22.718  46.113  48.554  1.00  0.00     0.257 C 
HETATM   13  O   UNL     1      22.740  44.976  48.101  1.00  0.00    -0.267 OA
HETATM   14  H   UNL     1      23.687  47.755  49.341  1.00  0.00     0.171 HD
BRANCH  12  15
HETATM   15  C   UNL     1      21.449  46.879  48.624  1.00  0.00     0.035 A 
HETATM   16  C   UNL     1      21.445  48.230  48.996  1.00  0.00     0.053 A 
HETATM   17  C   UNL     1      20.233  48.890  49.192  1.00  0.00     0.069 A 
HETATM   18  C   UNL     1      19.035  48.199  48.984  1.00  0.00     0.037 A 
HETATM   19  C   UNL     1      19.039  46.862  48.578  1.00  0.00     0.004 A 
HETATM   20  C   UNL     1      20.251  46.198  48.395  1.00  0.00     0.017 A 
BRANCH  17  21
HETATM   21  O   UNL     1      20.082  50.184  49.605  1.00  0.00    -0.351 OA
BRANCH  21  22
HETATM   22  C   UNL     1      18.781  50.593  50.030  1.00  0.00     0.179 C 
BRANCH  22  23
HETATM   23  C   UNL     1      18.566  52.081  49.711  1.00  0.00     0.002 C 
HETATM   24  C   UNL     1      19.078  52.439  48.317  1.00  0.00     0.011 C 
HETATM   25  C   UNL     1      17.090  52.462  49.843  1.00  0.00     0.011 C 
ENDBRANCH  22  23
ENDBRANCH  21  22
ENDBRANCH  17  21
ENDBRANCH  12  15
ENDBRANCH   9  11
ENDBRANCH   7   9
ENDBRANCH   5   7
BRANCH   1  26
HETATM   26  C   UNL     1      28.358  43.376  52.622  1.00  0.00     0.183 A 
HETATM   27  O   UNL     1      28.123  44.529  53.340  1.00  0.00    -0.288 OA
HETATM   28  C   UNL     1      29.018  44.481  54.367  1.00  0.00     0.112 A 
HETATM   29  C   UNL     1      29.766  43.327  54.211  1.00  0.00     0.094 A 
HETATM   30  C   UNL     1      29.149  45.392  55.414  1.00  0.00    -0.025 A 
HETATM   31  C   UNL     1      30.740  43.015  55.168  1.00  0.00     0.041 A 
HETATM   32  N   UNL     1      29.353  42.646  53.095  1.00  0.00    -0.221 NA
HETATM   33  C   UNL     1      30.914  43.887  56.259  1.00  0.00    -0.059 A 
HETATM   34  C   UNL     1      31.893  43.543  57.345  1.00  0.00     0.048 C 
HETATM   35  C   UNL     1      30.119  45.044  56.373  1.00  0.00     0.016 A 
HETATM   36  C   UNL     1      28.296  46.608  55.575  1.00  0.00     0.051 C 
ENDBRANCH   1  26
BRANCH   2  37
HETATM   37  O   UNL     1      27.229  40.756  52.154  1.00  0.00    -0.360 OA
HETATM   38  H   UNL     1      26.906  39.929  51.766  1.00  0.00     0.217 HD
ENDBRANCH   2  37
TORSDOF 9
ENDMDL
MODEL 6
REMARK VINA RESULT:      -9.4      2.521      4.020
REMARK  9 active torsions:
REMARK  status: ('A' for Active; 'I' for Inactive)
REMARK    1  A    between atoms: C_7  and  C_8 
REMARK    2  A    between atoms: C_9  and  O_10 
REMARK    3  A    between atoms: C_13  and  N_14 
REMARK    4  A    between atoms: N_14  and  C_15 
REMARK    5  A    between atoms: C_15  and  N_16 
REMARK       I    between atoms: N_16  and  C_17 
REMARK    6  A    between atoms: C_17  and  C_18 
REMARK    7  A    between atoms: C_20  and  O_21 
REMARK    8  A    between atoms: O_21  and  C_22 
REMARK    9  A    between atoms: C_22  and  C_23 
ROOT
HETATM    1  C   UNL     1      26.316  45.761  52.533  1.00  0.00     0.052 A 
HETATM    2  C   UNL     1      25.591  46.947  52.363  1.00  0.00     0.080 A 
HETATM    3  C   UNL     1      24.961  47.235  51.148  1.00  0.00     0.040 A 
HETATM    4  C   UNL     1      25.049  46.335  50.082  1.00  0.00     0.032 A 
HETATM    5  C   UNL     1      25.701  45.116  50.249  1.00  0.00     0.035 A 
HETATM    6  C   UNL     1      26.327  44.839  51.467  1.00  0.00     0.048 A 
ENDROOT
BRANCH   5   7
HETATM    7  N   UNL     1      25.830  44.257  49.142  1.00  0.00    -0.333 N 
HETATM    8  H   UNL     1      26.741  44.246  48.684  1.00  0.00     0.168 HD
BRANCH   7   9
HETATM    9  C   UNL     1      24.923  43.342  48.674  1.00  0.00     0.179 C 
HETATM   10  S   UNL     1      24.988  41.677  48.849  1.00  0.00    -0.040 SA
BRANCH   9  11
HETATM   11  N   UNL     1      23.847  43.851  47.988  1.00  0.00    -0.299 N 
HETATM   12  C   UNL     1      22.608  44.194  48.509  1.00  0.00     0.257 C 
HETATM   13  O   UNL     1      22.099  43.689  49.502  1.00  0.00    -0.267 OA
HETATM   14  H   UNL     1      24.139  44.303  47.131  1.00  0.00     0.171 HD
BRANCH  12  15
HETATM   15  C   UNL     1      21.907  45.262  47.755  1.00  0.00     0.035 A 
HETATM   16  C   UNL     1      21.235  46.293  48.425  1.00  0.00     0.053 A 
HETATM   17  C   UNL     1      20.467  47.204  47.701  1.00  0.00     0.069 A 
HETATM   18  C   UNL     1      20.403  47.091  46.308  1.00  0.00     0.037 A 
HETATM   19  C   UNL     1      21.102  46.085  45.637  1.00  0.00     0.004 A 
HETATM   20  C   UNL     1      21.860  45.167  46.361  1.00  0.00     0.017 A 
BRANCH  17  21
HETATM   21  O   UNL     1      19.720  48.220  48.228  1.00  0.00    -0.351 OA
BRANCH  21  22
HETATM   22  C   UNL     1      20.391  49.165  49.064  1.00  0.00     0.179 C 
BRANCH  22  23
HETATM   23  C   UNL     1      20.990  50.293  48.209  1.00  0.00     0.002 C 
HETATM   24  C   UNL     1      20.221  51.601  48.383  1.00  0.00     0.011 C 
HETATM   25  C   UNL     1      22.469  50.504  48.539  1.00  0.00     0.011 C 
ENDBRANCH  22  23
ENDBRANCH  21  22
ENDBRANCH  17  21
ENDBRANCH  12  15
ENDBRANCH   9  11
ENDBRANCH   7   9
ENDBRANCH   5   7
BRANCH   1  26
HETATM   26  C   UNL     1      27.148  45.495  53.709  1.00  0.00     0.183 A 
HETATM   27  O   UNL     1      28.110  44.522  53.546  1.00  0.00    -0.288 OA
HETATM   28  C   UNL     1      28.872  44.603  54.673  1.00  0.00     0.112 A 
HETATM   29  C   UNL     1      28.328  45.593  55.472  1.00  0.00     0.094 A 
HETATM   30  C   UNL     1      30.017  43.865  54.970  1.00  0.00    -0.025 A 
HETATM   31  C   UNL     1      28.954  45.908  56.684  1.00  0.00     0.041 A 
HETATM   32  N   UNL     1      27.227  46.137  54.862  1.00  0.00    -0.221 NA
HETATM   33  C   UNL     1      30.123  45.209  57.038  1.00  0.00    -0.059 A 
HETATM   34  C   UNL     1      30.865  45.576  58.291  1.00  0.00     0.048 C 
HETATM   35  C   UNL     1      30.640  44.216  56.183  1.00  0.00     0.016 A 
HETATM   36  C   UNL     1      30.603  42.831  54.064  1.00  0.00     0.051 C 
ENDBRANCH   1  26
BRANCH   2  37
HETATM   37  O   UNL     1      25.492  47.844  53.390  1.00  0.00    -0.360 OA
HETATM   38  H   UNL     1      24.829  48.519  53.176  1.00  0.00     0.217 HD
ENDBRANCH   2  37
TORSDOF 9
ENDMDL
MODEL 7
REMARK VINA RESULT:      -9.4      2.598      4.397
REMARK  9 active torsions:
REMARK  status: ('A' for Active; 'I' for Inactive)
REMARK    1  A    between atoms: C_7  and  C_8 
REMARK    2  A    between atoms: C_9  and  O_10 
REMARK    3  A    between atoms: C_13  and  N_14 
REMARK    4  A    between atoms: N_14  and  C_15 
REMARK    5  A    between atoms: C_15  and  N_16 
REMARK       I    between atoms: N_16  and  C_17 
REMARK    6  A    between atoms: C_17  and  C_18 
REMARK    7  A    between atoms: C_20  and  O_21 
REMARK    8  A    between atoms: O_21  and  C_22 
REMARK    9  A    between atoms: C_22  and  C_23 
ROOT
HETATM    1  C   UNL     1      25.507  44.375  51.585  1.00  0.00     0.052 A 
HETATM    2  C   UNL     1      25.061  43.166  51.036  1.00  0.00     0.080 A 
HETATM    3  C   UNL     1      24.083  43.151  50.035  1.00  0.00     0.040 A 
HETATM    4  C   UNL     1      23.537  44.350  49.569  1.00  0.00     0.032 A 
HETATM    5  C   UNL     1      24.017  45.567  50.047  1.00  0.00     0.035 A 
HETATM    6  C   UNL     1      24.993  45.571  51.046  1.00  0.00     0.048 A 
ENDROOT
BRANCH   5   7
HETATM    7  N   UNL     1      23.406  46.757  49.608  1.00  0.00    -0.333 N 
HETATM    8  H   UNL     1      22.401  46.712  49.441  1.00  0.00     0.168 HD
BRANCH   7   9
HETATM    9  C   UNL     1      23.969  48.002  49.494  1.00  0.00     0.179 C 
HETATM   10  S   UNL     1      25.601  48.364  49.379  1.00  0.00    -0.040 SA
BRANCH   9  11
HETATM   11  N   UNL     1      23.095  49.063  49.473  1.00  0.00    -0.299 N 
HETATM   12  C   UNL     1      22.649  49.758  48.359  1.00  0.00     0.257 C 
HETATM   13  O   UNL     1      23.272  49.882  47.312  1.00  0.00    -0.267 OA
HETATM   14  H   UNL     1      22.513  49.074  50.301  1.00  0.00     0.171 HD
BRANCH  12  15
HETATM   15  C   UNL     1      21.306  50.367  48.522  1.00  0.00     0.035 A 
HETATM   16  C   UNL     1      20.412  50.436  47.446  1.00  0.00     0.053 A 
HETATM   17  C   UNL     1      19.214  51.137  47.584  1.00  0.00     0.069 A 
HETATM   18  C   UNL     1      18.911  51.738  48.810  1.00  0.00     0.037 A 
HETATM   19  C   UNL     1      19.786  51.639  49.894  1.00  0.00     0.004 A 
HETATM   20  C   UNL     1      20.988  50.949  49.753  1.00  0.00     0.017 A 
BRANCH  17  21
HETATM   21  O   UNL     1      18.280  51.328  46.605  1.00  0.00    -0.351 OA
BRANCH  21  22
HETATM   22  C   UNL     1      17.422  50.231  46.290  1.00  0.00     0.179 C 
BRANCH  22  23
HETATM   23  C   UNL     1      15.974  50.564  46.684  1.00  0.00     0.002 C 
HETATM   24  C   UNL     1      14.967  49.908  45.740  1.00  0.00     0.011 C 
HETATM   25  C   UNL     1      15.689  50.148  48.129  1.00  0.00     0.011 C 
ENDBRANCH  22  23
ENDBRANCH  21  22
ENDBRANCH  17  21
ENDBRANCH  12  15
ENDBRANCH   9  11
ENDBRANCH   7   9
ENDBRANCH   5   7
BRANCH   1  26
HETATM   26  C   UNL     1      26.383  44.444  52.757  1.00  0.00     0.183 A 
HETATM   27  O   UNL     1      27.517  43.664  52.694  1.00  0.00    -0.288 OA
HETATM   28  C   UNL     1      28.257  44.049  53.772  1.00  0.00     0.112 A 
HETATM   29  C   UNL     1      27.532  45.015  54.449  1.00  0.00     0.094 A 
HETATM   30  C   UNL     1      29.527  43.597  54.127  1.00  0.00    -0.025 A 
HETATM   31  C   UNL     1      28.093  45.613  55.584  1.00  0.00     0.041 A 
HETATM   32  N   UNL     1      26.341  45.243  53.809  1.00  0.00    -0.221 NA
HETATM   33  C   UNL     1      29.380  45.212  55.989  1.00  0.00    -0.059 A 
HETATM   34  C   UNL     1      30.044  45.888  57.154  1.00  0.00     0.048 C 
HETATM   35  C   UNL     1      30.076  44.229  55.259  1.00  0.00     0.016 A 
HETATM   36  C   UNL     1      30.300  42.581  53.350  1.00  0.00     0.051 C 
ENDBRANCH   1  26
BRANCH   2  37
HETATM   37  O   UNL     1      25.578  41.980  51.475  1.00  0.00    -0.360 OA
HETATM   38  H   UNL     1      25.085  41.241  51.087  1.00  0.00     0.217 HD
ENDBRANCH   2  37
TORSDOF 9
ENDMDL
MODEL 8
REMARK VINA RESULT:      -9.2      2.317     10.645
REMARK  9 active torsions:
REMARK  status: ('A' for Active; 'I' for Inactive)
REMARK    1  A    between atoms: C_7  and  C_8 
REMARK    2  A    between atoms: C_9  and  O_10 
REMARK    3  A    between atoms: C_13  and  N_14 
REMARK    4  A    between atoms: N_14  and  C_15 
REMARK    5  A    between atoms: C_15  and  N_16 
REMARK       I    between atoms: N_16  and  C_17 
REMARK    6  A    between atoms: C_17  and  C_18 
REMARK    7  A    between atoms: C_20  and  O_21 
REMARK    8  A    between atoms: O_21  and  C_22 
REMARK    9  A    between atoms: C_22  and  C_23 
ROOT
HETATM    1  C   UNL     1      23.376  49.312  48.900  1.00  0.00     0.052 A 
HETATM    2  C   UNL     1      24.490  49.880  48.270  1.00  0.00     0.080 A 
HETATM    3  C   UNL     1      25.779  49.394  48.517  1.00  0.00     0.040 A 
HETATM    4  C   UNL     1      25.969  48.329  49.402  1.00  0.00     0.032 A 
HETATM    5  C   UNL     1      24.871  47.700  49.983  1.00  0.00     0.035 A 
HETATM    6  C   UNL     1      23.589  48.194  49.730  1.00  0.00     0.048 A 
ENDROOT
BRANCH   5   7
HETATM    7  N   UNL     1      25.094  46.672  50.919  1.00  0.00    -0.333 N 
HETATM    8  H   UNL     1      25.222  46.966  51.887  1.00  0.00     0.168 HD
BRANCH   7   9
HETATM    9  C   UNL     1      25.039  45.318  50.714  1.00  0.00     0.179 C 
HETATM   10  S   UNL     1      23.723  44.432  50.172  1.00  0.00    -0.040 SA
BRANCH   9  11
HETATM   11  N   UNL     1      26.189  44.617  50.984  1.00  0.00    -0.299 N 
HETATM   12  C   UNL     1      26.891  44.591  52.180  1.00  0.00     0.257 C 
HETATM   13  O   UNL     1      26.911  45.497  53.004  1.00  0.00    -0.267 OA
HETATM   14  H   UNL     1      26.293  43.827  50.360  1.00  0.00     0.171 HD
BRANCH  12  15
HETATM   15  C   UNL     1      27.652  43.338  52.410  1.00  0.00     0.035 A 
HETATM   16  C   UNL     1      27.784  42.381  51.395  1.00  0.00     0.053 A 
HETATM   17  C   UNL     1      28.380  41.152  51.676  1.00  0.00     0.069 A 
HETATM   18  C   UNL     1      28.864  40.904  52.964  1.00  0.00     0.037 A 
HETATM   19  C   UNL     1      28.764  41.872  53.967  1.00  0.00     0.004 A 
HETATM   20  C   UNL     1      28.158  43.096  53.690  1.00  0.00     0.017 A 
BRANCH  17  21
HETATM   21  O   UNL     1      28.525  40.113  50.800  1.00  0.00    -0.351 OA
BRANCH  21  22
HETATM   22  C   UNL     1      27.421  39.814  49.945  1.00  0.00     0.179 C 
BRANCH  22  23
HETATM   23  C   UNL     1      27.926  39.426  48.546  1.00  0.00     0.002 C 
HETATM   24  C   UNL     1      28.299  40.656  47.720  1.00  0.00     0.011 C 
HETATM   25  C   UNL     1      29.119  38.473  48.639  1.00  0.00     0.011 C 
ENDBRANCH  22  23
ENDBRANCH  21  22
ENDBRANCH  17  21
ENDBRANCH  12  15
ENDBRANCH   9  11
ENDBRANCH   7   9
ENDBRANCH   5   7
BRANCH   1  26
HETATM   26  C   UNL     1      22.034  49.896  48.827  1.00  0.00     0.183 A 
HETATM   27  O   UNL     1      20.995  49.023  49.061  1.00  0.00    -0.288 OA
HETATM   28  C   UNL     1      19.892  49.818  49.148  1.00  0.00     0.112 A 
HETATM   29  C   UNL     1      20.304  51.122  48.937  1.00  0.00     0.094 A 
HETATM   30  C   UNL     1      18.587  49.420  49.434  1.00  0.00    -0.025 A 
HETATM   31  C   UNL     1      19.360  52.153  49.016  1.00  0.00     0.041 A 
HETATM   32  N   UNL     1      21.657  51.159  48.717  1.00  0.00    -0.221 NA
HETATM   33  C   UNL     1      18.025  51.821  49.315  1.00  0.00    -0.059 A 
HETATM   34  C   UNL     1      17.003  52.908  49.486  1.00  0.00     0.048 C 
HETATM   35  C   UNL     1      17.662  50.478  49.528  1.00  0.00     0.016 A 
HETATM   36  C   UNL     1      18.183  48.006  49.697  1.00  0.00     0.051 C 
ENDBRANCH   1  26
BRANCH   2  37
HETATM   37  O   UNL     1      24.331  50.923  47.402  1.00  0.00    -0.360 OA
HETATM   38  H   UNL     1      24.141  51.737  47.894  1.00  0.00     0.217 HD
ENDBRANCH   2  37
TORSDOF 9
ENDMDL
MODEL 9
REMARK VINA RESULT:      -9.1      2.293     11.083
REMARK  9 active torsions:
REMARK  status: ('A' for Active; 'I' for Inactive)
REMARK    1  A    between atoms: C_7  and  C_8 
REMARK    2  A    between atoms: C_9  and  O_10 
REMARK    3  A    between atoms: C_13  and  N_14 
REMARK    4  A    between atoms: N_14  and  C_15 
REMARK    5  A    between atoms: C_15  and  N_16 
REMARK       I    between atoms: N_16  and  C_17 
REMARK    6  A    between atoms: C_17  and  C_18 
REMARK    7  A    between atoms: C_20  and  O_21 
REMARK    8  A    between atoms: O_21  and  C_22 
REMARK    9  A    between atoms: C_22  and  C_23 
ROOT
HETATM    1  C   UNL     1      22.601  48.982  48.430  1.00  0.00     0.052 A 
HETATM    2  C   UNL     1      23.756  49.716  48.131  1.00  0.00     0.080 A 
HETATM    3  C   UNL     1      25.001  49.334  48.642  1.00  0.00     0.040 A 
HETATM    4  C   UNL     1      25.107  48.207  49.461  1.00  0.00     0.032 A 
HETATM    5  C   UNL     1      23.986  47.418  49.712  1.00  0.00     0.035 A 
HETATM    6  C   UNL     1      22.748  47.809  49.197  1.00  0.00     0.048 A 
ENDROOT
BRANCH   5   7
HETATM    7  N   UNL     1      24.108  46.325  50.591  1.00  0.00    -0.333 N 
HETATM    8  H   UNL     1      23.984  46.530  51.582  1.00  0.00     0.168 HD
BRANCH   7   9
HETATM    9  C   UNL     1      24.250  44.999  50.274  1.00  0.00     0.179 C 
HETATM   10  S   UNL     1      23.159  44.038  49.442  1.00  0.00    -0.040 SA
BRANCH   9  11
HETATM   11  N   UNL     1      25.415  44.399  50.687  1.00  0.00    -0.299 N 
HETATM   12  C   UNL     1      26.161  44.708  51.815  1.00  0.00     0.257 C 
HETATM   13  O   UNL     1      26.204  45.809  52.350  1.00  0.00    -0.267 OA
HETATM   14  H   UNL     1      25.502  43.465  50.306  1.00  0.00     0.171 HD
BRANCH  12  15
HETATM   15  C   UNL     1      26.939  43.568  52.359  1.00  0.00     0.035 A 
HETATM   16  C   UNL     1      27.726  43.718  53.509  1.00  0.00     0.053 A 
HETATM   17  C   UNL     1      28.557  42.676  53.920  1.00  0.00     0.069 A 
HETATM   18  C   UNL     1      28.569  41.482  53.191  1.00  0.00     0.037 A 
HETATM   19  C   UNL     1      27.758  41.320  52.066  1.00  0.00     0.004 A 
HETATM   20  C   UNL     1      26.937  42.365  51.647  1.00  0.00     0.017 A 
BRANCH  17  21
HETATM   21  O   UNL     1      29.412  42.706  54.985  1.00  0.00    -0.351 OA
BRANCH  21  22
HETATM   22  C   UNL     1      30.718  43.243  54.767  1.00  0.00     0.179 C 
BRANCH  22  23
HETATM   23  C   UNL     1      31.089  44.206  55.906  1.00  0.00     0.002 C 
HETATM   24  C   UNL     1      29.957  45.187  56.207  1.00  0.00     0.011 C 
HETATM   25  C   UNL     1      31.470  43.436  57.172  1.00  0.00     0.011 C 
ENDBRANCH  22  23
ENDBRANCH  21  22
ENDBRANCH  17  21
ENDBRANCH  12  15
ENDBRANCH   9  11
ENDBRANCH   7   9
ENDBRANCH   5   7
BRANCH   1  26
HETATM   26  C   UNL     1      21.254  49.438  48.082  1.00  0.00     0.183 A 
HETATM   27  O   UNL     1      20.229  48.594  48.453  1.00  0.00    -0.288 OA
HETATM   28  C   UNL     1      19.094  49.312  48.222  1.00  0.00     0.112 A 
HETATM   29  C   UNL     1      19.476  50.536  47.700  1.00  0.00     0.094 A 
HETATM   30  C   UNL     1      17.782  48.923  48.490  1.00  0.00    -0.025 A 
HETATM   31  C   UNL     1      18.491  51.488  47.411  1.00  0.00     0.041 A 
HETATM   32  N   UNL     1      20.842  50.597  47.598  1.00  0.00    -0.221 NA
HETATM   33  C   UNL     1      17.146  51.164  47.670  1.00  0.00    -0.059 A 
HETATM   34  C   UNL     1      16.072  52.189  47.447  1.00  0.00     0.048 C 
HETATM   35  C   UNL     1      16.814  49.906  48.210  1.00  0.00     0.016 A 
HETATM   36  C   UNL     1      17.407  47.609  49.093  1.00  0.00     0.051 C 
ENDBRANCH   1  26
BRANCH   2  37
HETATM   37  O   UNL     1      23.679  50.823  47.334  1.00  0.00    -0.360 OA
HETATM   38  H   UNL     1      22.843  50.818  46.842  1.00  0.00     0.217 HD
ENDBRANCH   2  37
TORSDOF 9
ENDMDL
MODEL 10
REMARK VINA RESULT:      -9.0      2.862      4.722
REMARK  9 active torsions:
REMARK  status: ('A' for Active; 'I' for Inactive)
REMARK    1  A    between atoms: C_7  and  C_8 
REMARK    2  A    between atoms: C_9  and  O_10 
REMARK    3  A    between atoms: C_13  and  N_14 
REMARK    4  A    between atoms: N_14  and  C_15 
REMARK    5  A    between atoms: C_15  and  N_16 
REMARK       I    between atoms: N_16  and  C_17 
REMARK    6  A    between atoms: C_17  and  C_18 
REMARK    7  A    between atoms: C_20  and  O_21 
REMARK    8  A    between atoms: O_21  and  C_22 
REMARK    9  A    between atoms: C_22  and  C_23 
ROOT
HETATM    1  C   UNL     1      25.315  45.472  51.510  1.00  0.00     0.052 A 
HETATM    2  C   UNL     1      25.318  46.786  51.024  1.00  0.00     0.080 A 
HETATM    3  C   UNL     1      24.477  47.164  49.972  1.00  0.00     0.040 A 
HETATM    4  C   UNL     1      23.619  46.228  49.390  1.00  0.00     0.032 A 
HETATM    5  C   UNL     1      23.544  44.935  49.903  1.00  0.00     0.035 A 
HETATM    6  C   UNL     1      24.388  44.569  50.954  1.00  0.00     0.048 A 
ENDROOT
BRANCH   5   7
HETATM    7  N   UNL     1      22.718  43.995  49.258  1.00  0.00    -0.333 N 
HETATM    8  H   UNL     1      22.084  43.467  49.857  1.00  0.00     0.168 HD
BRANCH   7   9
HETATM    9  C   UNL     1      22.572  43.784  47.911  1.00  0.00     0.179 C 
HETATM   10  S   UNL     1      23.484  42.763  46.945  1.00  0.00    -0.040 SA
BRANCH   9  11
HETATM   11  N   UNL     1      21.569  44.491  47.293  1.00  0.00    -0.299 N 
HETATM   12  C   UNL     1      20.472  45.089  47.896  1.00  0.00     0.257 C 
HETATM   13  O   UNL     1      19.954  44.716  48.941  1.00  0.00    -0.267 OA
HETATM   14  H   UNL     1      21.875  44.859  46.401  1.00  0.00     0.171 HD
BRANCH  12  15
HETATM   15  C   UNL     1      19.943  46.265  47.162  1.00  0.00     0.035 A 
HETATM   16  C   UNL     1      20.043  47.554  47.702  1.00  0.00     0.053 A 
HETATM   17  C   UNL     1      19.416  48.623  47.063  1.00  0.00     0.069 A 
HETATM   18  C   UNL     1      18.718  48.395  45.873  1.00  0.00     0.037 A 
HETATM   19  C   UNL     1      18.649  47.117  45.315  1.00  0.00     0.004 A 
HETATM   20  C   UNL     1      19.265  46.046  45.960  1.00  0.00     0.017 A 
BRANCH  17  21
HETATM   21  O   UNL     1      19.387  49.916  47.506  1.00  0.00    -0.351 OA
BRANCH  21  22
HETATM   22  C   UNL     1      20.609  50.655  47.459  1.00  0.00     0.179 C 
BRANCH  22  23
HETATM   23  C   UNL     1      20.907  51.268  48.837  1.00  0.00     0.002 C 
HETATM   24  C   UNL     1      19.663  51.296  49.723  1.00  0.00     0.011 C 
HETATM   25  C   UNL     1      22.037  50.512  49.540  1.00  0.00     0.011 C 
ENDBRANCH  22  23
ENDBRANCH  21  22
ENDBRANCH  17  21
ENDBRANCH  12  15
ENDBRANCH   9  11
ENDBRANCH   7   9
ENDBRANCH   5   7
BRANCH   1  26
HETATM   26  C   UNL     1      26.299  44.976  52.474  1.00  0.00     0.183 A 
HETATM   27  O   UNL     1      26.799  43.719  52.215  1.00  0.00    -0.288 OA
HETATM   28  C   UNL     1      27.823  43.568  53.102  1.00  0.00     0.112 A 
HETATM   29  C   UNL     1      27.879  44.718  53.869  1.00  0.00     0.094 A 
HETATM   30  C   UNL     1      28.692  42.483  53.209  1.00  0.00    -0.025 A 
HETATM   31  C   UNL     1      28.882  44.838  54.839  1.00  0.00     0.041 A 
HETATM   32  N   UNL     1      26.900  45.594  53.477  1.00  0.00    -0.221 NA
HETATM   33  C   UNL     1      29.801  43.784  54.990  1.00  0.00    -0.059 A 
HETATM   34  C   UNL     1      30.936  43.913  55.965  1.00  0.00     0.048 C 
HETATM   35  C   UNL     1      29.703  42.639  54.176  1.00  0.00     0.016 A 
HETATM   36  C   UNL     1      28.629  41.273  52.335  1.00  0.00     0.051 C 
ENDBRANCH   1  26
BRANCH   2  37
HETATM   37  O   UNL     1      26.149  47.720  51.576  1.00  0.00    -0.360 OA
HETATM   38  H   UNL     1      25.628  48.394  52.039  1.00  0.00     0.217 HD
ENDBRANCH   2  37
TORSDOF 9
ENDMDL
