MODEL 1
REMARK VINA RESULT:      -8.7      0.000      0.000
REMARK  6 active torsions:
REMARK  status: ('A' for Active; 'I' for Inactive)
REMARK    1  A    between atoms: C_2  and  N_3 
REMARK       I    between atoms: N_3  and  C_4 
REMARK    2  A    between atoms: C_4  and  C_5 
REMARK    3  A    between atoms: C_6  and  N_7 
REMARK       I    between atoms: N_7  and  C_8 
REMARK    4  A    between atoms: C_8  and  C_9 
REMARK    5  A    between atoms: C_11  and  O_12 
REMARK    6  A    between atoms: O_12  and  C_13 
ROOT
HETATM    1  N   UNL     1      27.794  45.153  53.794  1.00  0.00    -0.322 N 
HETATM    2  C   UNL     1      26.520  44.616  53.721  1.00  0.00     0.256 C 
HETATM    3  O   UNL     1      26.038  43.807  54.507  1.00  0.00    -0.267 OA
HETATM    4  H   UNL     1      28.130  45.682  52.995  1.00  0.00     0.169 HD
ENDROOT
BRANCH   1   5
HETATM    5  C   UNL     1      28.725  45.023  54.861  1.00  0.00     0.050 A 
HETATM    6  C   UNL     1      29.665  43.969  54.848  1.00  0.00     0.058 A 
HETATM    7  C   UNL     1      30.653  43.873  55.839  1.00  0.00     0.019 A 
HETATM    8  C   UNL     1      30.700  44.801  56.875  1.00  0.00     0.001 A 
HETATM    9  C   UNL     1      29.766  45.830  56.915  1.00  0.00     0.002 A 
HETATM   10  C   UNL     1      28.791  45.943  55.915  1.00  0.00     0.030 A 
BRANCH   6  11
HETATM   11  C   UNL     1      29.674  42.908  53.809  1.00  0.00     0.253 C 
HETATM   12  N   UNL     1      28.627  42.006  53.870  1.00  0.00    -0.357 N 
HETATM   13  H   UNL     1      28.100  41.975  54.739  1.00  0.00     0.162 HD
HETATM   14  O   UNL     1      30.585  42.844  52.994  1.00  0.00    -0.268 OA
BRANCH  12  15
HETATM   15  C   UNL     1      28.633  40.808  53.054  1.00  0.00     0.118 C 
HETATM   16  C   UNL     1      27.890  40.998  51.744  1.00  0.00     0.026 C 
ENDBRANCH  12  15
ENDBRANCH   6  11
ENDBRANCH   1   5
BRANCH   2  17
HETATM   17  C   UNL     1      25.686  45.039  52.558  1.00  0.00     0.037 A 
HETATM   18  C   UNL     1      25.739  46.381  52.175  1.00  0.00     0.075 A 
HETATM   19  C   UNL     1      25.008  46.775  51.072  1.00  0.00     0.165 A 
HETATM   20  N   UNL     1      24.236  45.942  50.345  1.00  0.00    -0.237 NA
HETATM   21  C   UNL     1      24.212  44.648  50.727  1.00  0.00     0.120 A 
HETATM   22  C   UNL     1      24.915  44.147  51.810  1.00  0.00     0.036 A 
BRANCH  19  23
HETATM   23  O   UNL     1      25.109  48.104  50.708  1.00  0.00    -0.329 OA
BRANCH  23  24
HETATM   24  C   UNL     1      25.524  48.368  49.351  1.00  0.00     0.130 C 
HETATM   25  C   UNL     1      25.001  49.675  48.700  1.00  0.00     0.032 C 
HETATM   26  C   UNL     1      26.397  49.852  48.076  1.00  0.00     0.005 C 
HETATM   27  C   UNL     1      26.944  48.981  49.220  1.00  0.00     0.032 C 
ENDBRANCH  23  24
ENDBRANCH  19  23
ENDBRANCH   2  17
TORSDOF 6
ENDMDL
MODEL 2
REMARK VINA RESULT:      -8.5      2.032      3.463
REMARK  6 active torsions:
REMARK  status: ('A' for Active; 'I' for Inactive)
REMARK    1  A    between atoms: C_2  and  N_3 
REMARK       I    between atoms: N_3  and  C_4 
REMARK    2  A    between atoms: C_4  and  C_5 
REMARK    3  A    between atoms: C_6  and  N_7 
REMARK       I    between atoms: N_7  and  C_8 
REMARK    4  A    between atoms: C_8  and  C_9 
REMARK    5  A    between atoms: C_11  and  O_12 
REMARK    6  A    between atoms: O_12  and  C_13 
ROOT
HETATM    1  N   UNL     1      29.462  43.709  53.862  1.00  0.00    -0.322 N 
HETATM    2  C   UNL     1      28.254  43.082  53.607  1.00  0.00     0.256 C 
HETATM    3  O   UNL     1      27.526  42.562  54.445  1.00  0.00    -0.267 OA
HETATM    4  H   UNL     1      30.045  43.951  53.068  1.00  0.00     0.169 HD
ENDROOT
BRANCH   1   5
HETATM    5  C   UNL     1      30.014  44.031  55.133  1.00  0.00     0.050 A 
HETATM    6  C   UNL     1      29.566  45.179  55.821  1.00  0.00     0.058 A 
HETATM    7  C   UNL     1      30.025  45.467  57.116  1.00  0.00     0.019 A 
HETATM    8  C   UNL     1      30.959  44.638  57.730  1.00  0.00     0.001 A 
HETATM    9  C   UNL     1      31.428  43.517  57.054  1.00  0.00     0.002 A 
HETATM   10  C   UNL     1      30.956  43.214  55.770  1.00  0.00     0.030 A 
BRANCH   6  11
HETATM   11  C   UNL     1      28.602  46.146  55.238  1.00  0.00     0.253 C 
HETATM   12  N   UNL     1      27.286  45.723  55.197  1.00  0.00    -0.357 N 
HETATM   13  H   UNL     1      27.121  44.727  55.315  1.00  0.00     0.162 HD
HETATM   14  O   UNL     1      28.989  47.221  54.798  1.00  0.00    -0.268 OA
BRANCH  12  15
HETATM   15  C   UNL     1      26.288  46.479  54.465  1.00  0.00     0.118 C 
HETATM   16  C   UNL     1      25.271  45.583  53.782  1.00  0.00     0.026 C 
ENDBRANCH  12  15
ENDBRANCH   6  11
ENDBRANCH   1   5
BRANCH   2  17
HETATM   17  C   UNL     1      27.833  43.008  52.177  1.00  0.00     0.037 A 
HETATM   18  C   UNL     1      27.598  44.210  51.506  1.00  0.00     0.075 A 
HETATM   19  C   UNL     1      27.254  44.157  50.170  1.00  0.00     0.165 A 
HETATM   20  N   UNL     1      27.121  43.010  49.474  1.00  0.00    -0.237 NA
HETATM   21  C   UNL     1      27.365  41.862  50.140  1.00  0.00     0.120 A 
HETATM   22  C   UNL     1      27.726  41.805  51.476  1.00  0.00     0.036 A 
BRANCH  19  23
HETATM   23  O   UNL     1      27.059  45.367  49.534  1.00  0.00    -0.329 OA
BRANCH  23  24
HETATM   24  C   UNL     1      26.245  46.334  50.229  1.00  0.00     0.130 C 
HETATM   25  C   UNL     1      26.179  47.761  49.623  1.00  0.00     0.032 C 
HETATM   26  C   UNL     1      24.679  47.773  49.966  1.00  0.00     0.005 C 
HETATM   27  C   UNL     1      24.726  46.235  49.923  1.00  0.00     0.032 C 
ENDBRANCH  23  24
ENDBRANCH  19  23
ENDBRANCH   2  17
TORSDOF 6
ENDMDL
MODEL 3
REMARK VINA RESULT:      -8.3      1.820      2.446
REMARK  6 active torsions:
REMARK  status: ('A' for Active; 'I' for Inactive)
REMARK    1  A    between atoms: C_2  and  N_3 
REMARK       I    between atoms: N_3  and  C_4 
REMARK    2  A    between atoms: C_4  and  C_5 
REMARK    3  A    between atoms: C_6  and  N_7 
REMARK       I    between atoms: N_7  and  C_8 
REMARK    4  A    between atoms: C_8  and  C_9 
REMARK    5  A    between atoms: C_11  and  O_12 
REMARK    6  A    between atoms: O_12  and  C_13 
ROOT
HETATM    1  N   UNL     1      26.954  44.364  52.038  1.00  0.00    -0.322 N 
HETATM    2  C   UNL     1      25.591  44.453  52.261  1.00  0.00     0.256 C 
HETATM    3  O   UNL     1      24.994  44.010  53.236  1.00  0.00    -0.267 OA
HETATM    4  H   UNL     1      27.300  44.621  51.120  1.00  0.00     0.169 HD
ENDROOT
BRANCH   1   5
HETATM    5  C   UNL     1      27.948  43.911  52.950  1.00  0.00     0.050 A 
HETATM    6  C   UNL     1      28.623  42.696  52.704  1.00  0.00     0.058 A 
HETATM    7  C   UNL     1      29.673  42.274  53.536  1.00  0.00     0.019 A 
HETATM    8  C   UNL     1      30.042  43.037  54.640  1.00  0.00     0.001 A 
HETATM    9  C   UNL     1      29.369  44.224  54.908  1.00  0.00     0.002 A 
HETATM   10  C   UNL     1      28.336  44.659  54.068  1.00  0.00     0.030 A 
BRANCH   6  11
HETATM   11  C   UNL     1      28.278  41.793  51.577  1.00  0.00     0.253 C 
HETATM   12  N   UNL     1      28.734  40.493  51.696  1.00  0.00    -0.357 N 
HETATM   13  H   UNL     1      29.465  40.324  52.381  1.00  0.00     0.162 HD
HETATM   14  O   UNL     1      27.664  42.217  50.607  1.00  0.00    -0.268 OA
BRANCH  12  15
HETATM   15  C   UNL     1      28.650  39.574  50.576  1.00  0.00     0.118 C 
HETATM   16  C   UNL     1      29.566  38.375  50.743  1.00  0.00     0.026 C 
ENDBRANCH  12  15
ENDBRANCH   6  11
ENDBRANCH   1   5
BRANCH   2  17
HETATM   17  C   UNL     1      24.785  45.114  51.193  1.00  0.00     0.037 A 
HETATM   18  C   UNL     1      24.912  46.497  51.047  1.00  0.00     0.075 A 
HETATM   19  C   UNL     1      24.208  47.115  50.033  1.00  0.00     0.165 A 
HETATM   20  N   UNL     1      23.395  46.463  49.177  1.00  0.00    -0.237 NA
HETATM   21  C   UNL     1      23.298  45.125  49.330  1.00  0.00     0.120 A 
HETATM   22  C   UNL     1      23.969  44.408  50.307  1.00  0.00     0.036 A 
BRANCH  19  23
HETATM   23  O   UNL     1      24.382  48.479  49.902  1.00  0.00    -0.329 OA
BRANCH  23  24
HETATM   24  C   UNL     1      23.592  49.134  48.888  1.00  0.00     0.130 C 
HETATM   25  C   UNL     1      22.676  50.296  49.354  1.00  0.00     0.032 C 
HETATM   26  C   UNL     1      23.079  51.048  48.074  1.00  0.00     0.005 C 
HETATM   27  C   UNL     1      24.361  50.196  48.058  1.00  0.00     0.032 C 
ENDBRANCH  23  24
ENDBRANCH  19  23
ENDBRANCH   2  17
TORSDOF 6
ENDMDL
MODEL 4
REMARK VINA RESULT:      -8.1      2.478      3.602
REMARK  6 active torsions:
REMARK  status: ('A' for Active; 'I' for Inactive)
REMARK    1  A    between atoms: C_2  and  N_3 
REMARK       I    between atoms: N_3  and  C_4 
REMARK    2  A    between atoms: C_4  and  C_5 
REMARK    3  A    between atoms: C_6  and  N_7 
REMARK       I    between atoms: N_7  and  C_8 
REMARK    4  A    between atoms: C_8  and  C_9 
REMARK    5  A    between atoms: C_11  and  O_12 
REMARK    6  A    between atoms: O_12  and  C_13 
ROOT
HETATM    1  N   UNL     1      25.377  46.224  52.307  1.00  0.00    -0.322 N 
HETATM    2  C   UNL     1      25.435  47.004  51.165  1.00  0.00     0.256 C 
HETATM    3  O   UNL     1      26.242  47.902  50.950  1.00  0.00    -0.267 OA
HETATM    4  H   UNL     1      24.563  45.630  52.433  1.00  0.00     0.169 HD
ENDROOT
BRANCH   1   5
HETATM    5  C   UNL     1      26.323  46.178  53.368  1.00  0.00     0.050 A 
HETATM    6  C   UNL     1      27.304  45.162  53.389  1.00  0.00     0.058 A 
HETATM    7  C   UNL     1      28.307  45.149  54.371  1.00  0.00     0.019 A 
HETATM    8  C   UNL     1      28.328  46.125  55.364  1.00  0.00     0.001 A 
HETATM    9  C   UNL     1      27.354  47.117  55.370  1.00  0.00     0.002 A 
HETATM   10  C   UNL     1      26.365  47.146  54.378  1.00  0.00     0.030 A 
BRANCH   6  11
HETATM   11  C   UNL     1      27.343  44.056  52.399  1.00  0.00     0.253 C 
HETATM   12  N   UNL     1      27.138  42.789  52.914  1.00  0.00    -0.357 N 
HETATM   13  H   UNL     1      27.236  42.682  53.919  1.00  0.00     0.162 HD
HETATM   14  O   UNL     1      27.583  44.285  51.220  1.00  0.00    -0.268 OA
BRANCH  12  15
HETATM   15  C   UNL     1      27.360  41.613  52.095  1.00  0.00     0.118 C 
HETATM   16  C   UNL     1      28.682  40.934  52.408  1.00  0.00     0.026 C 
ENDBRANCH  12  15
ENDBRANCH   6  11
ENDBRANCH   1   5
BRANCH   2  17
HETATM   17  C   UNL     1      24.392  46.743  50.129  1.00  0.00     0.037 A 
HETATM   18  C   UNL     1      23.868  47.841  49.444  1.00  0.00     0.075 A 
HETATM   19  C   UNL     1      22.938  47.609  48.451  1.00  0.00     0.165 A 
HETATM   20  N   UNL     1      22.495  46.382  48.107  1.00  0.00    -0.237 NA
HETATM   21  C   UNL     1      23.026  45.336  48.774  1.00  0.00     0.120 A 
HETATM   22  C   UNL     1      23.972  45.458  49.779  1.00  0.00     0.036 A 
BRANCH  19  23
HETATM   23  O   UNL     1      22.465  48.717  47.777  1.00  0.00    -0.329 OA
BRANCH  23  24
HETATM   24  C   UNL     1      21.555  49.570  48.501  1.00  0.00     0.130 C 
HETATM   25  C   UNL     1      22.003  51.037  48.736  1.00  0.00     0.032 C 
HETATM   26  C   UNL     1      20.554  51.464  48.443  1.00  0.00     0.005 C 
HETATM   27  C   UNL     1      20.402  50.158  47.643  1.00  0.00     0.032 C 
ENDBRANCH  23  24
ENDBRANCH  19  23
ENDBRANCH   2  17
TORSDOF 6
ENDMDL
MODEL 5
REMARK VINA RESULT:      -8.1      3.945      9.186
REMARK  6 active torsions:
REMARK  status: ('A' for Active; 'I' for Inactive)
REMARK    1  A    between atoms: C_2  and  N_3 
REMARK       I    between atoms: N_3  and  C_4 
REMARK    2  A    between atoms: C_4  and  C_5 
REMARK    3  A    between atoms: C_6  and  N_7 
REMARK       I    between atoms: N_7  and  C_8 
REMARK    4  A    between atoms: C_8  and  C_9 
REMARK    5  A    between atoms: C_11  and  O_12 
REMARK    6  A    between atoms: O_12  and  C_13 
ROOT
HETATM    1  N   UNL     1      22.347  49.364  49.420  1.00  0.00    -0.322 N 
HETATM    2  C   UNL     1      23.317  49.600  48.461  1.00  0.00     0.256 C 
HETATM    3  O   UNL     1      23.126  50.091  47.354  1.00  0.00    -0.267 OA
HETATM    4  H   UNL     1      22.606  48.804  50.226  1.00  0.00     0.169 HD
ENDROOT
BRANCH   1   5
HETATM    5  C   UNL     1      20.990  49.790  49.396  1.00  0.00     0.050 A 
HETATM    6  C   UNL     1      19.991  48.921  48.907  1.00  0.00     0.058 A 
HETATM    7  C   UNL     1      18.635  49.280  48.960  1.00  0.00     0.019 A 
HETATM    8  C   UNL     1      18.257  50.521  49.467  1.00  0.00     0.001 A 
HETATM    9  C   UNL     1      19.233  51.397  49.929  1.00  0.00     0.002 A 
HETATM   10  C   UNL     1      20.585  51.033  49.899  1.00  0.00     0.030 A 
BRANCH   6  11
HETATM   11  C   UNL     1      20.293  47.594  48.312  1.00  0.00     0.253 C 
HETATM   12  N   UNL     1      20.009  46.504  49.113  1.00  0.00    -0.357 N 
HETATM   13  H   UNL     1      19.872  46.686  50.104  1.00  0.00     0.162 HD
HETATM   14  O   UNL     1      20.797  47.513  47.199  1.00  0.00    -0.268 OA
BRANCH  12  15
HETATM   15  C   UNL     1      20.452  45.175  48.738  1.00  0.00     0.118 C 
HETATM   16  C   UNL     1      21.928  44.957  49.019  1.00  0.00     0.026 C 
ENDBRANCH  12  15
ENDBRANCH   6  11
ENDBRANCH   1   5
BRANCH   2  17
HETATM   17  C   UNL     1      24.707  49.181  48.806  1.00  0.00     0.037 A 
HETATM   18  C   UNL     1      24.865  48.038  49.592  1.00  0.00     0.075 A 
HETATM   19  C   UNL     1      26.147  47.613  49.878  1.00  0.00     0.165 A 
HETATM   20  N   UNL     1      27.261  48.243  49.452  1.00  0.00    -0.237 NA
HETATM   21  C   UNL     1      27.083  49.338  48.684  1.00  0.00     0.120 A 
HETATM   22  C   UNL     1      25.842  49.842  48.330  1.00  0.00     0.036 A 
BRANCH  19  23
HETATM   23  O   UNL     1      26.262  46.462  50.633  1.00  0.00    -0.329 OA
BRANCH  23  24
HETATM   24  C   UNL     1      25.550  46.442  51.887  1.00  0.00     0.130 C 
HETATM   25  C   UNL     1      25.700  45.168  52.759  1.00  0.00     0.032 C 
HETATM   26  C   UNL     1      25.775  46.090  53.989  1.00  0.00     0.005 C 
HETATM   27  C   UNL     1      26.259  47.202  53.041  1.00  0.00     0.032 C 
ENDBRANCH  23  24
ENDBRANCH  19  23
ENDBRANCH   2  17
TORSDOF 6
ENDMDL
MODEL 6
REMARK VINA RESULT:      -8.0      3.086      5.661
REMARK  6 active torsions:
REMARK  status: ('A' for Active; 'I' for Inactive)
REMARK    1  A    between atoms: C_2  and  N_3 
REMARK       I    between atoms: N_3  and  C_4 
REMARK    2  A    between atoms: C_4  and  C_5 
REMARK    3  A    between atoms: C_6  and  N_7 
REMARK       I    between atoms: N_7  and  C_8 
REMARK    4  A    between atoms: C_8  and  C_9 
REMARK    5  A    between atoms: C_11  and  O_12 
REMARK    6  A    between atoms: O_12  and  C_13 
ROOT
HETATM    1  N   UNL     1      29.460  43.756  53.900  1.00  0.00    -0.322 N 
HETATM    2  C   UNL     1      28.228  43.186  53.630  1.00  0.00     0.256 C 
HETATM    3  O   UNL     1      27.464  42.702  54.458  1.00  0.00    -0.267 OA
HETATM    4  H   UNL     1      30.064  43.968  53.114  1.00  0.00     0.169 HD
ENDROOT
BRANCH   1   5
HETATM    5  C   UNL     1      30.008  44.055  55.178  1.00  0.00     0.050 A 
HETATM    6  C   UNL     1      29.582  45.208  55.871  1.00  0.00     0.058 A 
HETATM    7  C   UNL     1      30.036  45.476  57.172  1.00  0.00     0.019 A 
HETATM    8  C   UNL     1      30.945  44.620  57.788  1.00  0.00     0.001 A 
HETATM    9  C   UNL     1      31.393  43.493  57.107  1.00  0.00     0.002 A 
HETATM   10  C   UNL     1      30.925  43.211  55.817  1.00  0.00     0.030 A 
BRANCH   6  11
HETATM   11  C   UNL     1      28.646  46.203  55.288  1.00  0.00     0.253 C 
HETATM   12  N   UNL     1      27.311  45.843  55.302  1.00  0.00    -0.357 N 
HETATM   13  H   UNL     1      27.103  44.861  55.458  1.00  0.00     0.162 HD
HETATM   14  O   UNL     1      29.070  47.243  54.800  1.00  0.00    -0.268 OA
BRANCH  12  15
HETATM   15  C   UNL     1      26.327  46.624  54.577  1.00  0.00     0.118 C 
HETATM   16  C   UNL     1      25.389  45.755  53.759  1.00  0.00     0.026 C 
ENDBRANCH  12  15
ENDBRANCH   6  11
ENDBRANCH   1   5
BRANCH   2  17
HETATM   17  C   UNL     1      27.824  43.128  52.194  1.00  0.00     0.037 A 
HETATM   18  C   UNL     1      27.629  41.868  51.624  1.00  0.00     0.075 A 
HETATM   19  C   UNL     1      27.210  41.802  50.311  1.00  0.00     0.165 A 
HETATM   20  N   UNL     1      26.986  42.884  49.538  1.00  0.00    -0.237 NA
HETATM   21  C   UNL     1      27.168  44.090  50.114  1.00  0.00     0.120 A 
HETATM   22  C   UNL     1      27.576  44.268  51.426  1.00  0.00     0.036 A 
BRANCH  19  23
HETATM   23  O   UNL     1      27.001  40.538  49.792  1.00  0.00    -0.329 OA
BRANCH  23  24
HETATM   24  C   UNL     1      28.082  39.595  49.941  1.00  0.00     0.130 C 
HETATM   25  C   UNL     1      27.782  38.119  49.570  1.00  0.00     0.032 C 
HETATM   26  C   UNL     1      29.178  38.059  48.926  1.00  0.00     0.005 C 
HETATM   27  C   UNL     1      29.095  39.587  48.764  1.00  0.00     0.032 C 
ENDBRANCH  23  24
ENDBRANCH  19  23
ENDBRANCH   2  17
TORSDOF 6
ENDMDL
MODEL 7
REMARK VINA RESULT:      -8.0      2.360      6.900
REMARK  6 active torsions:
REMARK  status: ('A' for Active; 'I' for Inactive)
REMARK    1  A    between atoms: C_2  and  N_3 
REMARK       I    between atoms: N_3  and  C_4 
REMARK    2  A    between atoms: C_4  and  C_5 
REMARK    3  A    between atoms: C_6  and  N_7 
REMARK       I    between atoms: N_7  and  C_8 
REMARK    4  A    between atoms: C_8  and  C_9 
REMARK    5  A    between atoms: C_11  and  O_12 
REMARK    6  A    between atoms: O_12  and  C_13 
ROOT
HETATM    1  N   UNL     1      27.657  43.850  52.220  1.00  0.00    -0.322 N 
HETATM    2  C   UNL     1      26.623  44.379  52.973  1.00  0.00     0.256 C 
HETATM    3  O   UNL     1      25.435  44.097  52.859  1.00  0.00    -0.267 OA
HETATM    4  H   UNL     1      28.570  44.286  52.299  1.00  0.00     0.169 HD
ENDROOT
BRANCH   1   5
HETATM    5  C   UNL     1      27.586  42.765  51.302  1.00  0.00     0.050 A 
HETATM    6  C   UNL     1      27.030  42.967  50.021  1.00  0.00     0.058 A 
HETATM    7  C   UNL     1      27.034  41.940  49.064  1.00  0.00     0.019 A 
HETATM    8  C   UNL     1      27.559  40.690  49.379  1.00  0.00     0.001 A 
HETATM    9  C   UNL     1      28.088  40.470  50.646  1.00  0.00     0.002 A 
HETATM   10  C   UNL     1      28.106  41.499  51.596  1.00  0.00     0.030 A 
BRANCH   6  11
HETATM   11  C   UNL     1      26.411  44.250  49.601  1.00  0.00     0.253 C 
HETATM   12  N   UNL     1      25.028  44.280  49.627  1.00  0.00    -0.357 N 
HETATM   13  H   UNL     1      24.551  43.384  49.671  1.00  0.00     0.162 HD
HETATM   14  O   UNL     1      27.109  45.184  49.226  1.00  0.00    -0.268 OA
BRANCH  12  15
HETATM   15  C   UNL     1      24.301  45.391  49.044  1.00  0.00     0.118 C 
HETATM   16  C   UNL     1      24.177  46.565  49.999  1.00  0.00     0.026 C 
ENDBRANCH  12  15
ENDBRANCH   6  11
ENDBRANCH   1   5
BRANCH   2  17
HETATM   17  C   UNL     1      26.998  45.412  53.983  1.00  0.00     0.037 A 
HETATM   18  C   UNL     1      28.221  45.264  54.640  1.00  0.00     0.075 A 
HETATM   19  C   UNL     1      28.602  46.237  55.542  1.00  0.00     0.165 A 
HETATM   20  N   UNL     1      27.856  47.322  55.836  1.00  0.00    -0.237 NA
HETATM   21  C   UNL     1      26.684  47.450  55.179  1.00  0.00     0.120 A 
HETATM   22  C   UNL     1      26.215  46.537  54.249  1.00  0.00     0.036 A 
BRANCH  19  23
HETATM   23  O   UNL     1      29.831  46.070  56.149  1.00  0.00    -0.329 OA
BRANCH  23  24
HETATM   24  C   UNL     1      30.131  44.747  56.639  1.00  0.00     0.130 C 
HETATM   25  C   UNL     1      31.275  43.978  55.928  1.00  0.00     0.032 C 
HETATM   26  C   UNL     1      31.722  43.480  57.313  1.00  0.00     0.005 C 
HETATM   27  C   UNL     1      31.026  44.718  57.907  1.00  0.00     0.032 C 
ENDBRANCH  23  24
ENDBRANCH  19  23
ENDBRANCH   2  17
TORSDOF 6
ENDMDL
MODEL 8
REMARK VINA RESULT:      -7.9      2.829      4.657
REMARK  6 active torsions:
REMARK  status: ('A' for Active; 'I' for Inactive)
REMARK    1  A    between atoms: C_2  and  N_3 
REMARK       I    between atoms: N_3  and  C_4 
REMARK    2  A    between atoms: C_4  and  C_5 
REMARK    3  A    between atoms: C_6  and  N_7 
REMARK       I    between atoms: N_7  and  C_8 
REMARK    4  A    between atoms: C_8  and  C_9 
REMARK    5  A    between atoms: C_11  and  O_12 
REMARK    6  A    between atoms: O_12  and  C_13 
ROOT
HETATM    1  N   UNL     1      26.503  46.634  51.131  1.00  0.00    -0.322 N 
HETATM    2  C   UNL     1      25.351  47.071  50.499  1.00  0.00     0.256 C 
HETATM    3  O   UNL     1      24.224  46.618  50.669  1.00  0.00    -0.267 OA
HETATM    4  H   UNL     1      27.392  46.977  50.782  1.00  0.00     0.169 HD
ENDROOT
BRANCH   1   5
HETATM    5  C   UNL     1      26.595  45.714  52.212  1.00  0.00     0.050 A 
HETATM    6  C   UNL     1      26.601  44.326  51.953  1.00  0.00     0.058 A 
HETATM    7  C   UNL     1      26.786  43.401  52.993  1.00  0.00     0.019 A 
HETATM    8  C   UNL     1      26.934  43.840  54.305  1.00  0.00     0.001 A 
HETATM    9  C   UNL     1      26.906  45.204  54.578  1.00  0.00     0.002 A 
HETATM   10  C   UNL     1      26.744  46.131  53.540  1.00  0.00     0.030 A 
BRANCH   6  11
HETATM   11  C   UNL     1      26.411  43.756  50.595  1.00  0.00     0.253 C 
HETATM   12  N   UNL     1      25.328  42.908  50.452  1.00  0.00    -0.357 N 
HETATM   13  H   UNL     1      24.917  42.541  51.306  1.00  0.00     0.162 HD
HETATM   14  O   UNL     1      27.204  44.012  49.698  1.00  0.00    -0.268 OA
BRANCH  12  15
HETATM   15  C   UNL     1      25.157  42.125  49.243  1.00  0.00     0.118 C 
HETATM   16  C   UNL     1      25.797  40.752  49.349  1.00  0.00     0.026 C 
ENDBRANCH  12  15
ENDBRANCH   6  11
ENDBRANCH   1   5
BRANCH   2  17
HETATM   17  C   UNL     1      25.518  48.164  49.496  1.00  0.00     0.037 A 
HETATM   18  C   UNL     1      24.373  48.630  48.847  1.00  0.00     0.075 A 
HETATM   19  C   UNL     1      24.507  49.673  47.952  1.00  0.00     0.165 A 
HETATM   20  N   UNL     1      25.683  50.265  47.659  1.00  0.00    -0.237 NA
HETATM   21  C   UNL     1      26.773  49.806  48.309  1.00  0.00     0.120 A 
HETATM   22  C   UNL     1      26.746  48.773  49.232  1.00  0.00     0.036 A 
BRANCH  19  23
HETATM   23  O   UNL     1      23.348  50.125  47.352  1.00  0.00    -0.329 OA
BRANCH  23  24
HETATM   24  C   UNL     1      22.145  50.057  48.146  1.00  0.00     0.130 C 
HETATM   25  C   UNL     1      21.862  51.251  49.095  1.00  0.00     0.032 C 
HETATM   26  C   UNL     1      20.381  51.142  48.694  1.00  0.00     0.005 C 
HETATM   27  C   UNL     1      20.853  50.470  47.392  1.00  0.00     0.032 C 
ENDBRANCH  23  24
ENDBRANCH  19  23
ENDBRANCH   2  17
TORSDOF 6
ENDMDL
MODEL 9
REMARK VINA RESULT:      -7.8      2.258      4.421
REMARK  6 active torsions:
REMARK  status: ('A' for Active; 'I' for Inactive)
REMARK    1  A    between atoms: C_2  and  N_3 
REMARK       I    between atoms: N_3  and  C_4 
REMARK    2  A    between atoms: C_4  and  C_5 
REMARK    3  A    between atoms: C_6  and  N_7 
REMARK       I    between atoms: N_7  and  C_8 
REMARK    4  A    between atoms: C_8  and  C_9 
REMARK    5  A    between atoms: C_11  and  O_12 
REMARK    6  A    between atoms: O_12  and  C_13 
ROOT
HETATM    1  N   UNL     1      26.984  44.660  51.162  1.00  0.00    -0.322 N 
HETATM    2  C   UNL     1      25.675  45.035  50.910  1.00  0.00     0.256 C 
HETATM    3  O   UNL     1      24.680  44.350  51.121  1.00  0.00    -0.267 OA
HETATM    4  H   UNL     1      27.723  45.248  50.791  1.00  0.00     0.169 HD
ENDROOT
BRANCH   1   5
HETATM    5  C   UNL     1      27.429  43.506  51.864  1.00  0.00     0.050 A 
HETATM    6  C   UNL     1      27.478  43.519  53.275  1.00  0.00     0.058 A 
HETATM    7  C   UNL     1      27.823  42.364  53.994  1.00  0.00     0.019 A 
HETATM    8  C   UNL     1      28.157  41.192  53.321  1.00  0.00     0.001 A 
HETATM    9  C   UNL     1      28.136  41.172  51.931  1.00  0.00     0.002 A 
HETATM   10  C   UNL     1      27.771  42.316  51.210  1.00  0.00     0.030 A 
BRANCH   6  11
HETATM   11  C   UNL     1      27.180  44.729  54.083  1.00  0.00     0.253 C 
HETATM   12  N   UNL     1      28.283  45.431  54.533  1.00  0.00    -0.357 N 
HETATM   13  H   UNL     1      29.175  44.947  54.508  1.00  0.00     0.162 HD
HETATM   14  O   UNL     1      26.022  45.031  54.345  1.00  0.00    -0.268 OA
BRANCH  12  15
HETATM   15  C   UNL     1      28.134  46.501  55.501  1.00  0.00     0.118 C 
HETATM   16  C   UNL     1      27.885  47.845  54.842  1.00  0.00     0.026 C 
ENDBRANCH  12  15
ENDBRANCH   6  11
ENDBRANCH   1   5
BRANCH   2  17
HETATM   17  C   UNL     1      25.477  46.379  50.292  1.00  0.00     0.037 A 
HETATM   18  C   UNL     1      24.166  46.800  50.059  1.00  0.00     0.075 A 
HETATM   19  C   UNL     1      23.967  48.060  49.531  1.00  0.00     0.165 A 
HETATM   20  N   UNL     1      24.967  48.909  49.216  1.00  0.00    -0.237 NA
HETATM   21  C   UNL     1      26.224  48.485  49.462  1.00  0.00     0.120 A 
HETATM   22  C   UNL     1      26.532  47.245  49.998  1.00  0.00     0.036 A 
BRANCH  19  23
HETATM   23  O   UNL     1      22.656  48.451  49.343  1.00  0.00    -0.329 OA
BRANCH  23  24
HETATM   24  C   UNL     1      22.451  49.764  48.784  1.00  0.00     0.130 C 
HETATM   25  C   UNL     1      21.211  49.953  47.871  1.00  0.00     0.032 C 
HETATM   26  C   UNL     1      21.003  51.324  48.537  1.00  0.00     0.005 C 
HETATM   27  C   UNL     1      21.779  50.778  49.749  1.00  0.00     0.032 C 
ENDBRANCH  23  24
ENDBRANCH  19  23
ENDBRANCH   2  17
TORSDOF 6
ENDMDL
MODEL 10
REMARK VINA RESULT:      -7.6     15.501     17.279
REMARK  6 active torsions:
REMARK  status: ('A' for Active; 'I' for Inactive)
REMARK    1  A    between atoms: C_2  and  N_3 
REMARK       I    between atoms: N_3  and  C_4 
REMARK    2  A    between atoms: C_4  and  C_5 
REMARK    3  A    between atoms: C_6  and  N_7 
REMARK       I    between atoms: N_7  and  C_8 
REMARK    4  A    between atoms: C_8  and  C_9 
REMARK    5  A    between atoms: C_11  and  O_12 
REMARK    6  A    between atoms: O_12  and  C_13 
ROOT
HETATM    1  N   UNL     1      37.130  46.370  65.762  1.00  0.00    -0.322 N 
HETATM    2  C   UNL     1      36.674  45.604  64.703  1.00  0.00     0.256 C 
HETATM    3  O   UNL     1      36.672  45.940  63.524  1.00  0.00    -0.267 OA
HETATM    4  H   UNL     1      36.925  46.047  66.702  1.00  0.00     0.169 HD
ENDROOT
BRANCH   1   5
HETATM    5  C   UNL     1      37.838  47.602  65.692  1.00  0.00     0.050 A 
HETATM    6  C   UNL     1      39.224  47.600  65.425  1.00  0.00     0.058 A 
HETATM    7  C   UNL     1      39.928  48.803  65.257  1.00  0.00     0.019 A 
HETATM    8  C   UNL     1      39.270  50.023  65.385  1.00  0.00     0.001 A 
HETATM    9  C   UNL     1      37.910  50.041  65.672  1.00  0.00     0.002 A 
HETATM   10  C   UNL     1      37.200  48.842  65.818  1.00  0.00     0.030 A 
BRANCH   6  11
HETATM   11  C   UNL     1      40.023  46.353  65.309  1.00  0.00     0.253 C 
HETATM   12  N   UNL     1      40.652  46.161  64.093  1.00  0.00    -0.357 N 
HETATM   13  H   UNL     1      40.323  46.722  63.313  1.00  0.00     0.162 HD
HETATM   14  O   UNL     1      40.066  45.555  66.237  1.00  0.00    -0.268 OA
BRANCH  12  15
HETATM   15  C   UNL     1      41.283  44.893  63.779  1.00  0.00     0.118 C 
HETATM   16  C   UNL     1      40.327  43.922  63.111  1.00  0.00     0.026 C 
ENDBRANCH  12  15
ENDBRANCH   6  11
ENDBRANCH   1   5
BRANCH   2  17
HETATM   17  C   UNL     1      36.101  44.269  65.047  1.00  0.00     0.037 A 
HETATM   18  C   UNL     1      36.879  43.141  64.781  1.00  0.00     0.075 A 
HETATM   19  C   UNL     1      36.381  41.904  65.138  1.00  0.00     0.165 A 
HETATM   20  N   UNL     1      35.179  41.717  65.722  1.00  0.00    -0.237 NA
HETATM   21  C   UNL     1      34.451  42.824  65.981  1.00  0.00     0.120 A 
HETATM   22  C   UNL     1      34.863  44.110  65.673  1.00  0.00     0.036 A 
BRANCH  19  23
HETATM   23  O   UNL     1      37.192  40.815  64.885  1.00  0.00    -0.329 OA
BRANCH  23  24
HETATM   24  C   UNL     1      38.559  41.102  64.526  1.00  0.00     0.130 C 
HETATM   25  C   UNL     1      39.661  40.283  65.248  1.00  0.00     0.032 C 
HETATM   26  C   UNL     1      40.400  40.202  63.901  1.00  0.00     0.005 C 
HETATM   27  C   UNL     1      39.038  40.417  63.217  1.00  0.00     0.032 C 
ENDBRANCH  23  24
ENDBRANCH  19  23
ENDBRANCH   2  17
TORSDOF 6
ENDMDL
