MODEL 1
REMARK VINA RESULT:      -7.5      0.000      0.000
REMARK  3 active torsions:
REMARK  status: ('A' for Active; 'I' for Inactive)
REMARK    1  A    between atoms: C_2  and  C_3 
REMARK    2  A    between atoms: C_7  and  N_8 
REMARK       I    between atoms: N_8  and  C_9 
REMARK    3  A    between atoms: C_9  and  C_10 
ROOT
HETATM    1  N   UNL     1      25.335  46.330  50.228  1.00  0.00    -0.311 N 
HETATM    2  C   UNL     1      26.404  45.467  50.045  1.00  0.00     0.234 C 
HETATM    3  O   UNL     1      27.366  45.711  49.314  1.00  0.00    -0.272 OA
HETATM    4  H   UNL     1      24.572  46.071  50.847  1.00  0.00     0.170 HD
ENDROOT
BRANCH   2   5
HETATM    5  C   UNL     1      26.315  44.145  50.790  1.00  0.00     0.138 C 
HETATM    6  C   UNL     1      26.596  44.240  52.247  1.00  0.00    -0.008 A 
HETATM    7  C   UNL     1      25.407  44.113  52.951  1.00  0.00     0.076 A 
HETATM    8  C   UNL     1      27.792  44.471  52.906  1.00  0.00     0.030 A 
HETATM    9  C   UNL     1      25.355  44.215  54.325  1.00  0.00     0.039 A 
HETATM   10  O   UNL     1      24.312  43.931  52.149  1.00  0.00    -0.349 OA
HETATM   11  C   UNL     1      26.553  44.440  55.009  1.00  0.00     0.022 A 
HETATM   12  C   UNL     1      27.759  44.566  54.300  1.00  0.00     0.011 A 
HETATM   13 BR   UNL     1      29.365  44.882  55.248  1.00  0.00    -0.051 Br
HETATM   14  C   UNL     1      24.875  43.624  50.847  1.00  0.00     0.194 C 
ENDBRANCH   2   5
BRANCH   1  15
HETATM   15  C   UNL     1      25.284  47.570  49.626  1.00  0.00     0.126 A 
HETATM   16  N   UNL     1      26.375  48.364  49.385  1.00  0.00    -0.262 N 
HETATM   17  N   UNL     1      26.069  49.533  48.794  1.00  0.00    -0.178 NA
HETATM   18  H   UNL     1      27.344  48.150  49.611  1.00  0.00     0.191 HD
HETATM   19  C   UNL     1      24.739  49.485  48.656  1.00  0.00     0.058 A 
HETATM   20  C   UNL     1      24.202  48.273  49.157  1.00  0.00     0.079 A 
BRANCH  19  21
HETATM   21  C   UNL     1      24.002  50.626  48.039  1.00  0.00     0.056 C 
HETATM   22  C   UNL     1      22.743  50.985  48.814  1.00  0.00     0.011 C 
ENDBRANCH  19  21
ENDBRANCH   1  15
TORSDOF 3
ENDMDL
MODEL 2
REMARK VINA RESULT:      -7.2      4.558      6.384
REMARK  3 active torsions:
REMARK  status: ('A' for Active; 'I' for Inactive)
REMARK    1  A    between atoms: C_2  and  C_3 
REMARK    2  A    between atoms: C_7  and  N_8 
REMARK       I    between atoms: N_8  and  C_9 
REMARK    3  A    between atoms: C_9  and  C_10 
ROOT
HETATM    1  N   UNL     1      27.051  42.106  51.897  1.00  0.00    -0.311 N 
HETATM    2  C   UNL     1      27.374  43.399  52.279  1.00  0.00     0.234 C 
HETATM    3  O   UNL     1      27.987  44.193  51.563  1.00  0.00    -0.272 OA
HETATM    4  H   UNL     1      26.541  41.500  52.532  1.00  0.00     0.170 HD
ENDROOT
BRANCH   2   5
HETATM    5  C   UNL     1      26.947  43.793  53.684  1.00  0.00     0.138 C 
HETATM    6  C   UNL     1      28.046  44.321  54.535  1.00  0.00    -0.008 A 
HETATM    7  C   UNL     1      27.897  45.693  54.674  1.00  0.00     0.076 A 
HETATM    8  C   UNL     1      29.122  43.661  55.104  1.00  0.00     0.030 A 
HETATM    9  C   UNL     1      28.806  46.461  55.372  1.00  0.00     0.039 A 
HETATM   10  O   UNL     1      26.806  46.196  54.017  1.00  0.00    -0.349 OA
HETATM   11  C   UNL     1      29.894  45.812  55.959  1.00  0.00     0.022 A 
HETATM   12  C   UNL     1      30.047  44.423  55.824  1.00  0.00     0.011 A 
HETATM   13 BR   UNL     1      31.536  43.569  56.618  1.00  0.00    -0.051 Br
HETATM   14  C   UNL     1      26.028  45.019  53.673  1.00  0.00     0.194 C 
ENDBRANCH   2   5
BRANCH   1  15
HETATM   15  C   UNL     1      27.362  41.613  50.647  1.00  0.00     0.126 A 
HETATM   16  N   UNL     1      27.098  42.259  49.467  1.00  0.00    -0.262 N 
HETATM   17  N   UNL     1      27.489  41.572  48.378  1.00  0.00    -0.178 NA
HETATM   18  H   UNL     1      26.650  43.166  49.358  1.00  0.00     0.191 HD
HETATM   19  C   UNL     1      28.018  40.450  48.880  1.00  0.00     0.058 A 
HETATM   20  C   UNL     1      27.966  40.431  50.296  1.00  0.00     0.079 A 
BRANCH  19  21
HETATM   21  C   UNL     1      28.565  39.401  47.971  1.00  0.00     0.056 C 
HETATM   22  C   UNL     1      29.140  38.218  48.735  1.00  0.00     0.011 C 
ENDBRANCH  19  21
ENDBRANCH   1  15
TORSDOF 3
ENDMDL
MODEL 3
REMARK VINA RESULT:      -7.2      2.669      3.638
REMARK  3 active torsions:
REMARK  status: ('A' for Active; 'I' for Inactive)
REMARK    1  A    between atoms: C_2  and  C_3 
REMARK    2  A    between atoms: C_7  and  N_8 
REMARK       I    between atoms: N_8  and  C_9 
REMARK    3  A    between atoms: C_9  and  C_10 
ROOT
HETATM    1  N   UNL     1      25.990  45.897  52.181  1.00  0.00    -0.311 N 
HETATM    2  C   UNL     1      26.560  46.258  53.391  1.00  0.00     0.234 C 
HETATM    3  O   UNL     1      26.836  47.419  53.700  1.00  0.00    -0.272 OA
HETATM    4  H   UNL     1      25.783  44.922  51.986  1.00  0.00     0.170 HD
ENDROOT
BRANCH   2   5
HETATM    5  C   UNL     1      26.867  45.111  54.340  1.00  0.00     0.138 C 
HETATM    6  C   UNL     1      27.720  44.043  53.757  1.00  0.00    -0.008 A 
HETATM    7  C   UNL     1      28.996  44.132  54.296  1.00  0.00     0.076 A 
HETATM    8  C   UNL     1      27.421  43.095  52.792  1.00  0.00     0.030 A 
HETATM    9  C   UNL     1      30.019  43.297  53.898  1.00  0.00     0.039 A 
HETATM   10  O   UNL     1      29.137  45.147  55.204  1.00  0.00    -0.349 OA
HETATM   11  C   UNL     1      29.734  42.330  52.930  1.00  0.00     0.022 A 
HETATM   12  C   UNL     1      28.443  42.234  52.385  1.00  0.00     0.011 A 
HETATM   13 BR   UNL     1      28.086  40.924  51.068  1.00  0.00    -0.051 Br
HETATM   14  C   UNL     1      27.774  45.556  55.491  1.00  0.00     0.194 C 
ENDBRANCH   2   5
BRANCH   1  15
HETATM   15  C   UNL     1      25.644  46.831  51.227  1.00  0.00     0.126 A 
HETATM   16  N   UNL     1      24.359  47.219  50.946  1.00  0.00    -0.262 N 
HETATM   17  N   UNL     1      24.277  48.139  49.968  1.00  0.00    -0.178 NA
HETATM   18  H   UNL     1      23.511  46.880  51.393  1.00  0.00     0.191 HD
HETATM   19  C   UNL     1      25.551  48.343  49.611  1.00  0.00     0.058 A 
HETATM   20  C   UNL     1      26.444  47.550  50.374  1.00  0.00     0.079 A 
BRANCH  19  21
HETATM   21  C   UNL     1      25.884  49.307  48.523  1.00  0.00     0.056 C 
HETATM   22  C   UNL     1      24.672  50.106  48.068  1.00  0.00     0.011 C 
ENDBRANCH  19  21
ENDBRANCH   1  15
TORSDOF 3
ENDMDL
MODEL 4
REMARK VINA RESULT:      -7.2      2.775      3.311
REMARK  3 active torsions:
REMARK  status: ('A' for Active; 'I' for Inactive)
REMARK    1  A    between atoms: C_2  and  C_3 
REMARK    2  A    between atoms: C_7  and  N_8 
REMARK       I    between atoms: N_8  and  C_9 
REMARK    3  A    between atoms: C_9  and  C_10 
ROOT
HETATM    1  N   UNL     1      23.093  47.827  49.519  1.00  0.00    -0.311 N 
HETATM    2  C   UNL     1      24.462  48.031  49.583  1.00  0.00     0.234 C 
HETATM    3  O   UNL     1      25.000  49.129  49.434  1.00  0.00    -0.272 OA
HETATM    4  H   UNL     1      22.709  46.896  49.653  1.00  0.00     0.170 HD
ENDROOT
BRANCH   2   5
HETATM    5  C   UNL     1      25.300  46.785  49.823  1.00  0.00     0.138 C 
HETATM    6  C   UNL     1      25.569  46.492  51.255  1.00  0.00    -0.008 A 
HETATM    7  C   UNL     1      24.799  45.409  51.653  1.00  0.00     0.076 A 
HETATM    8  C   UNL     1      26.389  47.151  52.156  1.00  0.00     0.030 A 
HETATM    9  C   UNL     1      24.804  44.944  52.951  1.00  0.00     0.039 A 
HETATM   10  O   UNL     1      24.014  44.898  50.654  1.00  0.00    -0.349 OA
HETATM   11  C   UNL     1      25.630  45.592  53.873  1.00  0.00     0.022 A 
HETATM   12  C   UNL     1      26.414  46.687  53.474  1.00  0.00     0.011 A 
HETATM   13 BR   UNL     1      27.514  47.555  54.744  1.00  0.00    -0.051 Br
HETATM   14  C   UNL     1      24.537  45.510  49.446  1.00  0.00     0.194 C 
ENDBRANCH   2   5
BRANCH   1  15
HETATM   15  C   UNL     1      22.207  48.866  49.320  1.00  0.00     0.126 A 
HETATM   16  N   UNL     1      22.118  49.977  50.117  1.00  0.00    -0.262 N 
HETATM   17  N   UNL     1      21.171  50.848  49.724  1.00  0.00    -0.178 NA
HETATM   18  H   UNL     1      22.681  50.181  50.940  1.00  0.00     0.191 HD
HETATM   19  C   UNL     1      20.635  50.271  48.642  1.00  0.00     0.058 A 
HETATM   20  C   UNL     1      21.254  49.031  48.345  1.00  0.00     0.079 A 
BRANCH  19  21
HETATM   21  C   UNL     1      19.519  50.935  47.907  1.00  0.00     0.056 C 
HETATM   22  C   UNL     1      19.171  52.295  48.494  1.00  0.00     0.011 C 
ENDBRANCH  19  21
ENDBRANCH   1  15
TORSDOF 3
ENDMDL
MODEL 5
REMARK VINA RESULT:      -7.1      6.197      8.968
REMARK  3 active torsions:
REMARK  status: ('A' for Active; 'I' for Inactive)
REMARK    1  A    between atoms: C_2  and  C_3 
REMARK    2  A    between atoms: C_7  and  N_8 
REMARK       I    between atoms: N_8  and  C_9 
REMARK    3  A    between atoms: C_9  and  C_10 
ROOT
HETATM    1  N   UNL     1      21.594  48.873  49.149  1.00  0.00    -0.311 N 
HETATM    2  C   UNL     1      20.672  49.761  49.680  1.00  0.00     0.234 C 
HETATM    3  O   UNL     1      20.888  50.964  49.834  1.00  0.00    -0.272 OA
HETATM    4  H   UNL     1      21.355  47.892  49.045  1.00  0.00     0.170 HD
ENDROOT
BRANCH   2   5
HETATM    5  C   UNL     1      19.346  49.151  50.108  1.00  0.00     0.138 C 
HETATM    6  C   UNL     1      18.147  49.868  49.599  1.00  0.00    -0.008 A 
HETATM    7  C   UNL     1      17.562  49.119  48.588  1.00  0.00     0.076 A 
HETATM    8  C   UNL     1      17.634  51.103  49.957  1.00  0.00     0.030 A 
HETATM    9  C   UNL     1      16.458  49.564  47.892  1.00  0.00     0.039 A 
HETATM   10  O   UNL     1      18.215  47.944  48.329  1.00  0.00    -0.349 OA
HETATM   11  C   UNL     1      15.921  50.805  48.245  1.00  0.00     0.022 A 
HETATM   12  C   UNL     1      16.508  51.565  49.270  1.00  0.00     0.011 A 
HETATM   13 BR   UNL     1      15.770  53.248  49.719  1.00  0.00    -0.051 Br
HETATM   14  C   UNL     1      19.116  47.784  49.456  1.00  0.00     0.194 C 
ENDBRANCH   2   5
BRANCH   1  15
HETATM   15  C   UNL     1      22.834  49.284  48.705  1.00  0.00     0.126 A 
HETATM   16  N   UNL     1      23.043  50.102  47.626  1.00  0.00    -0.262 N 
HETATM   17  N   UNL     1      24.342  50.355  47.386  1.00  0.00    -0.178 NA
HETATM   18  H   UNL     1      22.330  50.507  47.024  1.00  0.00     0.191 HD
HETATM   19  C   UNL     1      24.984  49.673  48.343  1.00  0.00     0.058 A 
HETATM   20  C   UNL     1      24.082  48.991  49.197  1.00  0.00     0.079 A 
BRANCH  19  21
HETATM   21  C   UNL     1      26.474  49.690  48.411  1.00  0.00     0.056 C 
HETATM   22  C   UNL     1      27.023  48.579  49.295  1.00  0.00     0.011 C 
ENDBRANCH  19  21
ENDBRANCH   1  15
TORSDOF 3
ENDMDL
MODEL 6
REMARK VINA RESULT:      -7.0      3.939      7.494
REMARK  3 active torsions:
REMARK  status: ('A' for Active; 'I' for Inactive)
REMARK    1  A    between atoms: C_2  and  C_3 
REMARK    2  A    between atoms: C_7  and  N_8 
REMARK       I    between atoms: N_8  and  C_9 
REMARK    3  A    between atoms: C_9  and  C_10 
ROOT
HETATM    1  N   UNL     1      24.449  47.391  50.371  1.00  0.00    -0.311 N 
HETATM    2  C   UNL     1      23.633  47.103  49.288  1.00  0.00     0.234 C 
HETATM    3  O   UNL     1      23.284  45.963  48.976  1.00  0.00    -0.272 OA
HETATM    4  H   UNL     1      24.699  48.353  50.578  1.00  0.00     0.170 HD
ENDROOT
BRANCH   2   5
HETATM    5  C   UNL     1      23.201  48.300  48.456  1.00  0.00     0.138 C 
HETATM    6  C   UNL     1      21.920  48.918  48.887  1.00  0.00    -0.008 A 
HETATM    7  C   UNL     1      22.184  50.123  49.522  1.00  0.00     0.076 A 
HETATM    8  C   UNL     1      20.624  48.442  48.778  1.00  0.00     0.030 A 
HETATM    9  C   UNL     1      21.184  50.894  50.076  1.00  0.00     0.039 A 
HETATM   10  O   UNL     1      23.518  50.429  49.583  1.00  0.00    -0.349 OA
HETATM   11  C   UNL     1      19.870  50.433  49.969  1.00  0.00     0.022 A 
HETATM   12  C   UNL     1      19.597  49.216  49.324  1.00  0.00     0.011 A 
HETATM   13 BR   UNL     1      17.810  48.608  49.203  1.00  0.00    -0.051 Br
HETATM   14  C   UNL     1      24.137  49.496  48.659  1.00  0.00     0.194 C 
ENDBRANCH   2   5
BRANCH   1  15
HETATM   15  C   UNL     1      24.907  46.408  51.223  1.00  0.00     0.126 A 
HETATM   16  N   UNL     1      24.234  45.249  51.510  1.00  0.00    -0.262 N 
HETATM   17  N   UNL     1      24.882  44.450  52.377  1.00  0.00    -0.178 NA
HETATM   18  H   UNL     1      23.330  44.965  51.141  1.00  0.00     0.191 HD
HETATM   19  C   UNL     1      26.005  45.123  52.654  1.00  0.00     0.058 A 
HETATM   20  C   UNL     1      26.069  46.353  51.952  1.00  0.00     0.079 A 
BRANCH  19  21
HETATM   21  C   UNL     1      27.005  44.561  53.608  1.00  0.00     0.056 C 
HETATM   22  C   UNL     1      26.349  43.794  54.746  1.00  0.00     0.011 C 
ENDBRANCH  19  21
ENDBRANCH   1  15
TORSDOF 3
ENDMDL
MODEL 7
REMARK VINA RESULT:      -6.9      6.109      9.685
REMARK  3 active torsions:
REMARK  status: ('A' for Active; 'I' for Inactive)
REMARK    1  A    between atoms: C_2  and  C_3 
REMARK    2  A    between atoms: C_7  and  N_8 
REMARK       I    between atoms: N_8  and  C_9 
REMARK    3  A    between atoms: C_9  and  C_10 
ROOT
HETATM    1  N   UNL     1      21.428  51.018  48.290  1.00  0.00    -0.311 N 
HETATM    2  C   UNL     1      20.440  51.260  49.232  1.00  0.00     0.234 C 
HETATM    3  O   UNL     1      20.504  50.887  50.404  1.00  0.00    -0.272 OA
HETATM    4  H   UNL     1      21.318  51.354  47.338  1.00  0.00     0.170 HD
ENDROOT
BRANCH   2   5
HETATM    5  C   UNL     1      19.217  52.006  48.722  1.00  0.00     0.138 C 
HETATM    6  C   UNL     1      18.294  51.183  47.898  1.00  0.00    -0.008 A 
HETATM    7  C   UNL     1      17.155  50.896  48.637  1.00  0.00     0.076 A 
HETATM    8  C   UNL     1      18.456  50.681  46.618  1.00  0.00     0.030 A 
HETATM    9  C   UNL     1      16.143  50.100  48.143  1.00  0.00     0.039 A 
HETATM   10  O   UNL     1      17.170  51.432  49.897  1.00  0.00    -0.349 OA
HETATM   11  C   UNL     1      16.286  49.590  46.850  1.00  0.00     0.022 A 
HETATM   12  C   UNL     1      17.435  49.881  46.097  1.00  0.00     0.011 A 
HETATM   13 BR   UNL     1      17.609  49.168  44.354  1.00  0.00    -0.051 Br
HETATM   14  C   UNL     1      18.267  52.382  49.863  1.00  0.00     0.194 C 
ENDBRANCH   2   5
BRANCH   1  15
HETATM   15  C   UNL     1      22.599  50.364  48.610  1.00  0.00     0.126 A 
HETATM   16  N   UNL     1      22.707  49.375  49.554  1.00  0.00    -0.262 N 
HETATM   17  N   UNL     1      23.957  48.897  49.691  1.00  0.00    -0.178 NA
HETATM   18  H   UNL     1      21.956  49.000  50.128  1.00  0.00     0.191 HD
HETATM   19  C   UNL     1      24.671  49.606  48.809  1.00  0.00     0.058 A 
HETATM   20  C   UNL     1      23.864  50.534  48.104  1.00  0.00     0.079 A 
BRANCH  19  21
HETATM   21  C   UNL     1      26.138  49.374  48.665  1.00  0.00     0.056 C 
HETATM   22  C   UNL     1      26.637  48.260  49.573  1.00  0.00     0.011 C 
ENDBRANCH  19  21
ENDBRANCH   1  15
TORSDOF 3
ENDMDL
MODEL 8
REMARK VINA RESULT:      -6.6      4.164      7.043
REMARK  3 active torsions:
REMARK  status: ('A' for Active; 'I' for Inactive)
REMARK    1  A    between atoms: C_2  and  C_3 
REMARK    2  A    between atoms: C_7  and  N_8 
REMARK       I    between atoms: N_8  and  C_9 
REMARK    3  A    between atoms: C_9  and  C_10 
ROOT
HETATM    1  N   UNL     1      25.669  41.364  51.017  1.00  0.00    -0.311 N 
HETATM    2  C   UNL     1      25.087  42.358  50.245  1.00  0.00     0.234 C 
HETATM    3  O   UNL     1      25.292  42.498  49.038  1.00  0.00    -0.272 OA
HETATM    4  H   UNL     1      25.458  41.299  52.008  1.00  0.00     0.170 HD
ENDROOT
BRANCH   2   5
HETATM    5  C   UNL     1      24.177  43.319  50.993  1.00  0.00     0.138 C 
HETATM    6  C   UNL     1      24.880  44.469  51.620  1.00  0.00    -0.008 A 
HETATM    7  C   UNL     1      24.615  45.619  50.890  1.00  0.00     0.076 A 
HETATM    8  C   UNL     1      25.726  44.501  52.716  1.00  0.00     0.030 A 
HETATM    9  C   UNL     1      25.180  46.836  51.210  1.00  0.00     0.039 A 
HETATM   10  O   UNL     1      23.794  45.409  49.815  1.00  0.00    -0.349 OA
HETATM   11  C   UNL     1      26.031  46.889  52.317  1.00  0.00     0.022 A 
HETATM   12  C   UNL     1      26.299  45.729  53.061  1.00  0.00     0.011 A 
HETATM   13 BR   UNL     1      27.464  45.825  54.547  1.00  0.00    -0.051 Br
HETATM   14  C   UNL     1      23.252  44.081  50.038  1.00  0.00     0.194 C 
ENDBRANCH   2   5
BRANCH   1  15
HETATM   15  C   UNL     1      26.507  40.412  50.473  1.00  0.00     0.126 A 
HETATM   16  N   UNL     1      26.103  39.410  49.629  1.00  0.00    -0.262 N 
HETATM   17  N   UNL     1      27.104  38.601  49.238  1.00  0.00    -0.178 NA
HETATM   18  H   UNL     1      25.157  39.239  49.298  1.00  0.00     0.191 HD
HETATM   19  C   UNL     1      28.181  39.101  49.855  1.00  0.00     0.058 A 
HETATM   20  C   UNL     1      27.859  40.239  50.635  1.00  0.00     0.079 A 
BRANCH  19  21
HETATM   21  C   UNL     1      29.517  38.460  49.680  1.00  0.00     0.056 C 
HETATM   22  C   UNL     1      29.989  37.758  50.944  1.00  0.00     0.011 C 
ENDBRANCH  19  21
ENDBRANCH   1  15
TORSDOF 3
ENDMDL
MODEL 9
REMARK VINA RESULT:      -6.4      2.691      3.591
REMARK  3 active torsions:
REMARK  status: ('A' for Active; 'I' for Inactive)
REMARK    1  A    between atoms: C_2  and  C_3 
REMARK    2  A    between atoms: C_7  and  N_8 
REMARK       I    between atoms: N_8  and  C_9 
REMARK    3  A    between atoms: C_9  and  C_10 
ROOT
HETATM    1  N   UNL     1      24.377  46.413  50.482  1.00  0.00    -0.311 N 
HETATM    2  C   UNL     1      25.022  46.335  51.707  1.00  0.00     0.234 C 
HETATM    3  O   UNL     1      25.636  47.272  52.219  1.00  0.00    -0.272 OA
HETATM    4  H   UNL     1      23.884  45.605  50.114  1.00  0.00     0.170 HD
ENDROOT
BRANCH   2   5
HETATM    5  C   UNL     1      24.958  44.981  52.396  1.00  0.00     0.138 C 
HETATM    6  C   UNL     1      25.044  43.818  51.475  1.00  0.00    -0.008 A 
HETATM    7  C   UNL     1      26.295  43.230  51.597  1.00  0.00     0.076 A 
HETATM    8  C   UNL     1      24.119  43.338  50.564  1.00  0.00     0.030 A 
HETATM    9  C   UNL     1      26.678  42.156  50.822  1.00  0.00     0.039 A 
HETATM   10  O   UNL     1      27.105  43.849  52.511  1.00  0.00    -0.349 OA
HETATM   11  C   UNL     1      25.755  41.653  49.901  1.00  0.00     0.022 A 
HETATM   12  C   UNL     1      24.487  42.243  49.777  1.00  0.00     0.011 A 
HETATM   13 BR   UNL     1      23.260  41.551  48.515  1.00  0.00    -0.051 Br
HETATM   14  C   UNL     1      26.206  44.721  53.246  1.00  0.00     0.194 C 
ENDBRANCH   2   5
BRANCH   1  15
HETATM   15  C   UNL     1      24.339  47.580  49.748  1.00  0.00     0.126 A 
HETATM   16  N   UNL     1      25.433  48.350  49.451  1.00  0.00    -0.262 N 
HETATM   17  N   UNL     1      25.140  49.446  48.728  1.00  0.00    -0.178 NA
HETATM   18  H   UNL     1      26.396  48.167  49.723  1.00  0.00     0.191 HD
HETATM   19  C   UNL     1      23.814  49.374  48.561  1.00  0.00     0.058 A 
HETATM   20  C   UNL     1      23.267  48.221  49.177  1.00  0.00     0.079 A 
BRANCH  19  21
HETATM   21  C   UNL     1      23.090  50.438  47.805  1.00  0.00     0.056 C 
HETATM   22  C   UNL     1      21.967  51.061  48.619  1.00  0.00     0.011 C 
ENDBRANCH  19  21
ENDBRANCH   1  15
TORSDOF 3
ENDMDL
MODEL 10
REMARK VINA RESULT:      -6.3      5.175      7.660
REMARK  3 active torsions:
REMARK  status: ('A' for Active; 'I' for Inactive)
REMARK    1  A    between atoms: C_2  and  C_3 
REMARK    2  A    between atoms: C_7  and  N_8 
REMARK       I    between atoms: N_8  and  C_9 
REMARK    3  A    between atoms: C_9  and  C_10 
ROOT
HETATM    1  N   UNL     1      28.854  40.599  50.727  1.00  0.00    -0.311 N 
HETATM    2  C   UNL     1      27.888  41.353  51.377  1.00  0.00     0.234 C 
HETATM    3  O   UNL     1      26.676  41.165  51.258  1.00  0.00    -0.272 OA
HETATM    4  H   UNL     1      29.838  40.801  50.869  1.00  0.00     0.170 HD
ENDROOT
BRANCH   2   5
HETATM    5  C   UNL     1      28.415  42.482  52.248  1.00  0.00     0.138 C 
HETATM    6  C   UNL     1      27.495  43.642  52.374  1.00  0.00    -0.008 A 
HETATM    7  C   UNL     1      26.927  43.640  53.640  1.00  0.00     0.076 A 
HETATM    8  C   UNL     1      27.141  44.600  51.438  1.00  0.00     0.030 A 
HETATM    9  C   UNL     1      25.988  44.574  54.023  1.00  0.00     0.039 A 
HETATM   10  O   UNL     1      27.351  42.603  54.428  1.00  0.00    -0.349 OA
HETATM   11  C   UNL     1      25.624  45.553  53.095  1.00  0.00     0.022 A 
HETATM   12  C   UNL     1      26.199  45.562  51.814  1.00  0.00     0.011 A 
HETATM   13 BR   UNL     1      25.681  46.890  50.571  1.00  0.00    -0.051 Br
HETATM   14  C   UNL     1      28.500  42.068  53.720  1.00  0.00     0.194 C 
ENDBRANCH   2   5
BRANCH   1  15
HETATM   15  C   UNL     1      28.526  39.533  49.915  1.00  0.00     0.126 A 
HETATM   16  N   UNL     1      27.709  38.495  50.283  1.00  0.00    -0.262 N 
HETATM   17  N   UNL     1      27.546  37.571  49.319  1.00  0.00    -0.178 NA
HETATM   18  H   UNL     1      27.246  38.376  51.181  1.00  0.00     0.191 HD
HETATM   19  C   UNL     1      28.286  38.033  48.304  1.00  0.00     0.058 A 
HETATM   20  C   UNL     1      28.914  39.262  48.627  1.00  0.00     0.079 A 
BRANCH  19  21
HETATM   21  C   UNL     1      28.376  37.267  47.027  1.00  0.00     0.056 C 
HETATM   22  C   UNL     1      28.247  38.165  45.805  1.00  0.00     0.011 C 
ENDBRANCH  19  21
ENDBRANCH   1  15
TORSDOF 3
ENDMDL
