MODEL 1
REMARK VINA RESULT:      -9.8      0.000      0.000
REMARK  3 active torsions:
REMARK  status: ('A' for Active; 'I' for Inactive)
REMARK    1  A    between atoms: C_6  and  O_7 
REMARK    2  A    between atoms: O_7  and  C_8 
REMARK       I    between atoms: N_10  and  C_11 
REMARK       I    between atoms: C_11  and  N_12 
REMARK    3  A    between atoms: N_12  and  C_13 
ROOT
HETATM    1  C   UNL     1      28.456  43.217  53.626  1.00  0.00     0.148 C 
HETATM    2  C   UNL     1      28.025  43.432  52.167  1.00  0.00     0.160 C 
HETATM    3  N   UNL     1      27.055  44.522  52.225  1.00  0.00    -0.331 N 
HETATM    4  C   UNL     1      26.772  45.263  51.092  1.00  0.00     0.323 C 
HETATM    5  N   UNL     1      26.000  46.378  51.331  1.00  0.00    -0.309 N 
HETATM    6  O   UNL     1      27.211  44.922  49.997  1.00  0.00    -0.247 OA
HETATM    7  C   UNL     1      26.644  44.769  53.596  1.00  0.00     0.130 C 
HETATM    8  C   UNL     1      27.175  43.577  54.381  1.00  0.00     0.054 C 
HETATM    9  H   UNL     1      25.707  46.515  52.282  1.00  0.00     0.170 HD
ENDROOT
BRANCH   5  10
HETATM   10  C   UNL     1      25.618  47.389  50.425  1.00  0.00     0.037 A 
HETATM   11  C   UNL     1      24.291  47.653  50.065  1.00  0.00     0.043 A 
HETATM   12  C   UNL     1      24.009  48.668  49.124  1.00  0.00    -0.006 A 
HETATM   13  C   UNL     1      25.065  49.393  48.574  1.00  0.00     0.042 A 
HETATM   14  C   UNL     1      22.811  49.175  48.549  1.00  0.00     0.030 A 
HETATM   15  N   UNL     1      24.519  50.301  47.694  1.00  0.00    -0.365 N 
HETATM   16  C   UNL     1      26.398  49.156  48.918  1.00  0.00     0.033 A 
HETATM   17  H   UNL     1      25.054  50.959  47.145  1.00  0.00     0.165 HD
HETATM   18  C   UNL     1      23.156  50.177  47.672  1.00  0.00     0.089 A 
HETATM   19  C   UNL     1      26.650  48.144  49.852  1.00  0.00     0.032 A 
ENDBRANCH   5  10
BRANCH   1  20
HETATM   20  O   UNL     1      29.506  44.152  53.908  1.00  0.00    -0.344 OA
BRANCH  20  21
HETATM   21  C   UNL     1      30.049  44.194  55.159  1.00  0.00     0.070 A 
HETATM   22  C   UNL     1      29.961  45.250  56.063  1.00  0.00     0.060 A 
HETATM   23  C   UNL     1      30.596  45.150  57.304  1.00  0.00     0.036 A 
HETATM   24  C   UNL     1      31.311  44.006  57.653  1.00  0.00     0.024 A 
HETATM   25 CL   UNL     1      30.500  46.463  58.415  1.00  0.00    -0.084 Cl
HETATM   26  C   UNL     1      31.391  42.946  56.754  1.00  0.00     0.004 A 
HETATM   27  C   UNL     1      30.761  43.042  55.514  1.00  0.00     0.037 A 
ENDBRANCH  20  21
ENDBRANCH   1  20
TORSDOF 3
ENDMDL
MODEL 2
REMARK VINA RESULT:      -9.6      3.550      9.285
REMARK  3 active torsions:
REMARK  status: ('A' for Active; 'I' for Inactive)
REMARK    1  A    between atoms: C_6  and  O_7 
REMARK    2  A    between atoms: O_7  and  C_8 
REMARK       I    between atoms: N_10  and  C_11 
REMARK       I    between atoms: C_11  and  N_12 
REMARK    3  A    between atoms: N_12  and  C_13 
ROOT
HETATM    1  C   UNL     1      24.525  45.871  50.305  1.00  0.00     0.148 C 
HETATM    2  C   UNL     1      24.641  45.151  51.658  1.00  0.00     0.160 C 
HETATM    3  N   UNL     1      26.068  44.882  51.813  1.00  0.00    -0.331 N 
HETATM    4  C   UNL     1      26.598  44.635  53.066  1.00  0.00     0.323 C 
HETATM    5  N   UNL     1      27.973  44.599  53.095  1.00  0.00    -0.309 N 
HETATM    6  O   UNL     1      25.861  44.485  54.037  1.00  0.00    -0.247 OA
HETATM    7  C   UNL     1      26.768  45.098  50.559  1.00  0.00     0.130 C 
HETATM    8  C   UNL     1      25.667  45.227  49.515  1.00  0.00     0.054 C 
HETATM    9  H   UNL     1      28.437  44.727  52.212  1.00  0.00     0.170 HD
ENDROOT
BRANCH   5  10
HETATM   10  C   UNL     1      28.823  44.469  54.214  1.00  0.00     0.037 A 
HETATM   11  C   UNL     1      28.837  45.363  55.291  1.00  0.00     0.043 A 
HETATM   12  C   UNL     1      29.746  45.166  56.353  1.00  0.00    -0.006 A 
HETATM   13  C   UNL     1      30.614  44.077  56.308  1.00  0.00     0.042 A 
HETATM   14  C   UNL     1      30.020  45.868  57.560  1.00  0.00     0.030 A 
HETATM   15  N   UNL     1      31.386  44.125  57.446  1.00  0.00    -0.365 N 
HETATM   16  C   UNL     1      30.619  43.165  55.250  1.00  0.00     0.033 A 
HETATM   17  H   UNL     1      32.109  43.457  57.678  1.00  0.00     0.165 HD
HETATM   18  C   UNL     1      31.034  45.205  58.211  1.00  0.00     0.089 A 
HETATM   19  C   UNL     1      29.708  43.383  54.209  1.00  0.00     0.032 A 
ENDBRANCH   5  10
BRANCH   1  20
HETATM   20  O   UNL     1      24.774  47.264  50.536  1.00  0.00    -0.344 OA
BRANCH  20  21
HETATM   21  C   UNL     1      24.320  48.184  49.637  1.00  0.00     0.070 A 
HETATM   22  C   UNL     1      22.999  48.365  49.235  1.00  0.00     0.060 A 
HETATM   23  C   UNL     1      22.695  49.340  48.280  1.00  0.00     0.036 A 
HETATM   24  C   UNL     1      23.696  50.139  47.730  1.00  0.00     0.024 A 
HETATM   25 CL   UNL     1      21.064  49.551  47.771  1.00  0.00    -0.084 Cl
HETATM   26  C   UNL     1      25.015  49.967  48.139  1.00  0.00     0.004 A 
HETATM   27  C   UNL     1      25.322  48.992  49.089  1.00  0.00     0.037 A 
ENDBRANCH  20  21
ENDBRANCH   1  20
TORSDOF 3
ENDMDL
MODEL 3
REMARK VINA RESULT:      -9.0      3.507      5.482
REMARK  3 active torsions:
REMARK  status: ('A' for Active; 'I' for Inactive)
REMARK    1  A    between atoms: C_6  and  O_7 
REMARK    2  A    between atoms: O_7  and  C_8 
REMARK       I    between atoms: N_10  and  C_11 
REMARK       I    between atoms: C_11  and  N_12 
REMARK    3  A    between atoms: N_12  and  C_13 
ROOT
HETATM    1  C   UNL     1      25.979  46.207  50.531  1.00  0.00     0.148 C 
HETATM    2  C   UNL     1      25.505  47.602  50.095  1.00  0.00     0.160 C 
HETATM    3  N   UNL     1      24.134  47.401  49.635  1.00  0.00    -0.331 N 
HETATM    4  C   UNL     1      23.258  48.468  49.568  1.00  0.00     0.323 C 
HETATM    5  N   UNL     1      21.954  48.107  49.315  1.00  0.00    -0.309 N 
HETATM    6  O   UNL     1      23.658  49.616  49.744  1.00  0.00    -0.247 OA
HETATM    7  C   UNL     1      23.852  45.985  49.472  1.00  0.00     0.130 C 
HETATM    8  C   UNL     1      25.212  45.305  49.561  1.00  0.00     0.054 C 
HETATM    9  H   UNL     1      21.786  47.126  49.181  1.00  0.00     0.170 HD
ENDROOT
BRANCH   5  10
HETATM   10  C   UNL     1      20.808  48.930  49.281  1.00  0.00     0.037 A 
HETATM   11  C   UNL     1      20.812  50.255  48.831  1.00  0.00     0.043 A 
HETATM   12  C   UNL     1      19.619  51.009  48.864  1.00  0.00    -0.006 A 
HETATM   13  C   UNL     1      18.454  50.414  49.344  1.00  0.00     0.042 A 
HETATM   14  C   UNL     1      19.285  52.344  48.498  1.00  0.00     0.030 A 
HETATM   15  N   UNL     1      17.455  51.359  49.274  1.00  0.00    -0.365 N 
HETATM   16  C   UNL     1      18.418  49.092  49.794  1.00  0.00     0.033 A 
HETATM   17  H   UNL     1      16.499  51.204  49.561  1.00  0.00     0.165 HD
HETATM   18  C   UNL     1      17.948  52.530  48.763  1.00  0.00     0.089 A 
HETATM   19  C   UNL     1      19.615  48.365  49.752  1.00  0.00     0.032 A 
ENDBRANCH   5  10
BRANCH   1  20
HETATM   20  O   UNL     1      25.543  46.006  51.882  1.00  0.00    -0.344 OA
BRANCH  20  21
HETATM   21  C   UNL     1      26.471  45.887  52.875  1.00  0.00     0.070 A 
HETATM   22  C   UNL     1      27.251  44.766  53.148  1.00  0.00     0.060 A 
HETATM   23  C   UNL     1      28.144  44.792  54.223  1.00  0.00     0.036 A 
HETATM   24  C   UNL     1      28.270  45.926  55.022  1.00  0.00     0.024 A 
HETATM   25 CL   UNL     1      29.096  43.399  54.569  1.00  0.00    -0.084 Cl
HETATM   26  C   UNL     1      27.499  47.051  54.744  1.00  0.00     0.004 A 
HETATM   27  C   UNL     1      26.604  47.028  53.674  1.00  0.00     0.037 A 
ENDBRANCH  20  21
ENDBRANCH   1  20
TORSDOF 3
ENDMDL
MODEL 4
REMARK VINA RESULT:      -9.0      1.718      2.409
REMARK  3 active torsions:
REMARK  status: ('A' for Active; 'I' for Inactive)
REMARK    1  A    between atoms: C_6  and  O_7 
REMARK    2  A    between atoms: O_7  and  C_8 
REMARK       I    between atoms: N_10  and  C_11 
REMARK       I    between atoms: C_11  and  N_12 
REMARK    3  A    between atoms: N_12  and  C_13 
ROOT
HETATM    1  C   UNL     1      27.743  43.606  51.981  1.00  0.00     0.148 C 
HETATM    2  C   UNL     1      27.646  44.537  50.762  1.00  0.00     0.160 C 
HETATM    3  N   UNL     1      26.213  44.700  50.533  1.00  0.00    -0.331 N 
HETATM    4  C   UNL     1      25.742  45.779  49.808  1.00  0.00     0.323 C 
HETATM    5  N   UNL     1      24.373  45.921  49.841  1.00  0.00    -0.309 N 
HETATM    6  O   UNL     1      26.521  46.523  49.218  1.00  0.00    -0.247 OA
HETATM    7  C   UNL     1      25.459  43.725  51.302  1.00  0.00     0.130 C 
HETATM    8  C   UNL     1      26.501  42.732  51.799  1.00  0.00     0.054 C 
HETATM    9  H   UNL     1      23.870  45.221  50.358  1.00  0.00     0.170 HD
ENDROOT
BRANCH   5  10
HETATM   10  C   UNL     1      23.586  46.957  49.297  1.00  0.00     0.037 A 
HETATM   11  C   UNL     1      23.694  48.300  49.676  1.00  0.00     0.043 A 
HETATM   12  C   UNL     1      22.840  49.263  49.095  1.00  0.00    -0.006 A 
HETATM   13  C   UNL     1      21.904  48.854  48.147  1.00  0.00     0.042 A 
HETATM   14  C   UNL     1      22.685  50.669  49.255  1.00  0.00     0.030 A 
HETATM   15  N   UNL     1      21.207  49.974  47.754  1.00  0.00    -0.365 N 
HETATM   16  C   UNL     1      21.778  47.523  47.744  1.00  0.00     0.033 A 
HETATM   17  H   UNL     1      20.460  49.975  47.075  1.00  0.00     0.165 HD
HETATM   18  C   UNL     1      21.672  51.078  48.419  1.00  0.00     0.089 A 
HETATM   19  C   UNL     1      22.636  46.587  48.336  1.00  0.00     0.032 A 
ENDBRANCH   5  10
BRANCH   1  20
HETATM   20  O   UNL     1      27.638  44.422  53.155  1.00  0.00    -0.344 OA
BRANCH  20  21
HETATM   21  C   UNL     1      28.614  44.357  54.106  1.00  0.00     0.070 A 
HETATM   22  C   UNL     1      28.749  45.197  55.209  1.00  0.00     0.060 A 
HETATM   23  C   UNL     1      29.824  45.017  56.085  1.00  0.00     0.036 A 
HETATM   24  C   UNL     1      30.759  44.006  55.873  1.00  0.00     0.024 A 
HETATM   25 CL   UNL     1      29.999  46.066  57.440  1.00  0.00    -0.084 Cl
HETATM   26  C   UNL     1      30.619  43.160  54.776  1.00  0.00     0.004 A 
HETATM   27  C   UNL     1      29.549  43.338  53.899  1.00  0.00     0.037 A 
ENDBRANCH  20  21
ENDBRANCH   1  20
TORSDOF 3
ENDMDL
MODEL 5
REMARK VINA RESULT:      -8.8      3.598      5.590
REMARK  3 active torsions:
REMARK  status: ('A' for Active; 'I' for Inactive)
REMARK    1  A    between atoms: C_6  and  O_7 
REMARK    2  A    between atoms: O_7  and  C_8 
REMARK       I    between atoms: N_10  and  C_11 
REMARK       I    between atoms: C_11  and  N_12 
REMARK    3  A    between atoms: N_12  and  C_13 
ROOT
HETATM    1  C   UNL     1      25.743  45.968  50.401  1.00  0.00     0.148 C 
HETATM    2  C   UNL     1      25.318  47.414  50.101  1.00  0.00     0.160 C 
HETATM    3  N   UNL     1      23.962  47.300  49.572  1.00  0.00    -0.331 N 
HETATM    4  C   UNL     1      23.113  48.391  49.590  1.00  0.00     0.323 C 
HETATM    5  N   UNL     1      21.812  48.094  49.252  1.00  0.00    -0.309 N 
HETATM    6  O   UNL     1      23.532  49.503  49.903  1.00  0.00    -0.247 OA
HETATM    7  C   UNL     1      23.655  45.918  49.247  1.00  0.00     0.130 C 
HETATM    8  C   UNL     1      24.994  45.196  49.312  1.00  0.00     0.054 C 
HETATM    9  H   UNL     1      21.628  47.137  49.007  1.00  0.00     0.170 HD
ENDROOT
BRANCH   5  10
HETATM   10  C   UNL     1      20.687  48.946  49.266  1.00  0.00     0.037 A 
HETATM   11  C   UNL     1      20.709  50.274  48.826  1.00  0.00     0.043 A 
HETATM   12  C   UNL     1      19.537  51.059  48.907  1.00  0.00    -0.006 A 
HETATM   13  C   UNL     1      18.376  50.489  49.424  1.00  0.00     0.042 A 
HETATM   14  C   UNL     1      19.225  52.404  48.564  1.00  0.00     0.030 A 
HETATM   15  N   UNL     1      17.400  51.459  49.398  1.00  0.00    -0.365 N 
HETATM   16  C   UNL     1      18.322  49.164  49.866  1.00  0.00     0.033 A 
HETATM   17  H   UNL     1      16.451  51.327  49.719  1.00  0.00     0.165 HD
HETATM   18  C   UNL     1      17.904  52.622  48.879  1.00  0.00     0.089 A 
HETATM   19  C   UNL     1      19.498  48.408  49.775  1.00  0.00     0.032 A 
ENDBRANCH   5  10
BRANCH   1  20
HETATM   20  O   UNL     1      25.250  45.635  51.705  1.00  0.00    -0.344 OA
BRANCH  20  21
HETATM   21  C   UNL     1      25.996  45.949  52.804  1.00  0.00     0.070 A 
HETATM   22  C   UNL     1      25.835  47.065  53.621  1.00  0.00     0.060 A 
HETATM   23  C   UNL     1      26.700  47.260  54.702  1.00  0.00     0.036 A 
HETATM   24  C   UNL     1      27.719  46.350  54.976  1.00  0.00     0.024 A 
HETATM   25 CL   UNL     1      26.510  48.649  55.702  1.00  0.00    -0.084 Cl
HETATM   26  C   UNL     1      27.875  45.229  54.166  1.00  0.00     0.004 A 
HETATM   27  C   UNL     1      27.015  45.032  53.085  1.00  0.00     0.037 A 
ENDBRANCH  20  21
ENDBRANCH   1  20
TORSDOF 3
ENDMDL
MODEL 6
REMARK VINA RESULT:      -8.6      4.775     10.566
REMARK  3 active torsions:
REMARK  status: ('A' for Active; 'I' for Inactive)
REMARK    1  A    between atoms: C_6  and  O_7 
REMARK    2  A    between atoms: O_7  and  C_8 
REMARK       I    between atoms: N_10  and  C_11 
REMARK       I    between atoms: C_11  and  N_12 
REMARK    3  A    between atoms: N_12  and  C_13 
ROOT
HETATM    1  C   UNL     1      22.290  49.542  47.890  1.00  0.00     0.148 C 
HETATM    2  C   UNL     1      22.641  48.082  48.218  1.00  0.00     0.160 C 
HETATM    3  N   UNL     1      23.864  48.164  49.011  1.00  0.00    -0.331 N 
HETATM    4  C   UNL     1      24.236  47.113  49.828  1.00  0.00     0.323 C 
HETATM    5  N   UNL     1      25.289  47.400  50.666  1.00  0.00    -0.309 N 
HETATM    6  O   UNL     1      23.635  46.042  49.781  1.00  0.00    -0.247 OA
HETATM    7  C   UNL     1      24.436  49.497  48.932  1.00  0.00     0.130 C 
HETATM    8  C   UNL     1      23.678  50.179  47.801  1.00  0.00     0.054 C 
HETATM    9  H   UNL     1      25.686  48.320  50.577  1.00  0.00     0.170 HD
ENDROOT
BRANCH   5  10
HETATM   10  C   UNL     1      25.847  46.594  51.681  1.00  0.00     0.037 A 
HETATM   11  C   UNL     1      26.516  45.389  51.440  1.00  0.00     0.043 A 
HETATM   12  C   UNL     1      27.014  44.635  52.525  1.00  0.00    -0.006 A 
HETATM   13  C   UNL     1      26.832  45.113  53.822  1.00  0.00     0.042 A 
HETATM   14  C   UNL     1      27.715  43.401  52.631  1.00  0.00     0.030 A 
HETATM   15  N   UNL     1      27.399  44.195  54.677  1.00  0.00    -0.365 N 
HETATM   16  C   UNL     1      26.175  46.315  54.092  1.00  0.00     0.033 A 
HETATM   17  H   UNL     1      27.412  44.281  55.683  1.00  0.00     0.165 HD
HETATM   18  C   UNL     1      27.936  43.155  53.966  1.00  0.00     0.089 A 
HETATM   19  C   UNL     1      25.689  47.043  52.999  1.00  0.00     0.032 A 
ENDBRANCH   5  10
BRANCH   1  20
HETATM   20  O   UNL     1      21.548  50.066  48.999  1.00  0.00    -0.344 OA
BRANCH  20  21
HETATM   21  C   UNL     1      20.382  50.737  48.769  1.00  0.00     0.070 A 
HETATM   22  C   UNL     1      19.737  50.876  47.543  1.00  0.00     0.060 A 
HETATM   23  C   UNL     1      18.555  51.619  47.466  1.00  0.00     0.036 A 
HETATM   24  C   UNL     1      18.009  52.216  48.600  1.00  0.00     0.024 A 
HETATM   25 CL   UNL     1      17.767  51.804  45.946  1.00  0.00    -0.084 Cl
HETATM   26  C   UNL     1      18.648  52.069  49.828  1.00  0.00     0.004 A 
HETATM   27  C   UNL     1      19.829  51.331  49.909  1.00  0.00     0.037 A 
ENDBRANCH  20  21
ENDBRANCH   1  20
TORSDOF 3
ENDMDL
MODEL 7
REMARK VINA RESULT:      -8.1     15.936     18.561
REMARK  3 active torsions:
REMARK  status: ('A' for Active; 'I' for Inactive)
REMARK    1  A    between atoms: C_6  and  O_7 
REMARK    2  A    between atoms: O_7  and  C_8 
REMARK       I    between atoms: N_10  and  C_11 
REMARK       I    between atoms: C_11  and  N_12 
REMARK    3  A    between atoms: N_12  and  C_13 
ROOT
HETATM    1  C   UNL     1      36.080  46.487  65.640  1.00  0.00     0.148 C 
HETATM    2  C   UNL     1      35.851  44.971  65.741  1.00  0.00     0.160 C 
HETATM    3  N   UNL     1      36.775  44.391  64.771  1.00  0.00    -0.331 N 
HETATM    4  C   UNL     1      37.154  43.065  64.875  1.00  0.00     0.323 C 
HETATM    5  N   UNL     1      38.176  42.706  64.027  1.00  0.00    -0.309 N 
HETATM    6  O   UNL     1      36.604  42.321  65.683  1.00  0.00    -0.247 OA
HETATM    7  C   UNL     1      37.310  45.420  63.896  1.00  0.00     0.130 C 
HETATM    8  C   UNL     1      36.446  46.645  64.163  1.00  0.00     0.054 C 
HETATM    9  H   UNL     1      38.514  43.427  63.413  1.00  0.00     0.170 HD
ENDROOT
BRANCH   5  10
HETATM   10  C   UNL     1      38.858  41.473  63.948  1.00  0.00     0.037 A 
HETATM   11  C   UNL     1      39.470  40.849  65.041  1.00  0.00     0.043 A 
HETATM   12  C   UNL     1      40.156  39.629  64.857  1.00  0.00    -0.006 A 
HETATM   13  C   UNL     1      40.205  39.065  63.584  1.00  0.00     0.042 A 
HETATM   14  C   UNL     1      40.873  38.759  65.726  1.00  0.00     0.030 A 
HETATM   15  N   UNL     1      40.931  37.900  63.682  1.00  0.00    -0.365 N 
HETATM   16  C   UNL     1      39.598  39.661  62.476  1.00  0.00     0.033 A 
HETATM   17  H   UNL     1      41.131  37.282  62.908  1.00  0.00     0.165 HD
HETATM   18  C   UNL     1      41.339  37.705  64.975  1.00  0.00     0.089 A 
HETATM   19  C   UNL     1      38.925  40.872  62.685  1.00  0.00     0.032 A 
ENDBRANCH   5  10
BRANCH   1  20
HETATM   20  O   UNL     1      37.190  46.812  66.488  1.00  0.00    -0.344 OA
BRANCH  20  21
HETATM   21  C   UNL     1      37.877  47.971  66.278  1.00  0.00     0.070 A 
HETATM   22  C   UNL     1      37.358  49.263  66.344  1.00  0.00     0.060 A 
HETATM   23  C   UNL     1      38.190  50.354  66.077  1.00  0.00     0.036 A 
HETATM   24  C   UNL     1      39.533  50.169  65.753  1.00  0.00     0.024 A 
HETATM   25 CL   UNL     1      37.544  51.949  66.142  1.00  0.00    -0.084 Cl
HETATM   26  C   UNL     1      40.054  48.880  65.697  1.00  0.00     0.004 A 
HETATM   27  C   UNL     1      39.227  47.788  65.960  1.00  0.00     0.037 A 
ENDBRANCH  20  21
ENDBRANCH   1  20
TORSDOF 3
ENDMDL
MODEL 8
REMARK VINA RESULT:      -8.1      5.414      9.003
REMARK  3 active torsions:
REMARK  status: ('A' for Active; 'I' for Inactive)
REMARK    1  A    between atoms: C_6  and  O_7 
REMARK    2  A    between atoms: O_7  and  C_8 
REMARK       I    between atoms: N_10  and  C_11 
REMARK       I    between atoms: C_11  and  N_12 
REMARK    3  A    between atoms: N_12  and  C_13 
ROOT
HETATM    1  C   UNL     1      26.502  41.628  48.467  1.00  0.00     0.148 C 
HETATM    2  C   UNL     1      26.605  42.931  49.275  1.00  0.00     0.160 C 
HETATM    3  N   UNL     1      26.894  42.500  50.639  1.00  0.00    -0.331 N 
HETATM    4  C   UNL     1      27.462  43.380  51.542  1.00  0.00     0.323 C 
HETATM    5  N   UNL     1      27.865  42.791  52.719  1.00  0.00    -0.309 N 
HETATM    6  O   UNL     1      27.588  44.569  51.261  1.00  0.00    -0.247 OA
HETATM    7  C   UNL     1      26.674  41.071  50.781  1.00  0.00     0.130 C 
HETATM    8  C   UNL     1      25.938  40.663  49.512  1.00  0.00     0.054 C 
HETATM    9  H   UNL     1      27.681  41.807  52.806  1.00  0.00     0.170 HD
ENDROOT
BRANCH   5  10
HETATM   10  C   UNL     1      28.561  43.376  53.798  1.00  0.00     0.037 A 
HETATM   11  C   UNL     1      28.059  44.431  54.570  1.00  0.00     0.043 A 
HETATM   12  C   UNL     1      28.844  44.971  55.612  1.00  0.00    -0.006 A 
HETATM   13  C   UNL     1      30.108  44.438  55.854  1.00  0.00     0.042 A 
HETATM   14  C   UNL     1      28.646  46.019  56.555  1.00  0.00     0.030 A 
HETATM   15  N   UNL     1      30.654  45.143  56.903  1.00  0.00    -0.365 N 
HETATM   16  C   UNL     1      30.632  43.381  55.105  1.00  0.00     0.033 A 
HETATM   17  H   UNL     1      31.570  44.974  57.292  1.00  0.00     0.165 HD
HETATM   18  C   UNL     1      29.776  46.102  57.334  1.00  0.00     0.089 A 
HETATM   19  C   UNL     1      29.835  42.864  54.077  1.00  0.00     0.032 A 
ENDBRANCH   5  10
BRANCH   1  20
HETATM   20  O   UNL     1      27.831  41.255  48.080  1.00  0.00    -0.344 OA
BRANCH  20  21
HETATM   21  C   UNL     1      28.051  40.023  47.536  1.00  0.00     0.070 A 
HETATM   22  C   UNL     1      27.613  39.580  46.290  1.00  0.00     0.060 A 
HETATM   23  C   UNL     1      27.899  38.274  45.882  1.00  0.00     0.036 A 
HETATM   24  C   UNL     1      28.622  37.410  46.703  1.00  0.00     0.024 A 
HETATM   25 CL   UNL     1      27.343  37.722  44.348  1.00  0.00    -0.084 Cl
HETATM   26  C   UNL     1      29.069  37.855  47.944  1.00  0.00     0.004 A 
HETATM   27  C   UNL     1      28.783  39.157  48.355  1.00  0.00     0.037 A 
ENDBRANCH  20  21
ENDBRANCH   1  20
TORSDOF 3
ENDMDL
MODEL 9
REMARK VINA RESULT:      -8.0      4.166      9.563
REMARK  3 active torsions:
REMARK  status: ('A' for Active; 'I' for Inactive)
REMARK    1  A    between atoms: C_6  and  O_7 
REMARK    2  A    between atoms: O_7  and  C_8 
REMARK       I    between atoms: N_10  and  C_11 
REMARK       I    between atoms: C_11  and  N_12 
REMARK    3  A    between atoms: N_12  and  C_13 
ROOT
HETATM    1  C   UNL     1      23.404  44.485  49.208  1.00  0.00     0.148 C 
HETATM    2  C   UNL     1      23.579  44.136  50.694  1.00  0.00     0.160 C 
HETATM    3  N   UNL     1      25.023  44.037  50.884  1.00  0.00    -0.331 N 
HETATM    4  C   UNL     1      25.569  44.156  52.149  1.00  0.00     0.323 C 
HETATM    5  N   UNL     1      26.942  44.246  52.159  1.00  0.00    -0.309 N 
HETATM    6  O   UNL     1      24.845  44.190  53.141  1.00  0.00    -0.247 OA
HETATM    7  C   UNL     1      25.705  43.995  49.602  1.00  0.00     0.130 C 
HETATM    8  C   UNL     1      24.600  43.766  48.581  1.00  0.00     0.054 C 
HETATM    9  H   UNL     1      27.395  44.190  51.264  1.00  0.00     0.170 HD
ENDROOT
BRANCH   5  10
HETATM   10  C   UNL     1      27.797  44.472  53.259  1.00  0.00     0.037 A 
HETATM   11  C   UNL     1      28.812  43.592  53.652  1.00  0.00     0.043 A 
HETATM   12  C   UNL     1      29.597  43.889  54.787  1.00  0.00    -0.006 A 
HETATM   13  C   UNL     1      29.347  45.063  55.494  1.00  0.00     0.042 A 
HETATM   14  C   UNL     1      30.672  43.228  55.444  1.00  0.00     0.030 A 
HETATM   15  N   UNL     1      30.237  45.104  56.544  1.00  0.00    -0.365 N 
HETATM   16  C   UNL     1      28.345  45.964  55.123  1.00  0.00     0.033 A 
HETATM   17  H   UNL     1      30.282  45.845  57.229  1.00  0.00     0.165 HD
HETATM   18  C   UNL     1      31.044  43.998  56.522  1.00  0.00     0.089 A 
HETATM   19  C   UNL     1      27.580  45.645  53.994  1.00  0.00     0.032 A 
ENDBRANCH   5  10
BRANCH   1  20
HETATM   20  O   UNL     1      23.529  45.908  49.082  1.00  0.00    -0.344 OA
BRANCH  20  21
HETATM   21  C   UNL     1      22.473  46.635  48.614  1.00  0.00     0.070 A 
HETATM   22  C   UNL     1      21.190  46.158  48.357  1.00  0.00     0.060 A 
HETATM   23  C   UNL     1      20.219  47.028  47.853  1.00  0.00     0.036 A 
HETATM   24  C   UNL     1      20.515  48.368  47.610  1.00  0.00     0.024 A 
HETATM   25 CL   UNL     1      18.637  46.433  47.521  1.00  0.00    -0.084 Cl
HETATM   26  C   UNL     1      21.794  48.848  47.876  1.00  0.00     0.004 A 
HETATM   27  C   UNL     1      22.767  47.982  48.376  1.00  0.00     0.037 A 
ENDBRANCH  20  21
ENDBRANCH   1  20
TORSDOF 3
ENDMDL
MODEL 10
REMARK VINA RESULT:      -8.0      4.902     10.508
REMARK  3 active torsions:
REMARK  status: ('A' for Active; 'I' for Inactive)
REMARK    1  A    between atoms: C_6  and  O_7 
REMARK    2  A    between atoms: O_7  and  C_8 
REMARK       I    between atoms: N_10  and  C_11 
REMARK       I    between atoms: C_11  and  N_12 
REMARK    3  A    between atoms: N_12  and  C_13 
ROOT
HETATM    1  C   UNL     1      21.302  48.854  48.103  1.00  0.00     0.148 C 
HETATM    2  C   UNL     1      21.932  47.461  48.263  1.00  0.00     0.160 C 
HETATM    3  N   UNL     1      23.210  47.706  48.926  1.00  0.00    -0.331 N 
HETATM    4  C   UNL     1      23.850  46.685  49.603  1.00  0.00     0.323 C 
HETATM    5  N   UNL     1      24.933  47.099  50.346  1.00  0.00    -0.309 N 
HETATM    6  O   UNL     1      23.437  45.531  49.527  1.00  0.00    -0.247 OA
HETATM    7  C   UNL     1      23.535  49.122  48.902  1.00  0.00     0.130 C 
HETATM    8  C   UNL     1      22.542  49.733  47.922  1.00  0.00     0.054 C 
HETATM    9  H   UNL     1      25.154  48.077  50.295  1.00  0.00     0.170 HD
ENDROOT
BRANCH   5  10
HETATM   10  C   UNL     1      25.737  46.338  51.221  1.00  0.00     0.037 A 
HETATM   11  C   UNL     1      25.913  46.637  52.577  1.00  0.00     0.043 A 
HETATM   12  C   UNL     1      26.764  45.833  53.367  1.00  0.00    -0.006 A 
HETATM   13  C   UNL     1      27.410  44.749  52.777  1.00  0.00     0.042 A 
HETATM   14  C   UNL     1      27.159  45.862  54.733  1.00  0.00     0.030 A 
HETATM   15  N   UNL     1      28.172  44.149  53.754  1.00  0.00    -0.365 N 
HETATM   16  C   UNL     1      27.248  44.422  51.429  1.00  0.00     0.033 A 
HETATM   17  H   UNL     1      28.753  43.336  53.609  1.00  0.00     0.165 HD
HETATM   18  C   UNL     1      28.026  44.814  54.942  1.00  0.00     0.089 A 
HETATM   19  C   UNL     1      26.401  45.235  50.667  1.00  0.00     0.032 A 
ENDBRANCH   5  10
BRANCH   1  20
HETATM   20  O   UNL     1      20.621  49.163  49.327  1.00  0.00    -0.344 OA
BRANCH  20  21
HETATM   21  C   UNL     1      19.504  49.945  49.294  1.00  0.00     0.070 A 
HETATM   22  C   UNL     1      18.246  49.570  48.828  1.00  0.00     0.060 A 
HETATM   23  C   UNL     1      17.202  50.499  48.837  1.00  0.00     0.036 A 
HETATM   24  C   UNL     1      17.400  51.794  49.312  1.00  0.00     0.024 A 
HETATM   25 CL   UNL     1      15.651  50.039  48.245  1.00  0.00    -0.084 Cl
HETATM   26  C   UNL     1      18.654  52.167  49.787  1.00  0.00     0.004 A 
HETATM   27  C   UNL     1      19.699  51.243  49.777  1.00  0.00     0.037 A 
ENDBRANCH  20  21
ENDBRANCH   1  20
TORSDOF 3
ENDMDL
