MODEL 1
REMARK VINA RESULT:     -11.5      0.000      0.000
REMARK  6 active torsions:
REMARK  status: ('A' for Active; 'I' for Inactive)
REMARK    1  A    between atoms: C_4  and  C_5 
REMARK    2  A    between atoms: N_7  and  C_8 
REMARK    3  A    between atoms: C_19  and  N_20 
REMARK       I    between atoms: N_20  and  C_21 
REMARK    4  A    between atoms: C_21  and  C_22 
REMARK    5  A    between atoms: C_25  and  S_26 
REMARK    6  A    between atoms: S_26  and  N_27 
ROOT
HETATM    1  C   UNL     1      27.927  41.098  50.063  1.00  0.00     0.115 A 
HETATM    2  N   UNL     1      28.141  41.693  51.243  1.00  0.00    -0.148 NA
HETATM    3  N   UNL     1      27.508  42.901  51.122  1.00  0.00    -0.044 N 
HETATM    4  C   UNL     1      26.885  43.054  49.891  1.00  0.00     0.152 A 
HETATM    5  C   UNL     1      27.174  41.905  49.188  1.00  0.00     0.087 A 
ENDROOT
BRANCH   4   6
HETATM    6  N   UNL     1      26.133  44.175  49.556  1.00  0.00    -0.307 N 
HETATM    7  C   UNL     1      24.751  44.156  49.541  1.00  0.00     0.257 C 
HETATM    8  O   UNL     1      24.045  43.156  49.613  1.00  0.00    -0.267 OA
HETATM    9  H   UNL     1      26.638  45.012  49.268  1.00  0.00     0.170 HD
BRANCH   7  10
HETATM   10  C   UNL     1      24.081  45.480  49.415  1.00  0.00     0.032 A 
HETATM   11  C   UNL     1      23.040  45.691  48.499  1.00  0.00     0.018 A 
HETATM   12  C   UNL     1      22.551  46.984  48.285  1.00  0.00     0.026 A 
HETATM   13  C   UNL     1      23.100  48.061  48.993  1.00  0.00     0.079 A 
HETATM   14  C   UNL     1      24.121  47.855  49.925  1.00  0.00     0.026 A 
HETATM   15  C   UNL     1      24.611  46.564  50.132  1.00  0.00     0.018 A 
BRANCH  13  16
HETATM   16  S   UNL     1      22.608  49.718  48.569  1.00  0.00     0.260 S 
HETATM   17  O   UNL     1      22.877  50.572  49.706  1.00  0.00    -0.200 OA
HETATM   18  O   UNL     1      23.189  50.001  47.274  1.00  0.00    -0.200 OA
BRANCH  16  19
HETATM   19  N   UNL     1      20.920  49.592  48.378  1.00  0.00    -0.307 N 
HETATM   20  C   UNL     1      20.108  49.226  49.567  1.00  0.00     0.135 C 
HETATM   21  C   UNL     1      19.780  50.434  50.440  1.00  0.00     0.021 C 
HETATM   22  C   UNL     1      19.172  51.576  49.633  1.00  0.00     0.003 C 
HETATM   23  C   UNL     1      20.034  51.914  48.422  1.00  0.00     0.021 C 
HETATM   24  C   UNL     1      20.290  50.673  47.575  1.00  0.00     0.135 C 
ENDBRANCH  16  19
ENDBRANCH  13  16
ENDBRANCH   7  10
ENDBRANCH   4   6
BRANCH   3  25
HETATM   25  C   UNL     1      27.573  43.819  52.189  1.00  0.00     0.732 A 
HETATM   26  N   UNL     1      26.784  44.842  52.306  1.00  0.00    -0.067 NA
HETATM   27  C   UNL     1      27.015  45.659  53.393  1.00  0.00     0.065 A 
HETATM   28  C   UNL     1      27.979  45.447  54.312  1.00  0.00     0.036 A 
HETATM   29  C   UNL     1      26.098  46.858  53.494  1.00  0.00     0.060 C 
HETATM   30  C   UNL     1      28.267  46.358  55.470  1.00  0.00     0.046 C 
HETATM   31  C   UNL     1      28.837  44.248  54.160  1.00  0.00     0.268 A 
HETATM   32  C   UNL     1      27.585  47.720  55.336  1.00  0.00     0.005 C 
HETATM   33  C   UNL     1      26.148  47.564  54.852  1.00  0.00     0.006 C 
HETATM   34  O   UNL     1      29.720  43.965  54.960  1.00  0.00    -0.267 OA
HETATM   35  N   UNL     1      28.570  43.493  53.064  1.00  0.00    -0.152 N 
HETATM   36  H   UNL     1      29.131  42.665  52.889  1.00  0.00     0.188 HD
ENDBRANCH   3  25
BRANCH   1  37
HETATM   37  C   UNL     1      28.426  39.729  49.741  1.00  0.00     0.105 A 
HETATM   38  O   UNL     1      29.141  38.945  50.605  1.00  0.00    -0.320 OA
HETATM   39  C   UNL     1      29.424  37.785  49.959  1.00  0.00     0.142 A 
HETATM   40  C   UNL     1      28.905  37.802  48.687  1.00  0.00     0.027 A 
HETATM   41  C   UNL     1      28.260  39.056  48.545  1.00  0.00     0.041 A 
ENDBRANCH   1  37
TORSDOF 6
ENDMDL
MODEL 2
REMARK VINA RESULT:     -10.8      1.794      5.556
REMARK  6 active torsions:
REMARK  status: ('A' for Active; 'I' for Inactive)
REMARK    1  A    between atoms: C_4  and  C_5 
REMARK    2  A    between atoms: N_7  and  C_8 
REMARK    3  A    between atoms: C_19  and  N_20 
REMARK       I    between atoms: N_20  and  C_21 
REMARK    4  A    between atoms: C_21  and  C_22 
REMARK    5  A    between atoms: C_25  and  S_26 
REMARK    6  A    between atoms: S_26  and  N_27 
ROOT
HETATM    1  C   UNL     1      29.349  43.721  54.465  1.00  0.00     0.115 A 
HETATM    2  N   UNL     1      29.364  42.592  53.746  1.00  0.00    -0.148 NA
HETATM    3  N   UNL     1      28.534  42.863  52.691  1.00  0.00    -0.044 N 
HETATM    4  C   UNL     1      28.022  44.152  52.735  1.00  0.00     0.152 A 
HETATM    5  C   UNL     1      28.521  44.707  53.894  1.00  0.00     0.087 A 
ENDROOT
BRANCH   4   6
HETATM    6  N   UNL     1      27.199  44.676  51.744  1.00  0.00    -0.307 N 
HETATM    7  C   UNL     1      25.910  45.103  52.007  1.00  0.00     0.257 C 
HETATM    8  O   UNL     1      25.282  44.898  53.039  1.00  0.00    -0.267 OA
HETATM    9  H   UNL     1      27.561  44.691  50.791  1.00  0.00     0.170 HD
BRANCH   7  10
HETATM   10  C   UNL     1      25.242  45.868  50.918  1.00  0.00     0.032 A 
HETATM   11  C   UNL     1      25.548  47.215  50.675  1.00  0.00     0.018 A 
HETATM   12  C   UNL     1      24.783  47.949  49.762  1.00  0.00     0.026 A 
HETATM   13  C   UNL     1      23.720  47.333  49.091  1.00  0.00     0.079 A 
HETATM   14  C   UNL     1      23.425  45.984  49.310  1.00  0.00     0.026 A 
HETATM   15  C   UNL     1      24.186  45.255  50.227  1.00  0.00     0.018 A 
BRANCH  13  16
HETATM   16  S   UNL     1      22.636  48.325  48.087  1.00  0.00     0.260 S 
HETATM   17  O   UNL     1      23.409  49.415  47.531  1.00  0.00    -0.200 OA
HETATM   18  O   UNL     1      21.918  47.408  47.226  1.00  0.00    -0.200 OA
BRANCH  16  19
HETATM   19  N   UNL     1      21.533  48.969  49.215  1.00  0.00    -0.307 N 
HETATM   20  C   UNL     1      21.682  50.395  49.602  1.00  0.00     0.135 C 
HETATM   21  C   UNL     1      21.007  51.339  48.611  1.00  0.00     0.021 C 
HETATM   22  C   UNL     1      19.558  50.944  48.340  1.00  0.00     0.003 C 
HETATM   23  C   UNL     1      19.452  49.474  47.952  1.00  0.00     0.021 C 
HETATM   24  C   UNL     1      20.112  48.587  49.001  1.00  0.00     0.135 C 
ENDBRANCH  16  19
ENDBRANCH  13  16
ENDBRANCH   7  10
ENDBRANCH   4   6
BRANCH   3  25
HETATM   25  C   UNL     1      28.281  41.854  51.741  1.00  0.00     0.732 A 
HETATM   26  N   UNL     1      27.377  41.948  50.815  1.00  0.00    -0.067 NA
HETATM   27  C   UNL     1      27.239  40.848  49.995  1.00  0.00     0.065 A 
HETATM   28  C   UNL     1      27.977  39.725  50.098  1.00  0.00     0.036 A 
HETATM   29  C   UNL     1      26.163  40.973  48.939  1.00  0.00     0.060 C 
HETATM   30  C   UNL     1      27.800  38.506  49.240  1.00  0.00     0.046 C 
HETATM   31  C   UNL     1      29.022  39.671  51.149  1.00  0.00     0.268 A 
HETATM   32  C   UNL     1      26.490  38.524  48.451  1.00  0.00     0.005 C 
HETATM   33  C   UNL     1      26.236  39.901  47.848  1.00  0.00     0.006 C 
HETATM   34  O   UNL     1      29.754  38.701  51.299  1.00  0.00    -0.267 OA
HETATM   35  N   UNL     1      29.100  40.777  51.931  1.00  0.00    -0.152 N 
HETATM   36  H   UNL     1      29.783  40.801  52.683  1.00  0.00     0.188 HD
ENDBRANCH   3  25
BRANCH   1  37
HETATM   37  C   UNL     1      30.140  43.896  55.718  1.00  0.00     0.105 A 
HETATM   38  O   UNL     1      29.985  44.939  56.590  1.00  0.00    -0.320 OA
HETATM   39  C   UNL     1      30.878  44.762  57.596  1.00  0.00     0.142 A 
HETATM   40  C   UNL     1      31.615  43.621  57.393  1.00  0.00     0.027 A 
HETATM   41  C   UNL     1      31.139  43.060  56.181  1.00  0.00     0.041 A 
ENDBRANCH   1  37
TORSDOF 6
ENDMDL
MODEL 3
REMARK VINA RESULT:     -10.6      1.546      2.193
REMARK  6 active torsions:
REMARK  status: ('A' for Active; 'I' for Inactive)
REMARK    1  A    between atoms: C_4  and  C_5 
REMARK    2  A    between atoms: N_7  and  C_8 
REMARK    3  A    between atoms: C_19  and  N_20 
REMARK       I    between atoms: N_20  and  C_21 
REMARK    4  A    between atoms: C_21  and  C_22 
REMARK    5  A    between atoms: C_25  and  S_26 
REMARK    6  A    between atoms: S_26  and  N_27 
ROOT
HETATM    1  C   UNL     1      28.252  40.912  50.927  1.00  0.00     0.115 A 
HETATM    2  N   UNL     1      28.610  41.508  52.070  1.00  0.00    -0.148 NA
HETATM    3  N   UNL     1      27.882  42.667  52.079  1.00  0.00    -0.044 N 
HETATM    4  C   UNL     1      27.060  42.787  50.967  1.00  0.00     0.152 A 
HETATM    5  C   UNL     1      27.313  41.670  50.201  1.00  0.00     0.087 A 
ENDROOT
BRANCH   4   6
HETATM    6  N   UNL     1      26.186  43.853  50.781  1.00  0.00    -0.307 N 
HETATM    7  C   UNL     1      26.528  44.963  50.031  1.00  0.00     0.257 C 
HETATM    8  O   UNL     1      27.652  45.239  49.627  1.00  0.00    -0.267 OA
HETATM    9  H   UNL     1      25.288  43.814  51.262  1.00  0.00     0.170 HD
BRANCH   7  10
HETATM   10  C   UNL     1      25.416  45.899  49.708  1.00  0.00     0.032 A 
HETATM   11  C   UNL     1      24.177  45.434  49.242  1.00  0.00     0.018 A 
HETATM   12  C   UNL     1      23.218  46.344  48.787  1.00  0.00     0.026 A 
HETATM   13  C   UNL     1      23.496  47.716  48.806  1.00  0.00     0.079 A 
HETATM   14  C   UNL     1      24.718  48.189  49.292  1.00  0.00     0.026 A 
HETATM   15  C   UNL     1      25.677  47.277  49.740  1.00  0.00     0.018 A 
BRANCH  13  16
HETATM   16  S   UNL     1      22.350  48.845  48.043  1.00  0.00     0.260 S 
HETATM   17  O   UNL     1      23.105  49.952  47.497  1.00  0.00    -0.200 OA
HETATM   18  O   UNL     1      21.486  48.046  47.200  1.00  0.00    -0.200 OA
BRANCH  16  19
HETATM   19  N   UNL     1      21.429  49.418  49.357  1.00  0.00    -0.307 N 
HETATM   20  C   UNL     1      21.437  50.878  49.631  1.00  0.00     0.135 C 
HETATM   21  C   UNL     1      20.430  51.636  48.772  1.00  0.00     0.021 C 
HETATM   22  C   UNL     1      19.034  51.024  48.850  1.00  0.00     0.003 C 
HETATM   23  C   UNL     1      19.074  49.526  48.567  1.00  0.00     0.021 C 
HETATM   24  C   UNL     1      20.071  48.827  49.484  1.00  0.00     0.135 C 
ENDBRANCH  16  19
ENDBRANCH  13  16
ENDBRANCH   7  10
ENDBRANCH   4   6
BRANCH   3  25
HETATM   25  C   UNL     1      28.051  43.575  53.143  1.00  0.00     0.732 A 
HETATM   26  N   UNL     1      29.111  43.619  53.889  1.00  0.00    -0.067 NA
HETATM   27  C   UNL     1      29.090  44.545  54.912  1.00  0.00     0.065 A 
HETATM   28  C   UNL     1      28.063  45.383  55.157  1.00  0.00     0.036 A 
HETATM   29  C   UNL     1      30.327  44.560  55.782  1.00  0.00     0.060 C 
HETATM   30  C   UNL     1      28.013  46.359  56.296  1.00  0.00     0.046 C 
HETATM   31  C   UNL     1      26.883  45.323  54.260  1.00  0.00     0.268 A 
HETATM   32  C   UNL     1      29.090  46.095  57.349  1.00  0.00     0.005 C 
HETATM   33  C   UNL     1      30.430  45.787  56.692  1.00  0.00     0.006 C 
HETATM   34  O   UNL     1      25.917  46.063  54.395  1.00  0.00    -0.267 OA
HETATM   35  N   UNL     1      26.959  44.384  53.284  1.00  0.00    -0.152 N 
HETATM   36  H   UNL     1      26.178  44.277  52.643  1.00  0.00     0.188 HD
ENDBRANCH   3  25
BRANCH   1  37
HETATM   37  C   UNL     1      28.790  39.587  50.498  1.00  0.00     0.105 A 
HETATM   38  O   UNL     1      29.506  38.747  51.306  1.00  0.00    -0.320 OA
HETATM   39  C   UNL     1      29.829  37.654  50.569  1.00  0.00     0.142 A 
HETATM   40  C   UNL     1      29.335  37.770  49.293  1.00  0.00     0.027 A 
HETATM   41  C   UNL     1      28.663  39.017  49.246  1.00  0.00     0.041 A 
ENDBRANCH   1  37
TORSDOF 6
ENDMDL
MODEL 4
REMARK VINA RESULT:      -9.9      4.155      9.457
REMARK  6 active torsions:
REMARK  status: ('A' for Active; 'I' for Inactive)
REMARK    1  A    between atoms: C_4  and  C_5 
REMARK    2  A    between atoms: N_7  and  C_8 
REMARK    3  A    between atoms: C_19  and  N_20 
REMARK       I    between atoms: N_20  and  C_21 
REMARK    4  A    between atoms: C_21  and  C_22 
REMARK    5  A    between atoms: C_25  and  S_26 
REMARK    6  A    between atoms: S_26  and  N_27 
ROOT
HETATM    1  C   UNL     1      29.575  44.283  55.150  1.00  0.00     0.115 A 
HETATM    2  N   UNL     1      28.417  44.736  54.655  1.00  0.00    -0.148 NA
HETATM    3  N   UNL     1      28.252  44.024  53.498  1.00  0.00    -0.044 N 
HETATM    4  C   UNL     1      29.281  43.119  53.279  1.00  0.00     0.152 A 
HETATM    5  C   UNL     1      30.157  43.299  54.328  1.00  0.00     0.087 A 
ENDROOT
BRANCH   4   6
HETATM    6  N   UNL     1      29.306  42.246  52.197  1.00  0.00    -0.307 N 
HETATM    7  C   UNL     1      28.820  40.954  52.283  1.00  0.00     0.257 C 
HETATM    8  O   UNL     1      28.512  40.369  53.315  1.00  0.00    -0.267 OA
HETATM    9  H   UNL     1      29.746  42.573  51.338  1.00  0.00     0.170 HD
BRANCH   7  10
HETATM   10  C   UNL     1      28.678  40.224  50.993  1.00  0.00     0.032 A 
HETATM   11  C   UNL     1      27.861  40.710  49.962  1.00  0.00     0.018 A 
HETATM   12  C   UNL     1      27.615  39.918  48.835  1.00  0.00     0.026 A 
HETATM   13  C   UNL     1      28.192  38.646  48.741  1.00  0.00     0.079 A 
HETATM   14  C   UNL     1      29.027  38.164  49.753  1.00  0.00     0.026 A 
HETATM   15  C   UNL     1      29.266  38.955  50.879  1.00  0.00     0.018 A 
BRANCH  13  16
HETATM   16  S   UNL     1      27.715  37.574  47.402  1.00  0.00     0.260 S 
HETATM   17  O   UNL     1      28.915  36.987  46.844  1.00  0.00    -0.200 OA
HETATM   18  O   UNL     1      26.644  36.739  47.905  1.00  0.00    -0.200 OA
BRANCH  16  19
HETATM   19  N   UNL     1      27.057  38.647  46.254  1.00  0.00    -0.307 N 
HETATM   20  C   UNL     1      27.977  39.256  45.260  1.00  0.00     0.135 C 
HETATM   21  C   UNL     1      28.225  38.344  44.062  1.00  0.00     0.021 C 
HETATM   22  C   UNL     1      26.922  37.848  43.441  1.00  0.00     0.003 C 
HETATM   23  C   UNL     1      26.008  37.236  44.496  1.00  0.00     0.021 C 
HETATM   24  C   UNL     1      25.773  38.212  45.642  1.00  0.00     0.135 C 
ENDBRANCH  16  19
ENDBRANCH  13  16
ENDBRANCH   7  10
ENDBRANCH   4   6
BRANCH   3  25
HETATM   25  C   UNL     1      27.131  44.287  52.685  1.00  0.00     0.732 A 
HETATM   26  N   UNL     1      26.444  43.363  52.087  1.00  0.00    -0.067 NA
HETATM   27  C   UNL     1      25.403  43.803  51.297  1.00  0.00     0.065 A 
HETATM   28  C   UNL     1      25.070  45.099  51.131  1.00  0.00     0.036 A 
HETATM   29  C   UNL     1      24.632  42.709  50.593  1.00  0.00     0.060 C 
HETATM   30  C   UNL     1      23.968  45.588  50.236  1.00  0.00     0.046 C 
HETATM   31  C   UNL     1      25.860  46.121  51.858  1.00  0.00     0.268 A 
HETATM   32  C   UNL     1      23.465  44.510  49.275  1.00  0.00     0.005 C 
HETATM   33  C   UNL     1      23.303  43.175  49.992  1.00  0.00     0.006 C 
HETATM   34  O   UNL     1      25.613  47.318  51.785  1.00  0.00    -0.267 OA
HETATM   35  N   UNL     1      26.879  45.627  52.607  1.00  0.00    -0.152 N 
HETATM   36  H   UNL     1      27.472  46.273  53.118  1.00  0.00     0.188 HD
ENDBRANCH   3  25
BRANCH   1  37
HETATM   37  C   UNL     1      30.155  44.770  56.436  1.00  0.00     0.105 A 
HETATM   38  O   UNL     1      29.814  45.949  57.040  1.00  0.00    -0.320 OA
HETATM   39  C   UNL     1      30.551  46.052  58.174  1.00  0.00     0.142 A 
HETATM   40  C   UNL     1      31.369  44.958  58.318  1.00  0.00     0.027 A 
HETATM   41  C   UNL     1      31.114  44.129  57.197  1.00  0.00     0.041 A 
ENDBRANCH   1  37
TORSDOF 6
ENDMDL
MODEL 5
REMARK VINA RESULT:      -9.7      3.630      6.828
REMARK  6 active torsions:
REMARK  status: ('A' for Active; 'I' for Inactive)
REMARK    1  A    between atoms: C_4  and  C_5 
REMARK    2  A    between atoms: N_7  and  C_8 
REMARK    3  A    between atoms: C_19  and  N_20 
REMARK       I    between atoms: N_20  and  C_21 
REMARK    4  A    between atoms: C_21  and  C_22 
REMARK    5  A    between atoms: C_25  and  S_26 
REMARK    6  A    between atoms: S_26  and  N_27 
ROOT
HETATM    1  C   UNL     1      29.044  43.157  54.258  1.00  0.00     0.115 A 
HETATM    2  N   UNL     1      29.458  42.273  53.343  1.00  0.00    -0.148 NA
HETATM    3  N   UNL     1      28.376  42.119  52.519  1.00  0.00    -0.044 N 
HETATM    4  C   UNL     1      27.303  42.913  52.899  1.00  0.00     0.152 A 
HETATM    5  C   UNL     1      27.715  43.568  54.039  1.00  0.00     0.087 A 
ENDROOT
BRANCH   4   6
HETATM    6  N   UNL     1      26.111  42.969  52.184  1.00  0.00    -0.307 N 
HETATM    7  C   UNL     1      25.698  44.115  51.530  1.00  0.00     0.257 C 
HETATM    8  O   UNL     1      26.189  45.231  51.657  1.00  0.00    -0.267 OA
HETATM    9  H   UNL     1      25.515  42.142  52.196  1.00  0.00     0.170 HD
BRANCH   7  10
HETATM   10  C   UNL     1      24.543  43.958  50.604  1.00  0.00     0.032 A 
HETATM   11  C   UNL     1      24.125  42.694  50.160  1.00  0.00     0.018 A 
HETATM   12  C   UNL     1      23.152  42.593  49.161  1.00  0.00     0.026 A 
HETATM   13  C   UNL     1      22.594  43.755  48.614  1.00  0.00     0.079 A 
HETATM   14  C   UNL     1      22.987  45.016  49.068  1.00  0.00     0.026 A 
HETATM   15  C   UNL     1      23.964  45.115  50.061  1.00  0.00     0.018 A 
BRANCH  13  16
HETATM   16  S   UNL     1      21.506  43.617  47.211  1.00  0.00     0.260 S 
HETATM   17  O   UNL     1      21.495  42.234  46.784  1.00  0.00    -0.200 OA
HETATM   18  O   UNL     1      20.278  44.292  47.575  1.00  0.00    -0.200 OA
BRANCH  16  19
HETATM   19  N   UNL     1      22.288  44.543  46.014  1.00  0.00    -0.307 N 
HETATM   20  C   UNL     1      23.176  43.838  45.055  1.00  0.00     0.135 C 
HETATM   21  C   UNL     1      22.404  43.232  43.886  1.00  0.00     0.021 C 
HETATM   22  C   UNL     1      21.491  44.252  43.212  1.00  0.00     0.003 C 
HETATM   23  C   UNL     1      20.602  44.953  44.234  1.00  0.00     0.021 C 
HETATM   24  C   UNL     1      21.439  45.567  45.350  1.00  0.00     0.135 C 
ENDBRANCH  16  19
ENDBRANCH  13  16
ENDBRANCH   7  10
ENDBRANCH   4   6
BRANCH   3  25
HETATM   25  C   UNL     1      28.453  41.205  51.449  1.00  0.00     0.732 A 
HETATM   26  N   UNL     1      27.946  41.428  50.276  1.00  0.00    -0.067 NA
HETATM   27  C   UNL     1      28.079  40.406  49.359  1.00  0.00     0.065 A 
HETATM   28  C   UNL     1      28.696  39.234  49.611  1.00  0.00     0.036 A 
HETATM   29  C   UNL     1      27.460  40.681  48.006  1.00  0.00     0.060 C 
HETATM   30  C   UNL     1      28.802  38.099  48.634  1.00  0.00     0.046 C 
HETATM   31  C   UNL     1      29.290  39.033  50.955  1.00  0.00     0.268 A 
HETATM   32  C   UNL     1      27.866  38.261  47.436  1.00  0.00     0.005 C 
HETATM   33  C   UNL     1      27.889  39.694  46.917  1.00  0.00     0.006 C 
HETATM   34  O   UNL     1      29.889  38.010  51.262  1.00  0.00    -0.267 OA
HETATM   35  N   UNL     1      29.114  40.067  51.815  1.00  0.00    -0.152 N 
HETATM   36  H   UNL     1      29.481  39.990  52.759  1.00  0.00     0.188 HD
ENDBRANCH   3  25
BRANCH   1  37
HETATM   37  C   UNL     1      29.914  43.649  55.366  1.00  0.00     0.105 A 
HETATM   38  O   UNL     1      29.784  44.871  55.967  1.00  0.00    -0.320 OA
HETATM   39  C   UNL     1      30.751  44.962  56.914  1.00  0.00     0.142 A 
HETATM   40  C   UNL     1      31.511  43.818  56.939  1.00  0.00     0.027 A 
HETATM   41  C   UNL     1      30.971  42.969  55.941  1.00  0.00     0.041 A 
ENDBRANCH   1  37
TORSDOF 6
ENDMDL
MODEL 6
REMARK VINA RESULT:      -9.7      3.075      9.454
REMARK  6 active torsions:
REMARK  status: ('A' for Active; 'I' for Inactive)
REMARK    1  A    between atoms: C_4  and  C_5 
REMARK    2  A    between atoms: N_7  and  C_8 
REMARK    3  A    between atoms: C_19  and  N_20 
REMARK       I    between atoms: N_20  and  C_21 
REMARK    4  A    between atoms: C_21  and  C_22 
REMARK    5  A    between atoms: C_25  and  S_26 
REMARK    6  A    between atoms: S_26  and  N_27 
ROOT
HETATM    1  C   UNL     1      23.922  47.534  49.706  1.00  0.00     0.115 A 
HETATM    2  N   UNL     1      24.611  47.750  50.832  1.00  0.00    -0.148 NA
HETATM    3  N   UNL     1      25.212  46.546  51.086  1.00  0.00    -0.044 N 
HETATM    4  C   UNL     1      24.922  45.594  50.119  1.00  0.00     0.152 A 
HETATM    5  C   UNL     1      24.066  46.215  49.236  1.00  0.00     0.087 A 
ENDROOT
BRANCH   4   6
HETATM    6  N   UNL     1      25.462  44.312  50.132  1.00  0.00    -0.307 N 
HETATM    7  C   UNL     1      24.735  43.212  50.548  1.00  0.00     0.257 C 
HETATM    8  O   UNL     1      23.654  43.241  51.125  1.00  0.00    -0.267 OA
HETATM    9  H   UNL     1      26.441  44.210  49.867  1.00  0.00     0.170 HD
BRANCH   7  10
HETATM   10  C   UNL     1      25.347  41.883  50.270  1.00  0.00     0.032 A 
HETATM   11  C   UNL     1      26.379  41.368  51.069  1.00  0.00     0.018 A 
HETATM   12  C   UNL     1      27.045  40.201  50.681  1.00  0.00     0.026 A 
HETATM   13  C   UNL     1      26.672  39.548  49.500  1.00  0.00     0.079 A 
HETATM   14  C   UNL     1      25.629  40.041  48.711  1.00  0.00     0.026 A 
HETATM   15  C   UNL     1      24.969  41.210  49.098  1.00  0.00     0.018 A 
BRANCH  13  16
HETATM   16  S   UNL     1      27.654  38.182  48.917  1.00  0.00     0.260 S 
HETATM   17  O   UNL     1      29.044  38.587  48.933  1.00  0.00    -0.200 OA
HETATM   18  O   UNL     1      27.212  37.015  49.650  1.00  0.00    -0.200 OA
BRANCH  16  19
HETATM   19  N   UNL     1      27.164  38.009  47.295  1.00  0.00    -0.307 N 
HETATM   20  C   UNL     1      28.184  38.199  46.232  1.00  0.00     0.135 C 
HETATM   21  C   UNL     1      28.999  36.935  45.976  1.00  0.00     0.021 C 
HETATM   22  C   UNL     1      28.111  35.719  45.736  1.00  0.00     0.003 C 
HETATM   23  C   UNL     1      27.078  35.565  46.847  1.00  0.00     0.021 C 
HETATM   24  C   UNL     1      26.275  36.848  47.022  1.00  0.00     0.135 C 
ENDBRANCH  16  19
ENDBRANCH  13  16
ENDBRANCH   7  10
ENDBRANCH   4   6
BRANCH   3  25
HETATM   25  C   UNL     1      25.996  46.402  52.248  1.00  0.00     0.732 A 
HETATM   26  N   UNL     1      26.878  45.465  52.408  1.00  0.00    -0.067 NA
HETATM   27  C   UNL     1      27.526  45.450  53.625  1.00  0.00     0.065 A 
HETATM   28  C   UNL     1      27.303  46.336  54.616  1.00  0.00     0.036 A 
HETATM   29  C   UNL     1      28.533  44.333  53.797  1.00  0.00     0.060 C 
HETATM   30  C   UNL     1      27.969  46.298  55.961  1.00  0.00     0.046 C 
HETATM   31  C   UNL     1      26.310  47.412  54.380  1.00  0.00     0.268 A 
HETATM   32  C   UNL     1      28.685  44.973  56.228  1.00  0.00     0.005 C 
HETATM   33  C   UNL     1      29.463  44.516  55.000  1.00  0.00     0.006 C 
HETATM   34  O   UNL     1      26.062  48.273  55.215  1.00  0.00    -0.267 OA
HETATM   35  N   UNL     1      25.697  47.364  53.170  1.00  0.00    -0.152 N 
HETATM   36  H   UNL     1      24.993  48.062  52.948  1.00  0.00     0.188 HD
ENDBRANCH   3  25
BRANCH   1  37
HETATM   37  C   UNL     1      23.112  48.593  49.034  1.00  0.00     0.105 A 
HETATM   38  O   UNL     1      21.745  48.645  49.048  1.00  0.00    -0.320 OA
HETATM   39  C   UNL     1      21.374  49.734  48.328  1.00  0.00     0.142 A 
HETATM   40  C   UNL     1      22.478  50.392  47.844  1.00  0.00     0.027 A 
HETATM   41  C   UNL     1      23.601  49.657  48.300  1.00  0.00     0.041 A 
ENDBRANCH   1  37
TORSDOF 6
ENDMDL
MODEL 7
REMARK VINA RESULT:      -9.6      1.540      2.026
REMARK  6 active torsions:
REMARK  status: ('A' for Active; 'I' for Inactive)
REMARK    1  A    between atoms: C_4  and  C_5 
REMARK    2  A    between atoms: N_7  and  C_8 
REMARK    3  A    between atoms: C_19  and  N_20 
REMARK       I    between atoms: N_20  and  C_21 
REMARK    4  A    between atoms: C_21  and  C_22 
REMARK    5  A    between atoms: C_25  and  S_26 
REMARK    6  A    between atoms: S_26  and  N_27 
ROOT
HETATM    1  C   UNL     1      27.823  40.922  49.488  1.00  0.00     0.115 A 
HETATM    2  N   UNL     1      27.921  41.577  50.651  1.00  0.00    -0.148 NA
HETATM    3  N   UNL     1      27.147  42.691  50.467  1.00  0.00    -0.044 N 
HETATM    4  C   UNL     1      26.553  42.724  49.214  1.00  0.00     0.152 A 
HETATM    5  C   UNL     1      27.006  41.598  48.562  1.00  0.00     0.087 A 
ENDROOT
BRANCH   4   6
HETATM    6  N   UNL     1      25.679  43.731  48.815  1.00  0.00    -0.307 N 
HETATM    7  C   UNL     1      24.358  43.474  48.497  1.00  0.00     0.257 C 
HETATM    8  O   UNL     1      23.861  42.366  48.329  1.00  0.00    -0.267 OA
HETATM    9  H   UNL     1      26.058  44.671  48.715  1.00  0.00     0.170 HD
BRANCH   7  10
HETATM   10  C   UNL     1      23.482  44.668  48.336  1.00  0.00     0.032 A 
HETATM   11  C   UNL     1      23.520  45.733  49.248  1.00  0.00     0.018 A 
HETATM   12  C   UNL     1      22.569  46.756  49.165  1.00  0.00     0.026 A 
HETATM   13  C   UNL     1      21.588  46.713  48.167  1.00  0.00     0.079 A 
HETATM   14  C   UNL     1      21.559  45.668  47.240  1.00  0.00     0.026 A 
HETATM   15  C   UNL     1      22.506  44.646  47.328  1.00  0.00     0.018 A 
BRANCH  13  16
HETATM   16  S   UNL     1      20.270  47.910  48.195  1.00  0.00     0.260 S 
HETATM   17  O   UNL     1      20.262  48.601  46.924  1.00  0.00    -0.200 OA
HETATM   18  O   UNL     1      19.093  47.214  48.670  1.00  0.00    -0.200 OA
BRANCH  16  19
HETATM   19  N   UNL     1      20.761  49.008  49.401  1.00  0.00    -0.307 N 
HETATM   20  C   UNL     1      21.597  50.166  48.993  1.00  0.00     0.135 C 
HETATM   21  C   UNL     1      20.761  51.330  48.468  1.00  0.00     0.021 C 
HETATM   22  C   UNL     1      19.643  51.714  49.433  1.00  0.00     0.003 C 
HETATM   23  C   UNL     1      18.815  50.496  49.828  1.00  0.00     0.021 C 
HETATM   24  C   UNL     1      19.708  49.389  50.378  1.00  0.00     0.135 C 
ENDBRANCH  16  19
ENDBRANCH  13  16
ENDBRANCH   7  10
ENDBRANCH   4   6
BRANCH   3  25
HETATM   25  C   UNL     1      27.060  43.644  51.502  1.00  0.00     0.732 A 
HETATM   26  N   UNL     1      26.412  44.762  51.396  1.00  0.00    -0.067 NA
HETATM   27  C   UNL     1      26.466  45.595  52.494  1.00  0.00     0.065 A 
HETATM   28  C   UNL     1      27.128  45.309  53.633  1.00  0.00     0.036 A 
HETATM   29  C   UNL     1      25.722  46.903  52.338  1.00  0.00     0.060 C 
HETATM   30  C   UNL     1      27.231  46.231  54.814  1.00  0.00     0.046 C 
HETATM   31  C   UNL     1      27.828  44.006  53.725  1.00  0.00     0.268 A 
HETATM   32  C   UNL     1      26.793  47.660  54.488  1.00  0.00     0.005 C 
HETATM   33  C   UNL     1      25.519  47.661  53.653  1.00  0.00     0.006 C 
HETATM   34  O   UNL     1      28.433  43.654  54.730  1.00  0.00    -0.267 OA
HETATM   35  N   UNL     1      27.750  43.238  52.609  1.00  0.00    -0.152 N 
HETATM   36  H   UNL     1      28.222  42.338  52.596  1.00  0.00     0.188 HD
ENDBRANCH   3  25
BRANCH   1  37
HETATM   37  C   UNL     1      28.500  39.616  49.231  1.00  0.00     0.105 A 
HETATM   38  O   UNL     1      28.544  38.996  48.013  1.00  0.00    -0.320 OA
HETATM   39  C   UNL     1      29.231  37.837  48.173  1.00  0.00     0.142 A 
HETATM   40  C   UNL     1      29.635  37.692  49.478  1.00  0.00     0.027 A 
HETATM   41  C   UNL     1      29.165  38.840  50.162  1.00  0.00     0.041 A 
ENDBRANCH   1  37
TORSDOF 6
ENDMDL
MODEL 8
REMARK VINA RESULT:      -9.5      1.859      2.414
REMARK  6 active torsions:
REMARK  status: ('A' for Active; 'I' for Inactive)
REMARK    1  A    between atoms: C_4  and  C_5 
REMARK    2  A    between atoms: N_7  and  C_8 
REMARK    3  A    between atoms: C_19  and  N_20 
REMARK       I    between atoms: N_20  and  C_21 
REMARK    4  A    between atoms: C_21  and  C_22 
REMARK    5  A    between atoms: C_25  and  S_26 
REMARK    6  A    between atoms: S_26  and  N_27 
ROOT
HETATM    1  C   UNL     1      26.401  39.868  48.759  1.00  0.00     0.115 A 
HETATM    2  N   UNL     1      26.824  40.297  49.954  1.00  0.00    -0.148 NA
HETATM    3  N   UNL     1      26.395  41.596  50.009  1.00  0.00    -0.044 N 
HETATM    4  C   UNL     1      25.692  41.971  48.873  1.00  0.00     0.152 A 
HETATM    5  C   UNL     1      25.714  40.868  48.046  1.00  0.00     0.087 A 
ENDROOT
BRANCH   4   6
HETATM    6  N   UNL     1      25.110  43.225  48.720  1.00  0.00    -0.307 N 
HETATM    7  C   UNL     1      23.755  43.434  48.897  1.00  0.00     0.257 C 
HETATM    8  O   UNL     1      22.900  42.561  49.000  1.00  0.00    -0.267 OA
HETATM    9  H   UNL     1      25.713  43.990  48.421  1.00  0.00     0.170 HD
BRANCH   7  10
HETATM   10  C   UNL     1      23.316  44.856  48.953  1.00  0.00     0.032 A 
HETATM   11  C   UNL     1      22.202  45.308  48.230  1.00  0.00     0.018 A 
HETATM   12  C   UNL     1      21.920  46.677  48.170  1.00  0.00     0.026 A 
HETATM   13  C   UNL     1      22.748  47.587  48.837  1.00  0.00     0.079 A 
HETATM   14  C   UNL     1      23.845  47.142  49.580  1.00  0.00     0.026 A 
HETATM   15  C   UNL     1      24.127  45.775  49.634  1.00  0.00     0.018 A 
BRANCH  13  16
HETATM   16  S   UNL     1      22.496  49.332  48.590  1.00  0.00     0.260 S 
HETATM   17  O   UNL     1      22.834  50.016  49.820  1.00  0.00    -0.200 OA
HETATM   18  O   UNL     1      23.155  49.671  47.346  1.00  0.00    -0.200 OA
BRANCH  16  19
HETATM   19  N   UNL     1      20.813  49.457  48.351  1.00  0.00    -0.307 N 
HETATM   20  C   UNL     1      19.922  49.180  49.506  1.00  0.00     0.135 C 
HETATM   21  C   UNL     1      19.745  50.399  50.408  1.00  0.00     0.021 C 
HETATM   22  C   UNL     1      19.332  51.639  49.622  1.00  0.00     0.003 C 
HETATM   23  C   UNL     1      20.270  51.881  48.445  1.00  0.00     0.021 C 
HETATM   24  C   UNL     1      20.370  50.639  47.567  1.00  0.00     0.135 C 
ENDBRANCH  16  19
ENDBRANCH  13  16
ENDBRANCH   7  10
ENDBRANCH   4   6
BRANCH   3  25
HETATM   25  C   UNL     1      26.715  42.377  51.136  1.00  0.00     0.732 A 
HETATM   26  N   UNL     1      27.907  42.455  51.642  1.00  0.00    -0.067 NA
HETATM   27  C   UNL     1      28.032  43.236  52.772  1.00  0.00     0.065 A 
HETATM   28  C   UNL     1      27.014  43.905  53.350  1.00  0.00     0.036 A 
HETATM   29  C   UNL     1      29.426  43.292  53.357  1.00  0.00     0.060 C 
HETATM   30  C   UNL     1      27.132  44.718  54.606  1.00  0.00     0.046 C 
HETATM   31  C   UNL     1      25.674  43.816  52.721  1.00  0.00     0.268 A 
HETATM   32  C   UNL     1      28.437  44.457  55.359  1.00  0.00     0.005 C 
HETATM   33  C   UNL     1      29.618  44.399  54.397  1.00  0.00     0.006 C 
HETATM   34  O   UNL     1      24.699  44.410  53.164  1.00  0.00    -0.267 OA
HETATM   35  N   UNL     1      25.613  43.022  51.622  1.00  0.00    -0.152 N 
HETATM   36  H   UNL     1      24.721  42.902  51.150  1.00  0.00     0.188 HD
ENDBRANCH   3  25
BRANCH   1  37
HETATM   37  C   UNL     1      26.630  38.477  48.268  1.00  0.00     0.105 A 
HETATM   38  O   UNL     1      26.855  38.148  46.959  1.00  0.00    -0.320 OA
HETATM   39  C   UNL     1      27.007  36.801  46.900  1.00  0.00     0.142 A 
HETATM   40  C   UNL     1      26.883  36.247  48.151  1.00  0.00     0.027 A 
HETATM   41  C   UNL     1      26.641  37.327  49.035  1.00  0.00     0.041 A 
ENDBRANCH   1  37
TORSDOF 6
ENDMDL
MODEL 9
REMARK VINA RESULT:      -9.2      3.477     10.645
REMARK  6 active torsions:
REMARK  status: ('A' for Active; 'I' for Inactive)
REMARK    1  A    between atoms: C_4  and  C_5 
REMARK    2  A    between atoms: N_7  and  C_8 
REMARK    3  A    between atoms: C_19  and  N_20 
REMARK       I    between atoms: N_20  and  C_21 
REMARK    4  A    between atoms: C_21  and  C_22 
REMARK    5  A    between atoms: C_25  and  S_26 
REMARK    6  A    between atoms: S_26  and  N_27 
ROOT
HETATM    1  C   UNL     1      20.868  49.166  48.244  1.00  0.00     0.115 A 
HETATM    2  N   UNL     1      20.778  48.123  47.410  1.00  0.00    -0.148 NA
HETATM    3  N   UNL     1      21.753  47.267  47.847  1.00  0.00    -0.044 N 
HETATM    4  C   UNL     1      22.432  47.756  48.954  1.00  0.00     0.152 A 
HETATM    5  C   UNL     1      21.886  48.996  49.202  1.00  0.00     0.087 A 
ENDROOT
BRANCH   4   6
HETATM    6  N   UNL     1      23.429  47.040  49.609  1.00  0.00    -0.307 N 
HETATM    7  C   UNL     1      24.644  47.608  49.942  1.00  0.00     0.257 C 
HETATM    8  O   UNL     1      25.066  48.689  49.545  1.00  0.00    -0.267 OA
HETATM    9  H   UNL     1      23.254  46.053  49.797  1.00  0.00     0.170 HD
BRANCH   7  10
HETATM   10  C   UNL     1      25.508  46.812  50.857  1.00  0.00     0.032 A 
HETATM   11  C   UNL     1      26.071  45.591  50.457  1.00  0.00     0.018 A 
HETATM   12  C   UNL     1      26.733  44.789  51.392  1.00  0.00     0.026 A 
HETATM   13  C   UNL     1      26.835  45.212  52.722  1.00  0.00     0.079 A 
HETATM   14  C   UNL     1      26.298  46.438  53.124  1.00  0.00     0.026 A 
HETATM   15  C   UNL     1      25.633  47.235  52.189  1.00  0.00     0.018 A 
BRANCH  13  16
HETATM   16  S   UNL     1      27.502  44.097  53.939  1.00  0.00     0.260 S 
HETATM   17  O   UNL     1      26.845  44.362  55.201  1.00  0.00    -0.200 OA
HETATM   18  O   UNL     1      27.470  42.776  53.348  1.00  0.00    -0.200 OA
BRANCH  16  19
HETATM   19  N   UNL     1      29.130  44.582  54.068  1.00  0.00    -0.307 N 
HETATM   20  C   UNL     1      29.463  45.663  55.030  1.00  0.00     0.135 C 
HETATM   21  C   UNL     1      29.651  45.139  56.451  1.00  0.00     0.021 C 
HETATM   22  C   UNL     1      30.631  43.971  56.506  1.00  0.00     0.003 C 
HETATM   23  C   UNL     1      30.255  42.889  55.500  1.00  0.00     0.021 C 
HETATM   24  C   UNL     1      30.121  43.474  54.099  1.00  0.00     0.135 C 
ENDBRANCH  16  19
ENDBRANCH  13  16
ENDBRANCH   7  10
ENDBRANCH   4   6
BRANCH   3  25
HETATM   25  C   UNL     1      21.969  46.061  47.151  1.00  0.00     0.732 A 
HETATM   26  N   UNL     1      22.178  45.996  45.873  1.00  0.00    -0.067 NA
HETATM   27  C   UNL     1      22.329  44.728  45.351  1.00  0.00     0.065 A 
HETATM   28  C   UNL     1      22.281  43.595  46.081  1.00  0.00     0.036 A 
HETATM   29  C   UNL     1      22.549  44.677  43.855  1.00  0.00     0.060 C 
HETATM   30  C   UNL     1      22.397  42.210  45.514  1.00  0.00     0.046 C 
HETATM   31  C   UNL     1      22.073  43.716  47.544  1.00  0.00     0.268 A 
HETATM   32  C   UNL     1      22.248  42.180  43.992  1.00  0.00     0.005 C 
HETATM   33  C   UNL     1      23.032  43.316  43.346  1.00  0.00     0.006 C 
HETATM   34  O   UNL     1      22.040  42.742  48.286  1.00  0.00    -0.267 OA
HETATM   35  N   UNL     1      21.917  44.987  47.994  1.00  0.00    -0.152 N 
HETATM   36  H   UNL     1      21.754  45.142  48.984  1.00  0.00     0.188 HD
ENDBRANCH   3  25
BRANCH   1  37
HETATM   37  C   UNL     1      19.971  50.356  48.157  1.00  0.00     0.105 A 
HETATM   38  O   UNL     1      18.879  50.441  47.337  1.00  0.00    -0.320 OA
HETATM   39  C   UNL     1      18.325  51.665  47.526  1.00  0.00     0.142 A 
HETATM   40  C   UNL     1      19.040  52.379  48.457  1.00  0.00     0.027 A 
HETATM   41  C   UNL     1      20.102  51.535  48.865  1.00  0.00     0.041 A 
ENDBRANCH   1  37
TORSDOF 6
ENDMDL
MODEL 10
REMARK VINA RESULT:      -9.2      1.711      2.256
REMARK  6 active torsions:
REMARK  status: ('A' for Active; 'I' for Inactive)
REMARK    1  A    between atoms: C_4  and  C_5 
REMARK    2  A    between atoms: N_7  and  C_8 
REMARK    3  A    between atoms: C_19  and  N_20 
REMARK       I    between atoms: N_20  and  C_21 
REMARK    4  A    between atoms: C_21  and  C_22 
REMARK    5  A    between atoms: C_25  and  S_26 
REMARK    6  A    between atoms: S_26  and  N_27 
ROOT
HETATM    1  C   UNL     1      26.857  41.220  50.053  1.00  0.00     0.115 A 
HETATM    2  N   UNL     1      27.156  42.025  51.079  1.00  0.00    -0.148 NA
HETATM    3  N   UNL     1      26.414  43.151  50.841  1.00  0.00    -0.044 N 
HETATM    4  C   UNL     1      25.642  43.045  49.693  1.00  0.00     0.152 A 
HETATM    5  C   UNL     1      25.942  41.811  49.160  1.00  0.00     0.087 A 
ENDROOT
BRANCH   4   6
HETATM    6  N   UNL     1      24.764  44.040  49.275  1.00  0.00    -0.307 N 
HETATM    7  C   UNL     1      23.397  43.841  49.222  1.00  0.00     0.257 C 
HETATM    8  O   UNL     1      22.823  42.763  49.329  1.00  0.00    -0.267 OA
HETATM    9  H   UNL     1      25.168  44.920  48.956  1.00  0.00     0.170 HD
BRANCH   7  10
HETATM   10  C   UNL     1      22.569  45.059  49.004  1.00  0.00     0.032 A 
HETATM   11  C   UNL     1      21.200  44.971  48.707  1.00  0.00     0.018 A 
HETATM   12  C   UNL     1      20.492  46.120  48.341  1.00  0.00     0.026 A 
HETATM   13  C   UNL     1      21.152  47.353  48.279  1.00  0.00     0.079 A 
HETATM   14  C   UNL     1      22.508  47.453  48.598  1.00  0.00     0.026 A 
HETATM   15  C   UNL     1      23.215  46.303  48.958  1.00  0.00     0.018 A 
BRANCH  13  16
HETATM   16  S   UNL     1      20.290  48.766  47.623  1.00  0.00     0.260 S 
HETATM   17  O   UNL     1      21.240  49.849  47.484  1.00  0.00    -0.200 OA
HETATM   18  O   UNL     1      19.531  48.293  46.484  1.00  0.00    -0.200 OA
BRANCH  16  19
HETATM   19  N   UNL     1      19.193  49.169  48.862  1.00  0.00    -0.307 N 
HETATM   20  C   UNL     1      19.741  49.713  50.131  1.00  0.00     0.135 C 
HETATM   21  C   UNL     1      19.997  51.215  50.057  1.00  0.00     0.021 C 
HETATM   22  C   UNL     1      18.774  51.981  49.562  1.00  0.00     0.003 C 
HETATM   23  C   UNL     1      18.242  51.387  48.262  1.00  0.00     0.021 C 
HETATM   24  C   UNL     1      17.973  49.895  48.418  1.00  0.00     0.135 C 
ENDBRANCH  16  19
ENDBRANCH  13  16
ENDBRANCH   7  10
ENDBRANCH   4   6
BRANCH   3  25
HETATM   25  C   UNL     1      26.525  44.244  51.723  1.00  0.00     0.732 A 
HETATM   26  N   UNL     1      27.271  44.239  52.784  1.00  0.00    -0.067 NA
HETATM   27  C   UNL     1      27.228  45.382  53.556  1.00  0.00     0.065 A 
HETATM   28  C   UNL     1      26.482  46.467  53.266  1.00  0.00     0.036 A 
HETATM   29  C   UNL     1      28.088  45.342  54.799  1.00  0.00     0.060 C 
HETATM   30  C   UNL     1      26.393  47.694  54.126  1.00  0.00     0.046 C 
HETATM   31  C   UNL     1      25.668  46.444  52.027  1.00  0.00     0.268 A 
HETATM   32  C   UNL     1      26.969  47.478  55.526  1.00  0.00     0.005 C 
HETATM   33  C   UNL     1      28.283  46.709  55.462  1.00  0.00     0.006 C 
HETATM   34  O   UNL     1      24.981  47.394  51.674  1.00  0.00    -0.267 OA
HETATM   35  N   UNL     1      25.743  45.288  51.319  1.00  0.00    -0.152 N 
HETATM   36  H   UNL     1      25.197  45.198  50.467  1.00  0.00     0.188 HD
ENDBRANCH   3  25
BRANCH   1  37
HETATM   37  C   UNL     1      27.429  39.849  49.902  1.00  0.00     0.105 A 
HETATM   38  O   UNL     1      28.722  39.515  50.199  1.00  0.00    -0.320 OA
HETATM   39  C   UNL     1      28.873  38.195  49.926  1.00  0.00     0.142 A 
HETATM   40  C   UNL     1      27.697  37.663  49.456  1.00  0.00     0.027 A 
HETATM   41  C   UNL     1      26.764  38.729  49.440  1.00  0.00     0.041 A 
ENDBRANCH   1  37
TORSDOF 6
ENDMDL
