MODEL 1
REMARK VINA RESULT:      -9.8      0.000      0.000
REMARK  5 active torsions:
REMARK  status: ('A' for Active; 'I' for Inactive)
REMARK    1  A    between atoms: C_2  and  N_3 
REMARK    2  A    between atoms: C_2  and  C_16 
REMARK    3  A    between atoms: N_3  and  C_6 
REMARK    4  A    between atoms: C_6  and  C_7 
REMARK    5  A    between atoms: C_19  and  C_20 
ROOT
HETATM    1  C   UNL     1      25.961  44.650  51.420  1.00  0.00     0.049 C 
HETATM    2  C   UNL     1      25.565  45.606  52.541  1.00  0.00     0.260 C 
ENDROOT
BRANCH   2   3
HETATM    3  N   UNL     1      25.181  46.939  51.948  1.00  0.00    -0.060 N 
HETATM    4  H   UNL     1      24.412  47.322  52.524  1.00  0.00     0.278 HD
HETATM    5  H   UNL     1      25.945  47.614  52.087  1.00  0.00     0.278 HD
BRANCH   3   6
HETATM    6  C   UNL     1      24.719  46.955  50.536  1.00  0.00     0.274 C 
BRANCH   6   7
HETATM    7  C   UNL     1      25.393  48.029  49.742  1.00  0.00     0.004 A 
HETATM    8  C   UNL     1      24.662  48.894  48.942  1.00  0.00     0.113 A 
HETATM    9  C   UNL     1      25.255  49.875  48.184  1.00  0.00     0.105 A 
HETATM   10  O   UNL     1      23.303  48.900  48.826  1.00  0.00    -0.322 OA
HETATM   11  O   UNL     1      24.353  50.606  47.482  1.00  0.00    -0.323 OA
HETATM   12  C   UNL     1      26.620  50.058  48.180  1.00  0.00     0.040 A 
HETATM   13  C   UNL     1      23.123  49.950  47.836  1.00  0.00     0.352 A 
HETATM   14  C   UNL     1      27.392  49.206  48.972  1.00  0.00     0.003 A 
HETATM   15  C   UNL     1      26.787  48.196  49.745  1.00  0.00     0.012 A 
ENDBRANCH   6   7
ENDBRANCH   3   6
ENDBRANCH   2   3
BRANCH   2  16
HETATM   16  C   UNL     1      26.691  45.776  53.505  1.00  0.00     0.203 A 
HETATM   17  O   UNL     1      26.935  47.026  53.974  1.00  0.00    -0.194 OA
HETATM   18  N   UNL     1      28.001  46.910  54.856  1.00  0.00    -0.106 NA
HETATM   19  C   UNL     1      28.311  45.602  54.834  1.00  0.00     0.189 A 
HETATM   20  N   UNL     1      27.511  44.862  53.977  1.00  0.00    -0.202 NA
BRANCH  19  21
HETATM   21  C   UNL     1      29.374  45.001  55.631  1.00  0.00     0.017 A 
HETATM   22  C   UNL     1      29.755  45.578  56.849  1.00  0.00     0.057 A 
HETATM   23  C   UNL     1      30.774  45.003  57.602  1.00  0.00     0.117 A 
HETATM   24  F   UNL     1      31.123  45.567  58.765  1.00  0.00    -0.206 F 
HETATM   25  C   UNL     1      31.432  43.859  57.170  1.00  0.00     0.042 A 
HETATM   26  C   UNL     1      31.064  43.275  55.961  1.00  0.00     0.004 A 
HETATM   27  C   UNL     1      30.040  43.843  55.196  1.00  0.00     0.016 A 
ENDBRANCH  19  21
ENDBRANCH   2  16
TORSDOF 5
ENDMDL
MODEL 2
REMARK VINA RESULT:      -9.8      1.408      1.841
REMARK  5 active torsions:
REMARK  status: ('A' for Active; 'I' for Inactive)
REMARK    1  A    between atoms: C_2  and  N_3 
REMARK    2  A    between atoms: C_2  and  C_16 
REMARK    3  A    between atoms: N_3  and  C_6 
REMARK    4  A    between atoms: C_6  and  C_7 
REMARK    5  A    between atoms: C_19  and  C_20 
ROOT
HETATM    1  C   UNL     1      26.657  44.394  50.106  1.00  0.00     0.049 C 
HETATM    2  C   UNL     1      26.344  44.757  51.555  1.00  0.00     0.260 C 
ENDROOT
BRANCH   2   3
HETATM    3  N   UNL     1      26.031  46.231  51.643  1.00  0.00    -0.060 N 
HETATM    4  H   UNL     1      25.729  46.424  52.612  1.00  0.00     0.278 HD
HETATM    5  H   UNL     1      26.899  46.775  51.548  1.00  0.00     0.278 HD
BRANCH   3   6
HETATM    6  C   UNL     1      24.978  46.765  50.742  1.00  0.00     0.274 C 
BRANCH   6   7
HETATM    7  C   UNL     1      25.498  47.860  49.864  1.00  0.00     0.004 A 
HETATM    8  C   UNL     1      24.644  48.595  49.057  1.00  0.00     0.113 A 
HETATM    9  C   UNL     1      25.095  49.591  48.224  1.00  0.00     0.105 A 
HETATM   10  O   UNL     1      23.289  48.448  49.002  1.00  0.00    -0.322 OA
HETATM   11  O   UNL     1      24.091  50.181  47.527  1.00  0.00    -0.323 OA
HETATM   12  C   UNL     1      26.430  49.920  48.148  1.00  0.00     0.040 A 
HETATM   13  C   UNL     1      22.955  49.416  47.969  1.00  0.00     0.352 A 
HETATM   14  C   UNL     1      27.322  49.201  48.946  1.00  0.00     0.003 A 
HETATM   15  C   UNL     1      26.863  48.177  49.796  1.00  0.00     0.012 A 
ENDBRANCH   6   7
ENDBRANCH   3   6
ENDBRANCH   2   3
BRANCH   2  16
HETATM   16  C   UNL     1      27.497  44.421  52.440  1.00  0.00     0.203 A 
HETATM   17  O   UNL     1      28.439  43.574  51.952  1.00  0.00    -0.194 OA
HETATM   18  N   UNL     1      29.398  43.445  52.947  1.00  0.00    -0.106 NA
HETATM   19  C   UNL     1      28.945  44.217  53.949  1.00  0.00     0.189 A 
HETATM   20  N   UNL     1      27.737  44.835  53.665  1.00  0.00    -0.202 NA
BRANCH  19  21
HETATM   21  C   UNL     1      29.644  44.407  55.216  1.00  0.00     0.017 A 
HETATM   22  C   UNL     1      30.646  43.511  55.608  1.00  0.00     0.057 A 
HETATM   23  C   UNL     1      31.306  43.693  56.820  1.00  0.00     0.117 A 
HETATM   24  F   UNL     1      32.263  42.828  57.179  1.00  0.00    -0.206 F 
HETATM   25  C   UNL     1      30.990  44.753  57.660  1.00  0.00     0.042 A 
HETATM   26  C   UNL     1      29.995  45.651  57.283  1.00  0.00     0.004 A 
HETATM   27  C   UNL     1      29.326  45.480  56.066  1.00  0.00     0.016 A 
ENDBRANCH  19  21
ENDBRANCH   2  16
TORSDOF 5
ENDMDL
MODEL 3
REMARK VINA RESULT:      -9.5      1.079      1.828
REMARK  5 active torsions:
REMARK  status: ('A' for Active; 'I' for Inactive)
REMARK    1  A    between atoms: C_2  and  N_3 
REMARK    2  A    between atoms: C_2  and  C_16 
REMARK    3  A    between atoms: N_3  and  C_6 
REMARK    4  A    between atoms: C_6  and  C_7 
REMARK    5  A    between atoms: C_19  and  C_20 
ROOT
HETATM    1  C   UNL     1      25.633  44.314  51.611  1.00  0.00     0.049 C 
HETATM    2  C   UNL     1      25.386  45.514  52.520  1.00  0.00     0.260 C 
ENDROOT
BRANCH   2   3
HETATM    3  N   UNL     1      25.172  46.745  51.672  1.00  0.00    -0.060 N 
HETATM    4  H   UNL     1      24.624  47.416  52.237  1.00  0.00     0.278 HD
HETATM    5  H   UNL     1      26.069  47.227  51.529  1.00  0.00     0.278 HD
BRANCH   3   6
HETATM    6  C   UNL     1      24.457  46.575  50.381  1.00  0.00     0.274 C 
BRANCH   6   7
HETATM    7  C   UNL     1      24.488  47.823  49.558  1.00  0.00     0.004 A 
HETATM    8  C   UNL     1      25.684  48.466  49.279  1.00  0.00     0.113 A 
HETATM    9  C   UNL     1      25.741  49.627  48.545  1.00  0.00     0.105 A 
HETATM   10  O   UNL     1      26.919  48.034  49.663  1.00  0.00    -0.322 OA
HETATM   11  O   UNL     1      27.010  50.082  48.391  1.00  0.00    -0.323 OA
HETATM   12  C   UNL     1      24.605  50.217  48.037  1.00  0.00     0.040 A 
HETATM   13  C   UNL     1      27.752  49.113  49.152  1.00  0.00     0.352 A 
HETATM   14  C   UNL     1      23.381  49.599  48.297  1.00  0.00     0.003 A 
HETATM   15  C   UNL     1      23.319  48.413  49.054  1.00  0.00     0.012 A 
ENDBRANCH   6   7
ENDBRANCH   3   6
ENDBRANCH   2   3
BRANCH   2  16
HETATM   16  C   UNL     1      26.540  45.719  53.443  1.00  0.00     0.203 A 
HETATM   17  O   UNL     1      26.811  46.987  53.841  1.00  0.00    -0.194 OA
HETATM   18  N   UNL     1      27.899  46.902  54.698  1.00  0.00    -0.106 NA
HETATM   19  C   UNL     1      28.194  45.591  54.734  1.00  0.00     0.189 A 
HETATM   20  N   UNL     1      27.361  44.819  53.938  1.00  0.00    -0.202 NA
BRANCH  19  21
HETATM   21  C   UNL     1      29.272  45.016  55.531  1.00  0.00     0.017 A 
HETATM   22  C   UNL     1      29.677  45.637  56.720  1.00  0.00     0.057 A 
HETATM   23  C   UNL     1      30.710  45.088  57.474  1.00  0.00     0.117 A 
HETATM   24  F   UNL     1      31.082  45.693  58.608  1.00  0.00    -0.206 F 
HETATM   25  C   UNL     1      31.358  43.927  57.070  1.00  0.00     0.042 A 
HETATM   26  C   UNL     1      30.966  43.301  55.890  1.00  0.00     0.004 A 
HETATM   27  C   UNL     1      29.927  43.842  55.125  1.00  0.00     0.016 A 
ENDBRANCH  19  21
ENDBRANCH   2  16
TORSDOF 5
ENDMDL
MODEL 4
REMARK VINA RESULT:      -9.3      2.283      2.911
REMARK  5 active torsions:
REMARK  status: ('A' for Active; 'I' for Inactive)
REMARK    1  A    between atoms: C_2  and  N_3 
REMARK    2  A    between atoms: C_2  and  C_16 
REMARK    3  A    between atoms: N_3  and  C_6 
REMARK    4  A    between atoms: C_6  and  C_7 
REMARK    5  A    between atoms: C_19  and  C_20 
ROOT
HETATM    1  C   UNL     1      23.786  44.278  48.424  1.00  0.00     0.049 C 
HETATM    2  C   UNL     1      23.986  44.750  49.861  1.00  0.00     0.260 C 
ENDROOT
BRANCH   2   3
HETATM    3  N   UNL     1      23.679  46.226  49.948  1.00  0.00    -0.060 N 
HETATM    4  H   UNL     1      23.642  46.589  48.981  1.00  0.00     0.278 HD
HETATM    5  H   UNL     1      22.719  46.360  50.292  1.00  0.00     0.278 HD
BRANCH   3   6
HETATM    6  C   UNL     1      24.630  47.082  50.702  1.00  0.00     0.274 C 
BRANCH   6   7
HETATM    7  C   UNL     1      25.300  48.083  49.816  1.00  0.00     0.004 A 
HETATM    8  C   UNL     1      24.565  48.881  48.953  1.00  0.00     0.113 A 
HETATM    9  C   UNL     1      25.155  49.793  48.111  1.00  0.00     0.105 A 
HETATM   10  O   UNL     1      23.205  48.882  48.847  1.00  0.00    -0.322 OA
HETATM   11  O   UNL     1      24.249  50.466  47.357  1.00  0.00    -0.323 OA
HETATM   12  C   UNL     1      26.520  49.971  48.082  1.00  0.00     0.040 A 
HETATM   13  C   UNL     1      23.020  49.846  47.774  1.00  0.00     0.352 A 
HETATM   14  C   UNL     1      27.296  49.186  48.936  1.00  0.00     0.003 A 
HETATM   15  C   UNL     1      26.695  48.246  49.795  1.00  0.00     0.012 A 
ENDBRANCH   6   7
ENDBRANCH   3   6
ENDBRANCH   2   3
BRANCH   2  16
HETATM   16  C   UNL     1      25.384  44.487  50.308  1.00  0.00     0.203 A 
HETATM   17  O   UNL     1      26.359  44.492  49.364  1.00  0.00    -0.194 OA
HETATM   18  N   UNL     1      27.550  44.248  50.034  1.00  0.00    -0.106 NA
HETATM   19  C   UNL     1      27.187  44.108  51.320  1.00  0.00     0.189 A 
HETATM   20  N   UNL     1      25.822  44.239  51.523  1.00  0.00    -0.202 NA
BRANCH  19  21
HETATM   21  C   UNL     1      28.122  43.854  52.411  1.00  0.00     0.017 A 
HETATM   22  C   UNL     1      27.992  44.539  53.625  1.00  0.00     0.057 A 
HETATM   23  C   UNL     1      28.890  44.297  54.660  1.00  0.00     0.117 A 
HETATM   24  F   UNL     1      28.749  44.959  55.815  1.00  0.00    -0.206 F 
HETATM   25  C   UNL     1      29.927  43.383  54.515  1.00  0.00     0.042 A 
HETATM   26  C   UNL     1      30.068  42.696  53.313  1.00  0.00     0.004 A 
HETATM   27  C   UNL     1      29.170  42.929  52.266  1.00  0.00     0.016 A 
ENDBRANCH  19  21
ENDBRANCH   2  16
TORSDOF 5
ENDMDL
MODEL 5
REMARK VINA RESULT:      -9.1      3.239      5.302
REMARK  5 active torsions:
REMARK  status: ('A' for Active; 'I' for Inactive)
REMARK    1  A    between atoms: C_2  and  N_3 
REMARK    2  A    between atoms: C_2  and  C_16 
REMARK    3  A    between atoms: N_3  and  C_6 
REMARK    4  A    between atoms: C_6  and  C_7 
REMARK    5  A    between atoms: C_19  and  C_20 
ROOT
HETATM    1  C   UNL     1      24.476  49.122  48.935  1.00  0.00     0.049 C 
HETATM    2  C   UNL     1      23.892  47.725  49.129  1.00  0.00     0.260 C 
ENDROOT
BRANCH   2   3
HETATM    3  N   UNL     1      22.391  47.826  49.257  1.00  0.00    -0.060 N 
HETATM    4  H   UNL     1      22.028  46.865  49.373  1.00  0.00     0.278 HD
HETATM    5  H   UNL     1      22.150  48.284  50.146  1.00  0.00     0.278 HD
BRANCH   3   6
HETATM    6  C   UNL     1      21.645  48.443  48.131  1.00  0.00     0.274 C 
BRANCH   6   7
HETATM    7  C   UNL     1      20.803  49.593  48.584  1.00  0.00     0.004 A 
HETATM    8  C   UNL     1      19.808  49.420  49.534  1.00  0.00     0.113 A 
HETATM    9  C   UNL     1      19.004  50.453  49.953  1.00  0.00     0.105 A 
HETATM   10  O   UNL     1      19.522  48.249  50.171  1.00  0.00    -0.322 OA
HETATM   11  O   UNL     1      18.100  50.062  50.887  1.00  0.00    -0.323 OA
HETATM   12  C   UNL     1      19.146  51.728  49.453  1.00  0.00     0.040 A 
HETATM   13  C   UNL     1      18.383  48.655  50.980  1.00  0.00     0.352 A 
HETATM   14  C   UNL     1      20.138  51.943  48.494  1.00  0.00     0.003 A 
HETATM   15  C   UNL     1      20.959  50.886  48.058  1.00  0.00     0.012 A 
ENDBRANCH   6   7
ENDBRANCH   3   6
ENDBRANCH   2   3
BRANCH   2  16
HETATM   16  C   UNL     1      24.471  47.079  50.342  1.00  0.00     0.203 A 
HETATM   17  O   UNL     1      24.301  45.740  50.484  1.00  0.00    -0.194 OA
HETATM   18  N   UNL     1      24.942  45.390  51.664  1.00  0.00    -0.106 NA
HETATM   19  C   UNL     1      25.434  46.549  52.134  1.00  0.00     0.189 A 
HETATM   20  N   UNL     1      25.139  47.638  51.328  1.00  0.00    -0.202 NA
BRANCH  19  21
HETATM   21  C   UNL     1      26.212  46.670  53.362  1.00  0.00     0.017 A 
HETATM   22  C   UNL     1      25.993  47.746  54.231  1.00  0.00     0.057 A 
HETATM   23  C   UNL     1      26.742  47.859  55.399  1.00  0.00     0.117 A 
HETATM   24  F   UNL     1      26.518  48.894  56.219  1.00  0.00    -0.206 F 
HETATM   25  C   UNL     1      27.713  46.922  55.727  1.00  0.00     0.042 A 
HETATM   26  C   UNL     1      27.941  45.847  54.871  1.00  0.00     0.004 A 
HETATM   27  C   UNL     1      27.193  45.721  53.696  1.00  0.00     0.016 A 
ENDBRANCH  19  21
ENDBRANCH   2  16
TORSDOF 5
ENDMDL
MODEL 6
REMARK VINA RESULT:      -9.1      2.541      4.028
REMARK  5 active torsions:
REMARK  status: ('A' for Active; 'I' for Inactive)
REMARK    1  A    between atoms: C_2  and  N_3 
REMARK    2  A    between atoms: C_2  and  C_16 
REMARK    3  A    between atoms: N_3  and  C_6 
REMARK    4  A    between atoms: C_6  and  C_7 
REMARK    5  A    between atoms: C_19  and  C_20 
ROOT
HETATM    1  C   UNL     1      26.869  42.805  49.646  1.00  0.00     0.049 C 
HETATM    2  C   UNL     1      26.601  41.956  50.884  1.00  0.00     0.260 C 
ENDROOT
BRANCH   2   3
HETATM    3  N   UNL     1      25.258  42.330  51.464  1.00  0.00    -0.060 N 
HETATM    4  H   UNL     1      24.606  41.556  51.253  1.00  0.00     0.278 HD
HETATM    5  H   UNL     1      25.311  42.326  52.491  1.00  0.00     0.278 HD
BRANCH   3   6
HETATM    6  C   UNL     1      24.624  43.582  50.977  1.00  0.00     0.274 C 
BRANCH   6   7
HETATM    7  C   UNL     1      25.075  44.775  51.758  1.00  0.00     0.004 A 
HETATM    8  C   UNL     1      25.520  45.922  51.119  1.00  0.00     0.113 A 
HETATM    9  C   UNL     1      25.961  47.025  51.809  1.00  0.00     0.105 A 
HETATM   10  O   UNL     1      25.554  46.108  49.768  1.00  0.00    -0.322 OA
HETATM   11  O   UNL     1      26.347  48.033  50.987  1.00  0.00    -0.323 OA
HETATM   12  C   UNL     1      25.982  47.055  53.186  1.00  0.00     0.040 A 
HETATM   13  C   UNL     1      26.151  47.433  49.695  1.00  0.00     0.352 A 
HETATM   14  C   UNL     1      25.542  45.918  53.867  1.00  0.00     0.003 A 
HETATM   15  C   UNL     1      25.094  44.784  53.162  1.00  0.00     0.012 A 
ENDBRANCH   6   7
ENDBRANCH   3   6
ENDBRANCH   2   3
BRANCH   2  16
HETATM   16  C   UNL     1      27.675  42.158  51.900  1.00  0.00     0.203 A 
HETATM   17  O   UNL     1      28.716  41.287  51.897  1.00  0.00    -0.194 OA
HETATM   18  N   UNL     1      29.573  41.702  52.908  1.00  0.00    -0.106 NA
HETATM   19  C   UNL     1      28.968  42.779  53.436  1.00  0.00     0.189 A 
HETATM   20  N   UNL     1      27.758  43.083  52.831  1.00  0.00    -0.202 NA
BRANCH  19  21
HETATM   21  C   UNL     1      29.517  43.569  54.532  1.00  0.00     0.017 A 
HETATM   22  C   UNL     1      30.624  43.102  55.252  1.00  0.00     0.057 A 
HETATM   23  C   UNL     1      31.141  43.857  56.301  1.00  0.00     0.117 A 
HETATM   24  F   UNL     1      32.201  43.397  56.976  1.00  0.00    -0.206 F 
HETATM   25  C   UNL     1      30.577  45.076  56.657  1.00  0.00     0.042 A 
HETATM   26  C   UNL     1      29.476  45.552  55.951  1.00  0.00     0.004 A 
HETATM   27  C   UNL     1      28.949  44.803  54.893  1.00  0.00     0.016 A 
ENDBRANCH  19  21
ENDBRANCH   2  16
TORSDOF 5
ENDMDL
MODEL 7
REMARK VINA RESULT:      -8.5      2.783      3.980
REMARK  5 active torsions:
REMARK  status: ('A' for Active; 'I' for Inactive)
REMARK    1  A    between atoms: C_2  and  N_3 
REMARK    2  A    between atoms: C_2  and  C_16 
REMARK    3  A    between atoms: N_3  and  C_6 
REMARK    4  A    between atoms: C_6  and  C_7 
REMARK    5  A    between atoms: C_19  and  C_20 
ROOT
HETATM    1  C   UNL     1      26.967  41.058  49.754  1.00  0.00     0.049 C 
HETATM    2  C   UNL     1      26.432  41.620  51.068  1.00  0.00     0.260 C 
ENDROOT
BRANCH   2   3
HETATM    3  N   UNL     1      25.578  42.832  50.781  1.00  0.00    -0.060 N 
HETATM    4  H   UNL     1      24.616  42.609  51.085  1.00  0.00     0.278 HD
HETATM    5  H   UNL     1      25.855  43.604  51.400  1.00  0.00     0.278 HD
BRANCH   3   6
HETATM    6  C   UNL     1      25.495  43.295  49.372  1.00  0.00     0.274 C 
BRANCH   6   7
HETATM    7  C   UNL     1      24.718  44.567  49.248  1.00  0.00     0.004 A 
HETATM    8  C   UNL     1      25.069  45.694  49.976  1.00  0.00     0.113 A 
HETATM    9  C   UNL     1      24.360  46.869  49.901  1.00  0.00     0.105 A 
HETATM   10  O   UNL     1      26.141  45.788  50.814  1.00  0.00    -0.322 OA
HETATM   11  O   UNL     1      24.880  47.840  50.693  1.00  0.00    -0.323 OA
HETATM   12  C   UNL     1      23.256  46.995  49.088  1.00  0.00     0.040 A 
HETATM   13  C   UNL     1      25.967  47.140  51.322  1.00  0.00     0.352 A 
HETATM   14  C   UNL     1      22.870  45.882  48.340  1.00  0.00     0.003 A 
HETATM   15  C   UNL     1      23.591  44.675  48.419  1.00  0.00     0.012 A 
ENDBRANCH   6   7
ENDBRANCH   3   6
ENDBRANCH   2   3
BRANCH   2  16
HETATM   16  C   UNL     1      27.556  41.985  51.978  1.00  0.00     0.203 A 
HETATM   17  O   UNL     1      28.720  41.300  51.847  1.00  0.00    -0.194 OA
HETATM   18  N   UNL     1      29.595  41.839  52.780  1.00  0.00    -0.106 NA
HETATM   19  C   UNL     1      28.879  42.794  53.397  1.00  0.00     0.189 A 
HETATM   20  N   UNL     1      27.581  42.900  52.922  1.00  0.00    -0.202 NA
BRANCH  19  21
HETATM   21  C   UNL     1      29.400  43.651  54.456  1.00  0.00     0.017 A 
HETATM   22  C   UNL     1      30.536  43.266  55.179  1.00  0.00     0.057 A 
HETATM   23  C   UNL     1      31.025  44.085  56.192  1.00  0.00     0.117 A 
HETATM   24  F   UNL     1      32.114  43.703  56.872  1.00  0.00    -0.206 F 
HETATM   25  C   UNL     1      30.406  45.287  56.510  1.00  0.00     0.042 A 
HETATM   26  C   UNL     1      29.275  45.682  55.799  1.00  0.00     0.004 A 
HETATM   27  C   UNL     1      28.776  44.868  54.777  1.00  0.00     0.016 A 
ENDBRANCH  19  21
ENDBRANCH   2  16
TORSDOF 5
ENDMDL
MODEL 8
REMARK VINA RESULT:      -8.4      1.818      2.924
REMARK  5 active torsions:
REMARK  status: ('A' for Active; 'I' for Inactive)
REMARK    1  A    between atoms: C_2  and  N_3 
REMARK    2  A    between atoms: C_2  and  C_16 
REMARK    3  A    between atoms: N_3  and  C_6 
REMARK    4  A    between atoms: C_6  and  C_7 
REMARK    5  A    between atoms: C_19  and  C_20 
ROOT
HETATM    1  C   UNL     1      27.493  43.355  50.934  1.00  0.00     0.049 C 
HETATM    2  C   UNL     1      26.618  43.498  52.175  1.00  0.00     0.260 C 
ENDROOT
BRANCH   2   3
HETATM    3  N   UNL     1      25.348  44.228  51.809  1.00  0.00    -0.060 N 
HETATM    4  H   UNL     1      24.622  43.941  52.487  1.00  0.00     0.278 HD
HETATM    5  H   UNL     1      25.463  45.234  51.989  1.00  0.00     0.278 HD
BRANCH   3   6
HETATM    6  C   UNL     1      24.792  44.000  50.450  1.00  0.00     0.274 C 
BRANCH   6   7
HETATM    7  C   UNL     1      24.237  45.256  49.858  1.00  0.00     0.004 A 
HETATM    8  C   UNL     1      24.950  46.444  49.902  1.00  0.00     0.113 A 
HETATM    9  C   UNL     1      24.456  47.618  49.386  1.00  0.00     0.105 A 
HETATM   10  O   UNL     1      26.201  46.593  50.424  1.00  0.00    -0.322 OA
HETATM   11  O   UNL     1      25.320  48.655  49.535  1.00  0.00    -0.323 OA
HETATM   12  C   UNL     1      23.218  47.680  48.787  1.00  0.00     0.040 A 
HETATM   13  C   UNL     1      26.397  48.024  50.249  1.00  0.00     0.352 A 
HETATM   14  C   UNL     1      22.469  46.504  48.724  1.00  0.00     0.003 A 
HETATM   15  C   UNL     1      22.970  45.300  49.256  1.00  0.00     0.012 A 
ENDBRANCH   6   7
ENDBRANCH   3   6
ENDBRANCH   2   3
BRANCH   2  16
HETATM   16  C   UNL     1      27.346  44.237  53.248  1.00  0.00     0.203 A 
HETATM   17  O   UNL     1      27.065  45.555  53.406  1.00  0.00    -0.194 OA
HETATM   18  N   UNL     1      27.847  45.994  54.465  1.00  0.00    -0.106 NA
HETATM   19  C   UNL     1      28.536  44.905  54.846  1.00  0.00     0.189 A 
HETATM   20  N   UNL     1      28.253  43.782  54.084  1.00  0.00    -0.202 NA
BRANCH  19  21
HETATM   21  C   UNL     1      29.487  44.884  55.952  1.00  0.00     0.017 A 
HETATM   22  C   UNL     1      30.509  43.928  55.985  1.00  0.00     0.057 A 
HETATM   23  C   UNL     1      31.409  43.908  57.046  1.00  0.00     0.117 A 
HETATM   24  F   UNL     1      32.382  42.989  57.060  1.00  0.00    -0.206 F 
HETATM   25  C   UNL     1      31.316  44.823  58.087  1.00  0.00     0.042 A 
HETATM   26  C   UNL     1      30.303  45.779  58.068  1.00  0.00     0.004 A 
HETATM   27  C   UNL     1      29.394  45.810  57.005  1.00  0.00     0.016 A 
ENDBRANCH  19  21
ENDBRANCH   2  16
TORSDOF 5
ENDMDL
MODEL 9
REMARK VINA RESULT:      -8.4      3.916      9.376
REMARK  5 active torsions:
REMARK  status: ('A' for Active; 'I' for Inactive)
REMARK    1  A    between atoms: C_2  and  N_3 
REMARK    2  A    between atoms: C_2  and  C_16 
REMARK    3  A    between atoms: N_3  and  C_6 
REMARK    4  A    between atoms: C_6  and  C_7 
REMARK    5  A    between atoms: C_19  and  C_20 
ROOT
HETATM    1  C   UNL     1      25.463  45.292  49.460  1.00  0.00     0.049 C 
HETATM    2  C   UNL     1      25.897  46.620  50.074  1.00  0.00     0.260 C 
ENDROOT
BRANCH   2   3
HETATM    3  N   UNL     1      25.885  46.501  51.579  1.00  0.00    -0.060 N 
HETATM    4  H   UNL     1      26.720  46.998  51.933  1.00  0.00     0.278 HD
HETATM    5  H   UNL     1      25.101  47.044  51.963  1.00  0.00     0.278 HD
BRANCH   3   6
HETATM    6  C   UNL     1      25.910  45.134  52.160  1.00  0.00     0.274 C 
BRANCH   6   7
HETATM    7  C   UNL     1      26.997  44.980  53.175  1.00  0.00     0.004 A 
HETATM    8  C   UNL     1      27.183  45.924  54.174  1.00  0.00     0.113 A 
HETATM    9  C   UNL     1      28.188  45.820  55.106  1.00  0.00     0.105 A 
HETATM   10  O   UNL     1      26.406  47.027  54.369  1.00  0.00    -0.322 OA
HETATM   11  O   UNL     1      28.184  46.850  55.990  1.00  0.00    -0.323 OA
HETATM   12  C   UNL     1      29.069  44.763  55.104  1.00  0.00     0.040 A 
HETATM   13  C   UNL     1      27.099  47.649  55.487  1.00  0.00     0.352 A 
HETATM   14  C   UNL     1      28.916  43.791  54.113  1.00  0.00     0.003 A 
HETATM   15  C   UNL     1      27.891  43.897  53.153  1.00  0.00     0.012 A 
ENDBRANCH   6   7
ENDBRANCH   3   6
ENDBRANCH   2   3
BRANCH   2  16
HETATM   16  C   UNL     1      24.990  47.720  49.637  1.00  0.00     0.203 A 
HETATM   17  O   UNL     1      25.539  48.943  49.428  1.00  0.00    -0.194 OA
HETATM   18  N   UNL     1      24.503  49.769  49.013  1.00  0.00    -0.106 NA
HETATM   19  C   UNL     1      23.420  48.974  49.018  1.00  0.00     0.189 A 
HETATM   20  N   UNL     1      23.693  47.676  49.423  1.00  0.00    -0.202 NA
BRANCH  19  21
HETATM   21  C   UNL     1      22.083  49.410  48.631  1.00  0.00     0.017 A 
HETATM   22  C   UNL     1      21.728  50.762  48.726  1.00  0.00     0.057 A 
HETATM   23  C   UNL     1      20.449  51.172  48.360  1.00  0.00     0.117 A 
HETATM   24  F   UNL     1      20.128  52.468  48.455  1.00  0.00    -0.206 F 
HETATM   25  C   UNL     1      19.505  50.263  47.902  1.00  0.00     0.042 A 
HETATM   26  C   UNL     1      19.844  48.916  47.804  1.00  0.00     0.004 A 
HETATM   27  C   UNL     1      21.127  48.492  48.165  1.00  0.00     0.016 A 
ENDBRANCH  19  21
ENDBRANCH   2  16
TORSDOF 5
ENDMDL
MODEL 10
REMARK VINA RESULT:      -8.3      3.943      9.513
REMARK  5 active torsions:
REMARK  status: ('A' for Active; 'I' for Inactive)
REMARK    1  A    between atoms: C_2  and  N_3 
REMARK    2  A    between atoms: C_2  and  C_16 
REMARK    3  A    between atoms: N_3  and  C_6 
REMARK    4  A    between atoms: C_6  and  C_7 
REMARK    5  A    between atoms: C_19  and  C_20 
ROOT
HETATM    1  C   UNL     1      26.503  45.984  49.728  1.00  0.00     0.049 C 
HETATM    2  C   UNL     1      26.228  47.242  50.546  1.00  0.00     0.260 C 
ENDROOT
BRANCH   2   3
HETATM    3  N   UNL     1      25.676  46.850  51.895  1.00  0.00    -0.060 N 
HETATM    4  H   UNL     1      25.975  47.572  52.571  1.00  0.00     0.278 HD
HETATM    5  H   UNL     1      24.651  46.935  51.888  1.00  0.00     0.278 HD
BRANCH   3   6
HETATM    6  C   UNL     1      26.088  45.534  52.449  1.00  0.00     0.274 C 
BRANCH   6   7
HETATM    7  C   UNL     1      27.087  45.683  53.552  1.00  0.00     0.004 A 
HETATM    8  C   UNL     1      27.958  44.652  53.871  1.00  0.00     0.113 A 
HETATM    9  C   UNL     1      28.871  44.751  54.894  1.00  0.00     0.105 A 
HETATM   10  O   UNL     1      28.036  43.456  53.221  1.00  0.00    -0.322 OA
HETATM   11  O   UNL     1      29.622  43.629  55.030  1.00  0.00    -0.323 OA
HETATM   12  C   UNL     1      28.976  45.890  55.661  1.00  0.00     0.040 A 
HETATM   13  C   UNL     1      29.053  42.784  54.015  1.00  0.00     0.352 A 
HETATM   14  C   UNL     1      28.115  46.950  55.371  1.00  0.00     0.003 A 
HETATM   15  C   UNL     1      27.175  46.849  54.327  1.00  0.00     0.012 A 
ENDBRANCH   6   7
ENDBRANCH   3   6
ENDBRANCH   2   3
BRANCH   2  16
HETATM   16  C   UNL     1      25.263  48.130  49.833  1.00  0.00     0.203 A 
HETATM   17  O   UNL     1      25.742  48.896  48.821  1.00  0.00    -0.194 OA
HETATM   18  N   UNL     1      24.656  49.600  48.318  1.00  0.00    -0.106 NA
HETATM   19  C   UNL     1      23.621  49.202  49.078  1.00  0.00     0.189 A 
HETATM   20  N   UNL     1      23.976  48.285  50.054  1.00  0.00    -0.202 NA
BRANCH  19  21
HETATM   21  C   UNL     1      22.250  49.671  48.902  1.00  0.00     0.017 A 
HETATM   22  C   UNL     1      21.182  48.770  48.984  1.00  0.00     0.057 A 
HETATM   23  C   UNL     1      19.877  49.221  48.810  1.00  0.00     0.117 A 
HETATM   24  F   UNL     1      18.867  48.346  48.895  1.00  0.00    -0.206 F 
HETATM   25  C   UNL     1      19.605  50.559  48.551  1.00  0.00     0.042 A 
HETATM   26  C   UNL     1      20.659  51.465  48.465  1.00  0.00     0.004 A 
HETATM   27  C   UNL     1      21.975  51.024  48.641  1.00  0.00     0.016 A 
ENDBRANCH  19  21
ENDBRANCH   2  16
TORSDOF 5
ENDMDL
