MODEL 1
REMARK VINA RESULT:      -9.6      0.000      0.000
REMARK  10 active torsions:
REMARK  status: ('A' for Active; 'I' for Inactive)
REMARK    1  A    between atoms: C_6  and  N_7 
REMARK    2  A    between atoms: C_6  and  C_29 
REMARK       I    between atoms: N_7  and  C_8 
REMARK    3  A    between atoms: N_7  and  C_23 
REMARK    4  A    between atoms: C_8  and  C_9 
REMARK    5  A    between atoms: C_9  and  N_10 
REMARK    6  A    between atoms: C_14  and  C_15 
REMARK    7  A    between atoms: C_23  and  C_24 
REMARK       I    between atoms: C_29  and  N_30 
REMARK    8  A    between atoms: N_30  and  C_31 
REMARK    9  A    between atoms: C_32  and  O_33 
REMARK   10  A    between atoms: C_36  and  O_37 
ROOT
HETATM    1  N   UNL     1      25.367  45.131  51.205  1.00  0.00    -0.326 N 
HETATM    2  C   UNL     1      25.455  44.761  52.569  1.00  0.00     0.239 C 
HETATM    3  O   UNL     1      25.470  43.579  52.910  1.00  0.00    -0.271 OA
ENDROOT
BRANCH   1   4
HETATM    4  C   UNL     1      24.961  44.075  50.200  1.00  0.00     0.120 C 
HETATM    5  C   UNL     1      23.802  43.197  50.736  1.00  0.00     0.069 C 
HETATM    6  C   UNL     1      23.263  42.185  49.729  1.00  0.00     0.237 C 
HETATM    7  N   UNL     1      22.951  42.843  48.411  1.00  0.00    -0.075 N 
HETATM    8  C   UNL     1      22.430  41.833  47.419  1.00  0.00     0.269 C 
HETATM    9  H   UNL     1      22.186  43.516  48.575  1.00  0.00     0.279 HD
HETATM   10  C   UNL     1      24.112  43.610  47.839  1.00  0.00     0.237 C 
HETATM   11  C   UNL     1      24.542  44.685  48.829  1.00  0.00     0.069 C 
BRANCH   4  12
HETATM   12  C   UNL     1      26.222  43.195  49.883  1.00  0.00     0.251 C 
HETATM   13  N   UNL     1      26.187  41.960  50.492  1.00  0.00    -0.323 N 
HETATM   14  H   UNL     1      25.316  41.666  50.929  1.00  0.00     0.169 HD
HETATM   15  O   UNL     1      27.185  43.674  49.292  1.00  0.00    -0.270 OA
BRANCH  13  16
HETATM   16  C   UNL     1      27.226  41.014  50.631  1.00  0.00     0.068 A 
HETATM   17  C   UNL     1      27.312  40.016  49.636  1.00  0.00     0.097 A 
HETATM   18  C   UNL     1      28.297  39.024  49.719  1.00  0.00     0.075 A 
HETATM   19  C   UNL     1      29.196  39.022  50.788  1.00  0.00     0.070 A 
HETATM   20  C   UNL     1      29.101  40.009  51.769  1.00  0.00     0.039 A 
HETATM   21  C   UNL     1      28.126  41.004  51.694  1.00  0.00     0.035 A 
BRANCH  17  22
HETATM   22  O   UNL     1      26.357  40.098  48.646  1.00  0.00    -0.354 OA
HETATM   23  C   UNL     1      26.810  40.419  47.333  1.00  0.00     0.210 C 
ENDBRANCH  17  22
BRANCH  19  24
HETATM   24  O   UNL     1      30.195  38.112  50.997  1.00  0.00    -0.356 OA
HETATM   25  C   UNL     1      29.816  36.826  51.473  1.00  0.00     0.210 C 
ENDBRANCH  19  24
ENDBRANCH  13  16
ENDBRANCH   4  12
ENDBRANCH   1   4
BRANCH   1  26
HETATM   26  C   UNL     1      26.414  46.077  50.761  1.00  0.00     0.192 C 
BRANCH  26  27
HETATM   27  C   UNL     1      25.894  47.284  50.072  1.00  0.00     0.070 A 
HETATM   28  O   UNL     1      26.851  48.010  49.422  1.00  0.00    -0.325 OA
HETATM   29  C   UNL     1      26.237  49.073  48.845  1.00  0.00     0.142 A 
HETATM   30  C   UNL     1      24.891  49.051  49.121  1.00  0.00     0.027 A 
HETATM   31  C   UNL     1      24.668  47.898  49.915  1.00  0.00     0.036 A 
ENDBRANCH  26  27
ENDBRANCH   1  26
BRANCH   2  32
HETATM   32  C   UNL     1      25.429  45.929  53.582  1.00  0.00     0.228 C 
BRANCH  32  33
HETATM   33  N   UNL     1      26.672  46.125  54.313  1.00  0.00    -0.347 N 
HETATM   34  C   UNL     1      27.022  47.194  55.136  1.00  0.00     0.171 C 
HETATM   35  S   UNL     1      26.161  48.565  55.473  1.00  0.00    -0.041 SA
HETATM   36  N   UNL     1      28.291  46.940  55.649  1.00  0.00    -0.357 N 
HETATM   37  C   UNL     1      28.902  45.838  54.939  1.00  0.00     0.135 C 
HETATM   38  H   UNL     1      28.816  47.666  56.120  1.00  0.00     0.162 HD
HETATM   39  C   UNL     1      27.689  45.088  54.376  1.00  0.00     0.155 C 
BRANCH  37  40
HETATM   40  C   UNL     1      29.828  44.980  55.753  1.00  0.00    -0.034 A 
HETATM   41  C   UNL     1      30.238  45.346  57.043  1.00  0.00     0.009 A 
HETATM   42  C   UNL     1      31.064  44.503  57.791  1.00  0.00     0.001 A 
HETATM   43  C   UNL     1      31.481  43.282  57.263  1.00  0.00     0.000 A 
HETATM   44  C   UNL     1      31.076  42.903  55.986  1.00  0.00     0.001 A 
HETATM   45  C   UNL     1      30.254  43.745  55.237  1.00  0.00     0.009 A 
ENDBRANCH  37  40
ENDBRANCH  32  33
ENDBRANCH   2  32
TORSDOF 10
ENDMDL
MODEL 2
REMARK VINA RESULT:      -9.1      4.290      8.716
REMARK  10 active torsions:
REMARK  status: ('A' for Active; 'I' for Inactive)
REMARK    1  A    between atoms: C_6  and  N_7 
REMARK    2  A    between atoms: C_6  and  C_29 
REMARK       I    between atoms: N_7  and  C_8 
REMARK    3  A    between atoms: N_7  and  C_23 
REMARK    4  A    between atoms: C_8  and  C_9 
REMARK    5  A    between atoms: C_9  and  N_10 
REMARK    6  A    between atoms: C_14  and  C_15 
REMARK    7  A    between atoms: C_23  and  C_24 
REMARK       I    between atoms: C_29  and  N_30 
REMARK    8  A    between atoms: N_30  and  C_31 
REMARK    9  A    between atoms: C_32  and  O_33 
REMARK   10  A    between atoms: C_36  and  O_37 
ROOT
HETATM    1  N   UNL     1      24.208  46.279  49.512  1.00  0.00    -0.326 N 
HETATM    2  C   UNL     1      22.878  46.264  49.026  1.00  0.00     0.239 C 
HETATM    3  O   UNL     1      22.123  45.321  49.261  1.00  0.00    -0.271 OA
ENDROOT
BRANCH   1   4
HETATM    4  C   UNL     1      24.794  44.988  50.037  1.00  0.00     0.120 C 
HETATM    5  C   UNL     1      23.868  43.781  49.743  1.00  0.00     0.069 C 
HETATM    6  C   UNL     1      24.450  42.429  50.143  1.00  0.00     0.237 C 
HETATM    7  N   UNL     1      25.843  42.255  49.598  1.00  0.00    -0.075 N 
HETATM    8  C   UNL     1      26.415  40.920  50.008  1.00  0.00     0.269 C 
HETATM    9  H   UNL     1      25.774  42.242  48.569  1.00  0.00     0.279 HD
HETATM   10  C   UNL     1      26.773  43.377  49.973  1.00  0.00     0.237 C 
HETATM   11  C   UNL     1      26.209  44.692  49.454  1.00  0.00     0.069 C 
BRANCH   4  12
HETATM   12  C   UNL     1      25.020  45.149  51.582  1.00  0.00     0.251 C 
HETATM   13  N   UNL     1      26.207  45.773  51.894  1.00  0.00    -0.323 N 
HETATM   14  H   UNL     1      26.730  46.213  51.140  1.00  0.00     0.169 HD
HETATM   15  O   UNL     1      24.268  44.602  52.384  1.00  0.00    -0.270 OA
BRANCH  13  16
HETATM   16  C   UNL     1      26.849  45.876  53.148  1.00  0.00     0.068 A 
HETATM   17  C   UNL     1      27.770  44.856  53.474  1.00  0.00     0.097 A 
HETATM   18  C   UNL     1      28.426  44.871  54.711  1.00  0.00     0.075 A 
HETATM   19  C   UNL     1      28.169  45.895  55.624  1.00  0.00     0.070 A 
HETATM   20  C   UNL     1      27.253  46.896  55.297  1.00  0.00     0.039 A 
HETATM   21  C   UNL     1      26.598  46.893  54.065  1.00  0.00     0.035 A 
BRANCH  17  22
HETATM   22  O   UNL     1      27.924  43.882  52.510  1.00  0.00    -0.354 OA
HETATM   23  C   UNL     1      29.125  43.115  52.549  1.00  0.00     0.210 C 
ENDBRANCH  17  22
BRANCH  19  24
HETATM   24  O   UNL     1      28.727  46.026  56.865  1.00  0.00    -0.356 OA
HETATM   25  C   UNL     1      30.118  45.756  56.986  1.00  0.00     0.210 C 
ENDBRANCH  19  24
ENDBRANCH  13  16
ENDBRANCH   4  12
ENDBRANCH   1   4
BRANCH   1  26
HETATM   26  C   UNL     1      24.571  47.504  50.256  1.00  0.00     0.192 C 
BRANCH  26  27
HETATM   27  C   UNL     1      25.591  48.348  49.586  1.00  0.00     0.070 A 
HETATM   28  O   UNL     1      26.878  48.048  49.933  1.00  0.00    -0.325 OA
HETATM   29  C   UNL     1      27.692  48.891  49.251  1.00  0.00     0.142 A 
HETATM   30  C   UNL     1      26.948  49.742  48.469  1.00  0.00     0.027 A 
HETATM   31  C   UNL     1      25.591  49.395  48.686  1.00  0.00     0.036 A 
ENDBRANCH  26  27
ENDBRANCH   1  26
BRANCH   2  32
HETATM   32  C   UNL     1      22.485  47.448  48.113  1.00  0.00     0.228 C 
BRANCH  32  33
HETATM   33  N   UNL     1      21.258  48.130  48.498  1.00  0.00    -0.347 N 
HETATM   34  C   UNL     1      21.125  49.383  49.094  1.00  0.00     0.171 C 
HETATM   35  S   UNL     1      22.312  50.426  49.584  1.00  0.00    -0.041 SA
HETATM   36  N   UNL     1      19.766  49.639  49.249  1.00  0.00    -0.357 N 
HETATM   37  C   UNL     1      19.004  48.432  49.020  1.00  0.00     0.135 C 
HETATM   38  H   UNL     1      19.446  50.407  49.827  1.00  0.00     0.162 HD
HETATM   39  C   UNL     1      19.951  47.598  48.150  1.00  0.00     0.155 C 
BRANCH  37  40
HETATM   40  C   UNL     1      17.642  48.635  48.420  1.00  0.00    -0.034 A 
HETATM   41  C   UNL     1      16.948  49.847  48.543  1.00  0.00     0.009 A 
HETATM   42  C   UNL     1      15.702  50.017  47.934  1.00  0.00     0.001 A 
HETATM   43  C   UNL     1      15.139  48.981  47.190  1.00  0.00     0.000 A 
HETATM   44  C   UNL     1      15.819  47.774  47.054  1.00  0.00     0.001 A 
HETATM   45  C   UNL     1      17.062  47.603  47.664  1.00  0.00     0.009 A 
ENDBRANCH  37  40
ENDBRANCH  32  33
ENDBRANCH   2  32
TORSDOF 10
ENDMDL
MODEL 3
REMARK VINA RESULT:      -9.0      3.664      7.788
REMARK  10 active torsions:
REMARK  status: ('A' for Active; 'I' for Inactive)
REMARK    1  A    between atoms: C_6  and  N_7 
REMARK    2  A    between atoms: C_6  and  C_29 
REMARK       I    between atoms: N_7  and  C_8 
REMARK    3  A    between atoms: N_7  and  C_23 
REMARK    4  A    between atoms: C_8  and  C_9 
REMARK    5  A    between atoms: C_9  and  N_10 
REMARK    6  A    between atoms: C_14  and  C_15 
REMARK    7  A    between atoms: C_23  and  C_24 
REMARK       I    between atoms: C_29  and  N_30 
REMARK    8  A    between atoms: N_30  and  C_31 
REMARK    9  A    between atoms: C_32  and  O_33 
REMARK   10  A    between atoms: C_36  and  O_37 
ROOT
HETATM    1  N   UNL     1      24.458  46.331  49.677  1.00  0.00    -0.326 N 
HETATM    2  C   UNL     1      23.369  45.702  49.027  1.00  0.00     0.239 C 
HETATM    3  O   UNL     1      22.877  44.662  49.466  1.00  0.00    -0.271 OA
ENDROOT
BRANCH   1   4
HETATM    4  C   UNL     1      25.222  45.545  50.720  1.00  0.00     0.120 C 
HETATM    5  C   UNL     1      25.919  46.481  51.740  1.00  0.00     0.069 C 
HETATM    6  C   UNL     1      26.613  45.753  52.888  1.00  0.00     0.237 C 
HETATM    7  N   UNL     1      25.692  44.752  53.532  1.00  0.00    -0.075 N 
HETATM    8  C   UNL     1      26.390  44.030  54.658  1.00  0.00     0.269 C 
HETATM    9  H   UNL     1      24.913  45.277  53.958  1.00  0.00     0.279 HD
HETATM   10  C   UNL     1      25.097  43.775  52.554  1.00  0.00     0.237 C 
HETATM   11  C   UNL     1      24.317  44.540  51.493  1.00  0.00     0.069 C 
BRANCH   4  12
HETATM   12  C   UNL     1      26.278  44.651  49.978  1.00  0.00     0.251 C 
HETATM   13  N   UNL     1      25.900  43.330  49.888  1.00  0.00    -0.323 N 
HETATM   14  H   UNL     1      24.945  43.086  50.138  1.00  0.00     0.169 HD
HETATM   15  O   UNL     1      27.381  45.101  49.684  1.00  0.00    -0.270 OA
BRANCH  13  16
HETATM   16  C   UNL     1      26.679  42.212  49.513  1.00  0.00     0.068 A 
HETATM   17  C   UNL     1      27.525  41.668  50.503  1.00  0.00     0.097 A 
HETATM   18  C   UNL     1      28.350  40.578  50.201  1.00  0.00     0.075 A 
HETATM   19  C   UNL     1      28.336  40.027  48.918  1.00  0.00     0.070 A 
HETATM   20  C   UNL     1      27.499  40.573  47.944  1.00  0.00     0.039 A 
HETATM   21  C   UNL     1      26.670  41.657  48.235  1.00  0.00     0.035 A 
BRANCH  17  22
HETATM   22  O   UNL     1      27.480  42.308  51.723  1.00  0.00    -0.354 OA
HETATM   23  C   UNL     1      28.724  42.695  52.300  1.00  0.00     0.210 C 
ENDBRANCH  17  22
BRANCH  19  24
HETATM   24  O   UNL     1      29.093  38.974  48.485  1.00  0.00    -0.356 OA
HETATM   25  C   UNL     1      29.624  38.102  49.475  1.00  0.00     0.210 C 
ENDBRANCH  19  24
ENDBRANCH  13  16
ENDBRANCH   4  12
ENDBRANCH   1   4
BRANCH   1  26
HETATM   26  C   UNL     1      24.245  47.763  49.975  1.00  0.00     0.192 C 
BRANCH  26  27
HETATM   27  C   UNL     1      25.127  48.684  49.217  1.00  0.00     0.070 A 
HETATM   28  O   UNL     1      26.459  48.508  49.461  1.00  0.00    -0.325 OA
HETATM   29  C   UNL     1      27.136  49.409  48.707  1.00  0.00     0.142 A 
HETATM   30  C   UNL     1      26.258  50.176  47.980  1.00  0.00     0.027 A 
HETATM   31  C   UNL     1      24.960  49.711  48.309  1.00  0.00     0.036 A 
ENDBRANCH  26  27
ENDBRANCH   1  26
BRANCH   2  32
HETATM   32  C   UNL     1      22.918  46.350  47.698  1.00  0.00     0.228 C 
BRANCH  32  33
HETATM   33  N   UNL     1      21.634  47.033  47.762  1.00  0.00    -0.347 N 
HETATM   34  C   UNL     1      20.364  46.464  47.831  1.00  0.00     0.171 C 
HETATM   35  S   UNL     1      19.944  44.864  47.805  1.00  0.00    -0.041 SA
HETATM   36  N   UNL     1      19.437  47.500  47.908  1.00  0.00    -0.357 N 
HETATM   37  C   UNL     1      20.073  48.760  47.599  1.00  0.00     0.135 C 
HETATM   38  H   UNL     1      18.448  47.322  47.780  1.00  0.00     0.162 HD
HETATM   39  C   UNL     1      21.547  48.476  47.910  1.00  0.00     0.155 C 
BRANCH  37  40
HETATM   40  C   UNL     1      19.516  49.957  48.316  1.00  0.00    -0.034 A 
HETATM   41  C   UNL     1      19.885  51.266  47.975  1.00  0.00     0.009 A 
HETATM   42  C   UNL     1      19.313  52.358  48.632  1.00  0.00     0.001 A 
HETATM   43  C   UNL     1      18.361  52.156  49.630  1.00  0.00     0.000 A 
HETATM   44  C   UNL     1      17.980  50.862  49.975  1.00  0.00     0.001 A 
HETATM   45  C   UNL     1      18.553  49.770  49.321  1.00  0.00     0.009 A 
ENDBRANCH  37  40
ENDBRANCH  32  33
ENDBRANCH   2  32
TORSDOF 10
ENDMDL
MODEL 4
REMARK VINA RESULT:      -8.9      4.326      6.362
REMARK  10 active torsions:
REMARK  status: ('A' for Active; 'I' for Inactive)
REMARK    1  A    between atoms: C_6  and  N_7 
REMARK    2  A    between atoms: C_6  and  C_29 
REMARK       I    between atoms: N_7  and  C_8 
REMARK    3  A    between atoms: N_7  and  C_23 
REMARK    4  A    between atoms: C_8  and  C_9 
REMARK    5  A    between atoms: C_9  and  N_10 
REMARK    6  A    between atoms: C_14  and  C_15 
REMARK    7  A    between atoms: C_23  and  C_24 
REMARK       I    between atoms: C_29  and  N_30 
REMARK    8  A    between atoms: N_30  and  C_31 
REMARK    9  A    between atoms: C_32  and  O_33 
REMARK   10  A    between atoms: C_36  and  O_37 
ROOT
HETATM    1  N   UNL     1      20.737  47.918  49.025  1.00  0.00    -0.326 N 
HETATM    2  C   UNL     1      21.927  48.423  48.445  1.00  0.00     0.239 C 
HETATM    3  O   UNL     1      22.164  48.279  47.246  1.00  0.00    -0.271 OA
ENDROOT
BRANCH   1   4
HETATM    4  C   UNL     1      19.922  46.919  48.234  1.00  0.00     0.120 C 
HETATM    5  C   UNL     1      18.410  47.043  48.548  1.00  0.00     0.069 C 
HETATM    6  C   UNL     1      17.515  46.144  47.699  1.00  0.00     0.237 C 
HETATM    7  N   UNL     1      17.833  46.290  46.234  1.00  0.00    -0.075 N 
HETATM    8  C   UNL     1      16.952  45.389  45.404  1.00  0.00     0.269 C 
HETATM    9  H   UNL     1      17.602  47.258  45.962  1.00  0.00     0.279 HD
HETATM   10  C   UNL     1      19.285  46.065  45.914  1.00  0.00     0.237 C 
HETATM   11  C   UNL     1      20.132  47.060  46.696  1.00  0.00     0.069 C 
BRANCH   4  12
HETATM   12  C   UNL     1      20.443  45.480  48.583  1.00  0.00     0.251 C 
HETATM   13  N   UNL     1      21.798  45.440  48.827  1.00  0.00    -0.323 N 
HETATM   14  H   UNL     1      22.293  46.323  48.930  1.00  0.00     0.169 HD
HETATM   15  O   UNL     1      19.709  44.504  48.465  1.00  0.00    -0.270 OA
BRANCH  13  16
HETATM   16  C   UNL     1      22.644  44.313  48.933  1.00  0.00     0.068 A 
HETATM   17  C   UNL     1      23.227  43.843  47.736  1.00  0.00     0.097 A 
HETATM   18  C   UNL     1      24.054  42.713  47.754  1.00  0.00     0.075 A 
HETATM   19  C   UNL     1      24.303  42.050  48.957  1.00  0.00     0.070 A 
HETATM   20  C   UNL     1      23.719  42.518  50.134  1.00  0.00     0.039 A 
HETATM   21  C   UNL     1      22.896  43.646  50.129  1.00  0.00     0.035 A 
BRANCH  17  22
HETATM   22  O   UNL     1      22.889  44.557  46.605  1.00  0.00    -0.354 OA
HETATM   23  C   UNL     1      22.332  43.823  45.518  1.00  0.00     0.210 C 
ENDBRANCH  17  22
BRANCH  19  24
HETATM   24  O   UNL     1      25.077  40.935  49.116  1.00  0.00    -0.356 OA
HETATM   25  C   UNL     1      25.942  40.897  50.245  1.00  0.00     0.210 C 
ENDBRANCH  19  24
ENDBRANCH  13  16
ENDBRANCH   4  12
ENDBRANCH   1   4
BRANCH   1  26
HETATM   26  C   UNL     1      19.966  48.914  49.798  1.00  0.00     0.192 C 
BRANCH  26  27
HETATM   27  C   UNL     1      19.764  50.208  49.100  1.00  0.00     0.070 A 
HETATM   28  O   UNL     1      18.977  50.125  47.987  1.00  0.00    -0.325 OA
HETATM   29  C   UNL     1      18.883  51.370  47.458  1.00  0.00     0.142 A 
HETATM   30  C   UNL     1      19.608  52.262  48.211  1.00  0.00     0.027 A 
HETATM   31  C   UNL     1      20.180  51.514  49.270  1.00  0.00     0.036 A 
ENDBRANCH  26  27
ENDBRANCH   1  26
BRANCH   2  32
HETATM   32  C   UNL     1      22.930  49.065  49.430  1.00  0.00     0.228 C 
BRANCH  32  33
HETATM   33  N   UNL     1      24.185  48.342  49.575  1.00  0.00    -0.347 N 
HETATM   34  C   UNL     1      25.442  48.702  49.095  1.00  0.00     0.171 C 
HETATM   35  S   UNL     1      25.862  50.015  48.179  1.00  0.00    -0.041 SA
HETATM   36  N   UNL     1      26.349  47.728  49.499  1.00  0.00    -0.357 N 
HETATM   37  C   UNL     1      25.643  46.571  50.004  1.00  0.00     0.135 C 
HETATM   38  H   UNL     1      27.282  47.691  49.106  1.00  0.00     0.162 HD
HETATM   39  C   UNL     1      24.288  47.158  50.413  1.00  0.00     0.155 C 
BRANCH  37  40
HETATM   40  C   UNL     1      26.341  45.819  51.101  1.00  0.00    -0.034 A 
HETATM   41  C   UNL     1      26.241  46.202  52.446  1.00  0.00     0.009 A 
HETATM   42  C   UNL     1      26.865  45.453  53.446  1.00  0.00     0.001 A 
HETATM   43  C   UNL     1      27.589  44.308  53.116  1.00  0.00     0.000 A 
HETATM   44  C   UNL     1      27.691  43.911  51.785  1.00  0.00     0.001 A 
HETATM   45  C   UNL     1      27.070  44.660  50.785  1.00  0.00     0.009 A 
ENDBRANCH  37  40
ENDBRANCH  32  33
ENDBRANCH   2  32
TORSDOF 10
ENDMDL
MODEL 5
REMARK VINA RESULT:      -8.8      3.359      7.086
REMARK  10 active torsions:
REMARK  status: ('A' for Active; 'I' for Inactive)
REMARK    1  A    between atoms: C_6  and  N_7 
REMARK    2  A    between atoms: C_6  and  C_29 
REMARK       I    between atoms: N_7  and  C_8 
REMARK    3  A    between atoms: N_7  and  C_23 
REMARK    4  A    between atoms: C_8  and  C_9 
REMARK    5  A    between atoms: C_9  and  N_10 
REMARK    6  A    between atoms: C_14  and  C_15 
REMARK    7  A    between atoms: C_23  and  C_24 
REMARK       I    between atoms: C_29  and  N_30 
REMARK    8  A    between atoms: N_30  and  C_31 
REMARK    9  A    between atoms: C_32  and  O_33 
REMARK   10  A    between atoms: C_36  and  O_37 
ROOT
HETATM    1  N   UNL     1      26.204  40.914  47.141  1.00  0.00    -0.326 N 
HETATM    2  C   UNL     1      26.618  39.957  48.100  1.00  0.00     0.239 C 
HETATM    3  O   UNL     1      25.809  39.207  48.644  1.00  0.00    -0.271 OA
ENDROOT
BRANCH   1   4
HETATM    4  C   UNL     1      24.729  41.230  47.035  1.00  0.00     0.120 C 
HETATM    5  C   UNL     1      24.389  41.912  45.685  1.00  0.00     0.069 C 
HETATM    6  C   UNL     1      22.899  42.155  45.461  1.00  0.00     0.237 C 
HETATM    7  N   UNL     1      22.101  40.903  45.713  1.00  0.00    -0.075 N 
HETATM    8  C   UNL     1      20.629  41.156  45.500  1.00  0.00     0.269 C 
HETATM    9  H   UNL     1      22.385  40.207  45.006  1.00  0.00     0.279 HD
HETATM   10  C   UNL     1      22.353  40.299  47.068  1.00  0.00     0.237 C 
HETATM   11  C   UNL     1      23.833  39.966  47.202  1.00  0.00     0.069 C 
BRANCH   4  12
HETATM   12  C   UNL     1      24.343  42.162  48.238  1.00  0.00     0.251 C 
HETATM   13  N   UNL     1      24.941  43.401  48.175  1.00  0.00    -0.323 N 
HETATM   14  H   UNL     1      25.416  43.662  47.314  1.00  0.00     0.169 HD
HETATM   15  O   UNL     1      23.711  41.720  49.193  1.00  0.00    -0.270 OA
BRANCH  13  16
HETATM   16  C   UNL     1      25.021  44.395  49.176  1.00  0.00     0.068 A 
HETATM   17  C   UNL     1      24.036  45.406  49.146  1.00  0.00     0.097 A 
HETATM   18  C   UNL     1      24.064  46.443  50.087  1.00  0.00     0.075 A 
HETATM   19  C   UNL     1      25.068  46.477  51.057  1.00  0.00     0.070 A 
HETATM   20  C   UNL     1      26.041  45.477  51.077  1.00  0.00     0.039 A 
HETATM   21  C   UNL     1      26.020  44.437  50.146  1.00  0.00     0.035 A 
BRANCH  17  22
HETATM   22  O   UNL     1      23.112  45.288  48.130  1.00  0.00    -0.354 OA
HETATM   23  C   UNL     1      21.763  45.026  48.506  1.00  0.00     0.210 C 
ENDBRANCH  17  22
BRANCH  19  24
HETATM   24  O   UNL     1      25.221  47.431  52.023  1.00  0.00    -0.356 OA
HETATM   25  C   UNL     1      26.027  47.098  53.147  1.00  0.00     0.210 C 
ENDBRANCH  19  24
ENDBRANCH  13  16
ENDBRANCH   4  12
ENDBRANCH   1   4
BRANCH   1  26
HETATM   26  C   UNL     1      26.947  40.857  45.864  1.00  0.00     0.192 C 
BRANCH  26  27
HETATM   27  C   UNL     1      27.014  39.505  45.255  1.00  0.00     0.070 A 
HETATM   28  O   UNL     1      28.282  39.015  45.122  1.00  0.00    -0.325 OA
HETATM   29  C   UNL     1      28.188  37.786  44.556  1.00  0.00     0.142 A 
HETATM   30  C   UNL     1      26.872  37.475  44.312  1.00  0.00     0.027 A 
HETATM   31  C   UNL     1      26.112  38.584  44.760  1.00  0.00     0.036 A 
ENDBRANCH  26  27
ENDBRANCH   1  26
BRANCH   2  32
HETATM   32  C   UNL     1      28.117  39.995  48.478  1.00  0.00     0.228 C 
BRANCH  32  33
HETATM   33  N   UNL     1      28.379  40.121  49.905  1.00  0.00    -0.347 N 
HETATM   34  C   UNL     1      29.096  39.250  50.724  1.00  0.00     0.171 C 
HETATM   35  S   UNL     1      29.803  37.807  50.331  1.00  0.00    -0.041 SA
HETATM   36  N   UNL     1      29.115  39.790  52.006  1.00  0.00    -0.357 N 
HETATM   37  C   UNL     1      28.165  40.876  52.102  1.00  0.00     0.135 C 
HETATM   38  H   UNL     1      29.420  39.237  52.798  1.00  0.00     0.162 HD
HETATM   39  C   UNL     1      28.013  41.318  50.643  1.00  0.00     0.155 C 
BRANCH  37  40
HETATM   40  C   UNL     1      28.546  41.985  53.041  1.00  0.00    -0.034 A 
HETATM   41  C   UNL     1      29.882  42.255  53.369  1.00  0.00     0.009 A 
HETATM   42  C   UNL     1      30.204  43.323  54.211  1.00  0.00     0.001 A 
HETATM   43  C   UNL     1      29.197  44.137  54.726  1.00  0.00     0.000 A 
HETATM   44  C   UNL     1      27.867  43.885  54.404  1.00  0.00     0.001 A 
HETATM   45  C   UNL     1      27.543  42.817  53.566  1.00  0.00     0.009 A 
ENDBRANCH  37  40
ENDBRANCH  32  33
ENDBRANCH   2  32
TORSDOF 10
ENDMDL
MODEL 6
REMARK VINA RESULT:      -8.5      2.257      4.752
REMARK  10 active torsions:
REMARK  status: ('A' for Active; 'I' for Inactive)
REMARK    1  A    between atoms: C_6  and  N_7 
REMARK    2  A    between atoms: C_6  and  C_29 
REMARK       I    between atoms: N_7  and  C_8 
REMARK    3  A    between atoms: N_7  and  C_23 
REMARK    4  A    between atoms: C_8  and  C_9 
REMARK    5  A    between atoms: C_9  and  N_10 
REMARK    6  A    between atoms: C_14  and  C_15 
REMARK    7  A    between atoms: C_23  and  C_24 
REMARK       I    between atoms: C_29  and  N_30 
REMARK    8  A    between atoms: N_30  and  C_31 
REMARK    9  A    between atoms: C_32  and  O_33 
REMARK   10  A    between atoms: C_36  and  O_37 
ROOT
HETATM    1  N   UNL     1      26.791  42.741  50.860  1.00  0.00    -0.326 N 
HETATM    2  C   UNL     1      26.853  42.716  52.275  1.00  0.00     0.239 C 
HETATM    3  O   UNL     1      27.316  41.747  52.877  1.00  0.00    -0.271 OA
ENDROOT
BRANCH   1   4
HETATM    4  C   UNL     1      26.990  41.442  50.111  1.00  0.00     0.120 C 
HETATM    5  C   UNL     1      28.425  40.890  50.300  1.00  0.00     0.069 C 
HETATM    6  C   UNL     1      28.661  39.522  49.667  1.00  0.00     0.237 C 
HETATM    7  N   UNL     1      27.589  38.544  50.070  1.00  0.00    -0.075 N 
HETATM    8  C   UNL     1      27.825  37.198  49.429  1.00  0.00     0.269 C 
HETATM    9  H   UNL     1      27.667  38.402  51.089  1.00  0.00     0.279 HD
HETATM   10  C   UNL     1      26.196  39.038  49.787  1.00  0.00     0.237 C 
HETATM   11  C   UNL     1      25.966  40.345  50.533  1.00  0.00     0.069 C 
BRANCH   4  12
HETATM   12  C   UNL     1      26.695  41.707  48.592  1.00  0.00     0.251 C 
HETATM   13  N   UNL     1      25.362  41.576  48.268  1.00  0.00    -0.323 N 
HETATM   14  H   UNL     1      24.690  41.498  49.028  1.00  0.00     0.169 HD
HETATM   15  O   UNL     1      27.615  41.841  47.791  1.00  0.00    -0.270 OA
BRANCH  13  16
HETATM   16  C   UNL     1      24.767  41.505  46.989  1.00  0.00     0.068 A 
HETATM   17  C   UNL     1      23.666  42.357  46.754  1.00  0.00     0.097 A 
HETATM   18  C   UNL     1      23.003  42.324  45.521  1.00  0.00     0.075 A 
HETATM   19  C   UNL     1      23.430  41.447  44.523  1.00  0.00     0.070 A 
HETATM   20  C   UNL     1      24.515  40.604  44.765  1.00  0.00     0.039 A 
HETATM   21  C   UNL     1      25.186  40.632  45.988  1.00  0.00     0.035 A 
BRANCH  17  22
HETATM   22  O   UNL     1      23.313  43.159  47.819  1.00  0.00    -0.354 OA
HETATM   23  C   UNL     1      22.066  43.844  47.730  1.00  0.00     0.210 C 
ENDBRANCH  17  22
BRANCH  19  24
HETATM   24  O   UNL     1      22.871  41.304  43.284  1.00  0.00    -0.356 OA
HETATM   25  C   UNL     1      23.708  40.815  42.242  1.00  0.00     0.210 C 
ENDBRANCH  19  24
ENDBRANCH  13  16
ENDBRANCH   4  12
ENDBRANCH   1   4
BRANCH   1  26
HETATM   26  C   UNL     1      27.395  43.941  50.245  1.00  0.00     0.192 C 
BRANCH  26  27
HETATM   27  C   UNL     1      26.453  45.071  50.055  1.00  0.00     0.070 A 
HETATM   28  O   UNL     1      25.139  44.700  50.005  1.00  0.00    -0.325 OA
HETATM   29  C   UNL     1      24.402  45.825  49.830  1.00  0.00     0.142 A 
HETATM   30  C   UNL     1      25.224  46.924  49.756  1.00  0.00     0.027 A 
HETATM   31  C   UNL     1      26.548  46.440  49.899  1.00  0.00     0.036 A 
ENDBRANCH  26  27
ENDBRANCH   1  26
BRANCH   2  32
HETATM   32  C   UNL     1      26.217  43.927  52.994  1.00  0.00     0.228 C 
BRANCH  32  33
HETATM   33  N   UNL     1      27.150  44.726  53.776  1.00  0.00    -0.347 N 
HETATM   34  C   UNL     1      27.048  46.075  54.114  1.00  0.00     0.171 C 
HETATM   35  S   UNL     1      25.880  47.164  53.684  1.00  0.00    -0.041 SA
HETATM   36  N   UNL     1      28.152  46.402  54.896  1.00  0.00    -0.357 N 
HETATM   37  C   UNL     1      29.134  45.343  54.838  1.00  0.00     0.135 C 
HETATM   38  H   UNL     1      28.377  47.369  55.098  1.00  0.00     0.162 HD
HETATM   39  C   UNL     1      28.291  44.125  54.446  1.00  0.00     0.155 C 
BRANCH  37  40
HETATM   40  C   UNL     1      29.948  45.149  56.085  1.00  0.00    -0.034 A 
HETATM   41  C   UNL     1      29.768  45.949  57.223  1.00  0.00     0.009 A 
HETATM   42  C   UNL     1      30.510  45.712  58.382  1.00  0.00     0.001 A 
HETATM   43  C   UNL     1      31.433  44.668  58.422  1.00  0.00     0.000 A 
HETATM   44  C   UNL     1      31.618  43.861  57.302  1.00  0.00     0.001 A 
HETATM   45  C   UNL     1      30.879  44.099  56.143  1.00  0.00     0.009 A 
ENDBRANCH  37  40
ENDBRANCH  32  33
ENDBRANCH   2  32
TORSDOF 10
ENDMDL
MODEL 7
REMARK VINA RESULT:      -8.5      4.486      8.030
REMARK  10 active torsions:
REMARK  status: ('A' for Active; 'I' for Inactive)
REMARK    1  A    between atoms: C_6  and  N_7 
REMARK    2  A    between atoms: C_6  and  C_29 
REMARK       I    between atoms: N_7  and  C_8 
REMARK    3  A    between atoms: N_7  and  C_23 
REMARK    4  A    between atoms: C_8  and  C_9 
REMARK    5  A    between atoms: C_9  and  N_10 
REMARK    6  A    between atoms: C_14  and  C_15 
REMARK    7  A    between atoms: C_23  and  C_24 
REMARK       I    between atoms: C_29  and  N_30 
REMARK    8  A    between atoms: N_30  and  C_31 
REMARK    9  A    between atoms: C_32  and  O_33 
REMARK   10  A    between atoms: C_36  and  O_37 
ROOT
HETATM    1  N   UNL     1      23.539  46.735  49.465  1.00  0.00    -0.326 N 
HETATM    2  C   UNL     1      24.072  45.791  50.377  1.00  0.00     0.239 C 
HETATM    3  O   UNL     1      23.829  44.590  50.268  1.00  0.00    -0.271 OA
ENDROOT
BRANCH   1   4
HETATM    4  C   UNL     1      22.409  46.298  48.560  1.00  0.00     0.120 C 
HETATM    5  C   UNL     1      22.941  45.687  47.239  1.00  0.00     0.069 C 
HETATM    6  C   UNL     1      21.858  45.118  46.327  1.00  0.00     0.237 C 
HETATM    7  N   UNL     1      20.942  44.193  47.084  1.00  0.00    -0.075 N 
HETATM    8  C   UNL     1      19.867  43.645  46.177  1.00  0.00     0.269 C 
HETATM    9  H   UNL     1      21.505  43.386  47.394  1.00  0.00     0.279 HD
HETATM   10  C   UNL     1      20.341  44.823  48.311  1.00  0.00     0.237 C 
HETATM   11  C   UNL     1      21.458  45.271  49.244  1.00  0.00     0.069 C 
BRANCH   4  12
HETATM   12  C   UNL     1      21.508  47.550  48.267  1.00  0.00     0.251 C 
HETATM   13  N   UNL     1      20.783  47.963  49.362  1.00  0.00    -0.323 N 
HETATM   14  H   UNL     1      21.009  47.558  50.268  1.00  0.00     0.169 HD
HETATM   15  O   UNL     1      21.373  47.967  47.121  1.00  0.00    -0.270 OA
BRANCH  13  16
HETATM   16  C   UNL     1      19.711  48.882  49.417  1.00  0.00     0.068 A 
HETATM   17  C   UNL     1      18.449  48.409  48.995  1.00  0.00     0.097 A 
HETATM   18  C   UNL     1      17.343  49.267  48.992  1.00  0.00     0.075 A 
HETATM   19  C   UNL     1      17.487  50.592  49.406  1.00  0.00     0.070 A 
HETATM   20  C   UNL     1      18.738  51.053  49.817  1.00  0.00     0.039 A 
HETATM   21  C   UNL     1      19.847  50.205  49.828  1.00  0.00     0.035 A 
BRANCH  17  22
HETATM   22  O   UNL     1      18.430  47.094  48.580  1.00  0.00    -0.354 OA
HETATM   23  C   UNL     1      17.160  46.537  48.249  1.00  0.00     0.210 C 
ENDBRANCH  17  22
BRANCH  19  24
HETATM   24  O   UNL     1      16.499  51.536  49.443  1.00  0.00    -0.356 OA
HETATM   25  C   UNL     1      16.848  52.828  49.927  1.00  0.00     0.210 C 
ENDBRANCH  19  24
ENDBRANCH  13  16
ENDBRANCH   4  12
ENDBRANCH   1   4
BRANCH   1  26
HETATM   26  C   UNL     1      24.546  47.629  48.856  1.00  0.00     0.192 C 
BRANCH  26  27
HETATM   27  C   UNL     1      24.117  49.045  48.740  1.00  0.00     0.070 A 
HETATM   28  O   UNL     1      23.442  49.514  49.831  1.00  0.00    -0.325 OA
HETATM   29  C   UNL     1      23.115  50.807  49.585  1.00  0.00     0.142 A 
HETATM   30  C   UNL     1      23.563  51.182  48.341  1.00  0.00     0.027 A 
HETATM   31  C   UNL     1      24.207  50.045  47.793  1.00  0.00     0.036 A 
ENDBRANCH  26  27
ENDBRANCH   1  26
BRANCH   2  32
HETATM   32  C   UNL     1      24.883  46.382  51.553  1.00  0.00     0.228 C 
BRANCH  32  33
HETATM   33  N   UNL     1      25.999  45.558  51.994  1.00  0.00    -0.347 N 
HETATM   34  C   UNL     1      26.882  44.820  51.207  1.00  0.00     0.171 C 
HETATM   35  S   UNL     1      26.883  44.619  49.565  1.00  0.00    -0.041 SA
HETATM   36  N   UNL     1      27.806  44.217  52.055  1.00  0.00    -0.357 N 
HETATM   37  C   UNL     1      27.365  44.323  53.428  1.00  0.00     0.135 C 
HETATM   38  H   UNL     1      28.423  43.489  51.717  1.00  0.00     0.162 HD
HETATM   39  C   UNL     1      26.423  45.531  53.384  1.00  0.00     0.155 C 
BRANCH  37  40
HETATM   40  C   UNL     1      28.460  44.437  54.450  1.00  0.00    -0.034 A 
HETATM   41  C   UNL     1      29.525  43.527  54.503  1.00  0.00     0.009 A 
HETATM   42  C   UNL     1      30.550  43.689  55.438  1.00  0.00     0.001 A 
HETATM   43  C   UNL     1      30.528  44.766  56.324  1.00  0.00     0.000 A 
HETATM   44  C   UNL     1      29.480  45.681  56.278  1.00  0.00     0.001 A 
HETATM   45  C   UNL     1      28.454  45.519  55.346  1.00  0.00     0.009 A 
ENDBRANCH  37  40
ENDBRANCH  32  33
ENDBRANCH   2  32
TORSDOF 10
ENDMDL
MODEL 8
REMARK VINA RESULT:      -8.4      3.898      8.561
REMARK  10 active torsions:
REMARK  status: ('A' for Active; 'I' for Inactive)
REMARK    1  A    between atoms: C_6  and  N_7 
REMARK    2  A    between atoms: C_6  and  C_29 
REMARK       I    between atoms: N_7  and  C_8 
REMARK    3  A    between atoms: N_7  and  C_23 
REMARK    4  A    between atoms: C_8  and  C_9 
REMARK    5  A    between atoms: C_9  and  N_10 
REMARK    6  A    between atoms: C_14  and  C_15 
REMARK    7  A    between atoms: C_23  and  C_24 
REMARK       I    between atoms: C_29  and  N_30 
REMARK    8  A    between atoms: N_30  and  C_31 
REMARK    9  A    between atoms: C_32  and  O_33 
REMARK   10  A    between atoms: C_36  and  O_37 
ROOT
HETATM    1  N   UNL     1      24.369  45.901  49.427  1.00  0.00    -0.326 N 
HETATM    2  C   UNL     1      23.161  45.651  48.731  1.00  0.00     0.239 C 
HETATM    3  O   UNL     1      22.493  44.642  48.953  1.00  0.00    -0.271 OA
ENDROOT
BRANCH   1   4
HETATM    4  C   UNL     1      24.998  44.764  50.202  1.00  0.00     0.120 C 
HETATM    5  C   UNL     1      24.171  43.460  50.071  1.00  0.00     0.069 C 
HETATM    6  C   UNL     1      24.809  42.242  50.732  1.00  0.00     0.237 C 
HETATM    7  N   UNL     1      26.244  42.082  50.306  1.00  0.00    -0.075 N 
HETATM    8  C   UNL     1      26.870  40.882  50.974  1.00  0.00     0.269 C 
HETATM    9  H   UNL     1      26.246  41.888  49.293  1.00  0.00     0.279 HD
HETATM   10  C   UNL     1      27.074  43.316  50.532  1.00  0.00     0.237 C 
HETATM   11  C   UNL     1      26.465  44.479  49.759  1.00  0.00     0.069 C 
BRANCH   4  12
HETATM   12  C   UNL     1      25.107  45.202  51.705  1.00  0.00     0.251 C 
HETATM   13  N   UNL     1      26.340  45.722  52.030  1.00  0.00    -0.323 N 
HETATM   14  H   UNL     1      26.986  45.933  51.272  1.00  0.00     0.169 HD
HETATM   15  O   UNL     1      24.215  44.926  52.502  1.00  0.00    -0.270 OA
BRANCH  13  16
HETATM   16  C   UNL     1      26.877  45.993  53.308  1.00  0.00     0.068 A 
HETATM   17  C   UNL     1      27.651  44.970  53.900  1.00  0.00     0.097 A 
HETATM   18  C   UNL     1      28.193  45.150  55.178  1.00  0.00     0.075 A 
HETATM   19  C   UNL     1      27.968  46.342  55.870  1.00  0.00     0.070 A 
HETATM   20  C   UNL     1      27.198  47.345  55.280  1.00  0.00     0.039 A 
HETATM   21  C   UNL     1      26.657  47.178  54.004  1.00  0.00     0.035 A 
BRANCH  17  22
HETATM   22  O   UNL     1      27.783  43.827  53.140  1.00  0.00    -0.354 OA
HETATM   23  C   UNL     1      28.597  42.785  53.673  1.00  0.00     0.210 C 
ENDBRANCH  17  22
BRANCH  19  24
HETATM   24  O   UNL     1      28.426  46.645  57.121  1.00  0.00    -0.356 OA
HETATM   25  C   UNL     1      29.477  45.841  57.644  1.00  0.00     0.210 C 
ENDBRANCH  19  24
ENDBRANCH  13  16
ENDBRANCH   4  12
ENDBRANCH   1   4
BRANCH   1  26
HETATM   26  C   UNL     1      24.442  47.234  50.061  1.00  0.00     0.192 C 
BRANCH  26  27
HETATM   27  C   UNL     1      25.505  48.114  49.515  1.00  0.00     0.070 A 
HETATM   28  O   UNL     1      25.043  49.110  48.703  1.00  0.00    -0.325 OA
HETATM   29  C   UNL     1      26.115  49.825  48.282  1.00  0.00     0.142 A 
HETATM   30  C   UNL     1      27.272  49.301  48.806  1.00  0.00     0.027 A 
HETATM   31  C   UNL     1      26.881  48.194  49.600  1.00  0.00     0.036 A 
ENDBRANCH  26  27
ENDBRANCH   1  26
BRANCH   2  32
HETATM   32  C   UNL     1      22.805  46.669  47.623  1.00  0.00     0.228 C 
BRANCH  32  33
HETATM   33  N   UNL     1      21.467  47.233  47.726  1.00  0.00    -0.347 N 
HETATM   34  C   UNL     1      20.249  46.555  47.721  1.00  0.00     0.171 C 
HETATM   35  S   UNL     1      19.968  44.935  47.540  1.00  0.00    -0.041 SA
HETATM   36  N   UNL     1      19.236  47.497  47.875  1.00  0.00    -0.357 N 
HETATM   37  C   UNL     1      19.766  48.830  47.694  1.00  0.00     0.135 C 
HETATM   38  H   UNL     1      18.268  47.249  47.714  1.00  0.00     0.162 HD
HETATM   39  C   UNL     1      21.255  48.644  48.004  1.00  0.00     0.155 C 
BRANCH  37  40
HETATM   40  C   UNL     1      19.101  49.904  48.508  1.00  0.00    -0.034 A 
HETATM   41  C   UNL     1      19.838  50.837  49.251  1.00  0.00     0.009 A 
HETATM   42  C   UNL     1      19.189  51.850  49.961  1.00  0.00     0.001 A 
HETATM   43  C   UNL     1      17.799  51.949  49.928  1.00  0.00     0.000 A 
HETATM   44  C   UNL     1      17.054  51.034  49.189  1.00  0.00     0.001 A 
HETATM   45  C   UNL     1      17.701  50.019  48.482  1.00  0.00     0.009 A 
ENDBRANCH  37  40
ENDBRANCH  32  33
ENDBRANCH   2  32
TORSDOF 10
ENDMDL
MODEL 9
REMARK VINA RESULT:      -8.3      3.099      8.190
REMARK  10 active torsions:
REMARK  status: ('A' for Active; 'I' for Inactive)
REMARK    1  A    between atoms: C_6  and  N_7 
REMARK    2  A    between atoms: C_6  and  C_29 
REMARK       I    between atoms: N_7  and  C_8 
REMARK    3  A    between atoms: N_7  and  C_23 
REMARK    4  A    between atoms: C_8  and  C_9 
REMARK    5  A    between atoms: C_9  and  N_10 
REMARK    6  A    between atoms: C_14  and  C_15 
REMARK    7  A    between atoms: C_23  and  C_24 
REMARK       I    between atoms: C_29  and  N_30 
REMARK    8  A    between atoms: N_30  and  C_31 
REMARK    9  A    between atoms: C_32  and  O_33 
REMARK   10  A    between atoms: C_36  and  O_37 
ROOT
HETATM    1  N   UNL     1      25.392  42.638  50.276  1.00  0.00    -0.326 N 
HETATM    2  C   UNL     1      26.266  41.612  50.711  1.00  0.00     0.239 C 
HETATM    3  O   UNL     1      27.162  41.837  51.525  1.00  0.00    -0.271 OA
ENDROOT
BRANCH   1   4
HETATM    4  C   UNL     1      25.773  44.073  50.564  1.00  0.00     0.120 C 
HETATM    5  C   UNL     1      26.921  44.554  49.641  1.00  0.00     0.069 C 
HETATM    6  C   UNL     1      27.278  46.029  49.796  1.00  0.00     0.237 C 
HETATM    7  N   UNL     1      26.049  46.896  49.719  1.00  0.00    -0.075 N 
HETATM    8  C   UNL     1      26.411  48.351  49.886  1.00  0.00     0.269 C 
HETATM    9  H   UNL     1      25.660  46.797  48.769  1.00  0.00     0.279 HD
HETATM   10  C   UNL     1      24.974  46.494  50.692  1.00  0.00     0.237 C 
HETATM   11  C   UNL     1      24.568  45.051  50.423  1.00  0.00     0.069 C 
BRANCH   4  12
HETATM   12  C   UNL     1      26.199  44.170  52.072  1.00  0.00     0.251 C 
HETATM   13  N   UNL     1      27.520  44.522  52.240  1.00  0.00    -0.323 N 
HETATM   14  H   UNL     1      28.037  44.844  51.425  1.00  0.00     0.169 HD
HETATM   15  O   UNL     1      25.440  43.794  52.961  1.00  0.00    -0.270 OA
BRANCH  13  16
HETATM   16  C   UNL     1      28.305  44.474  53.413  1.00  0.00     0.068 A 
HETATM   17  C   UNL     1      28.121  45.522  54.342  1.00  0.00     0.097 A 
HETATM   18  C   UNL     1      28.883  45.562  55.516  1.00  0.00     0.075 A 
HETATM   19  C   UNL     1      29.825  44.564  55.770  1.00  0.00     0.070 A 
HETATM   20  C   UNL     1      30.004  43.534  54.846  1.00  0.00     0.039 A 
HETATM   21  C   UNL     1      29.247  43.483  53.674  1.00  0.00     0.035 A 
BRANCH  17  22
HETATM   22  O   UNL     1      27.186  46.467  53.975  1.00  0.00    -0.354 OA
HETATM   23  C   UNL     1      26.948  47.534  54.890  1.00  0.00     0.210 C 
ENDBRANCH  17  22
BRANCH  19  24
HETATM   24  O   UNL     1      30.640  44.486  56.865  1.00  0.00    -0.356 OA
HETATM   25  C   UNL     1      31.434  43.314  57.005  1.00  0.00     0.210 C 
ENDBRANCH  19  24
ENDBRANCH  13  16
ENDBRANCH   4  12
ENDBRANCH   1   4
BRANCH   1  26
HETATM   26  C   UNL     1      23.957  42.311  50.407  1.00  0.00     0.192 C 
BRANCH  26  27
HETATM   27  C   UNL     1      23.249  42.137  49.114  1.00  0.00     0.070 A 
HETATM   28  O   UNL     1      22.472  43.202  48.756  1.00  0.00    -0.325 OA
HETATM   29  C   UNL     1      21.893  42.904  47.566  1.00  0.00     0.142 A 
HETATM   30  C   UNL     1      22.278  41.653  47.150  1.00  0.00     0.027 A 
HETATM   31  C   UNL     1      23.152  41.155  48.149  1.00  0.00     0.036 A 
ENDBRANCH  26  27
ENDBRANCH   1  26
BRANCH   2  32
HETATM   32  C   UNL     1      26.080  40.239  50.025  1.00  0.00     0.228 C 
BRANCH  32  33
HETATM   33  N   UNL     1      26.872  40.051  48.819  1.00  0.00    -0.347 N 
HETATM   34  C   UNL     1      27.653  38.950  48.470  1.00  0.00     0.171 C 
HETATM   35  S   UNL     1      27.950  37.575  49.340  1.00  0.00    -0.041 SA
HETATM   36  N   UNL     1      28.202  39.198  47.215  1.00  0.00    -0.357 N 
HETATM   37  C   UNL     1      28.016  40.586  46.857  1.00  0.00     0.135 C 
HETATM   38  H   UNL     1      28.947  38.617  46.850  1.00  0.00     0.162 HD
HETATM   39  C   UNL     1      26.816  40.997  47.717  1.00  0.00     0.155 C 
BRANCH  37  40
HETATM   40  C   UNL     1      27.839  40.855  45.389  1.00  0.00    -0.034 A 
HETATM   41  C   UNL     1      28.918  40.837  44.494  1.00  0.00     0.009 A 
HETATM   42  C   UNL     1      28.711  41.047  43.129  1.00  0.00     0.001 A 
HETATM   43  C   UNL     1      27.424  41.269  42.641  1.00  0.00     0.000 A 
HETATM   44  C   UNL     1      26.342  41.283  43.517  1.00  0.00     0.001 A 
HETATM   45  C   UNL     1      26.548  41.076  44.882  1.00  0.00     0.009 A 
ENDBRANCH  37  40
ENDBRANCH  32  33
ENDBRANCH   2  32
TORSDOF 10
ENDMDL
MODEL 10
REMARK VINA RESULT:      -8.3      3.901      7.234
REMARK  10 active torsions:
REMARK  status: ('A' for Active; 'I' for Inactive)
REMARK    1  A    between atoms: C_6  and  N_7 
REMARK    2  A    between atoms: C_6  and  C_29 
REMARK       I    between atoms: N_7  and  C_8 
REMARK    3  A    between atoms: N_7  and  C_23 
REMARK    4  A    between atoms: C_8  and  C_9 
REMARK    5  A    between atoms: C_9  and  N_10 
REMARK    6  A    between atoms: C_14  and  C_15 
REMARK    7  A    between atoms: C_23  and  C_24 
REMARK       I    between atoms: C_29  and  N_30 
REMARK    8  A    between atoms: N_30  and  C_31 
REMARK    9  A    between atoms: C_32  and  O_33 
REMARK   10  A    between atoms: C_36  and  O_37 
ROOT
HETATM    1  N   UNL     1      23.844  43.867  48.805  1.00  0.00    -0.326 N 
HETATM    2  C   UNL     1      24.967  44.448  49.443  1.00  0.00     0.239 C 
HETATM    3  O   UNL     1      24.931  45.599  49.877  1.00  0.00    -0.271 OA
ENDROOT
BRANCH   1   4
HETATM    4  C   UNL     1      22.718  44.778  48.368  1.00  0.00     0.120 C 
HETATM    5  C   UNL     1      21.451  44.573  49.236  1.00  0.00     0.069 C 
HETATM    6  C   UNL     1      20.313  45.541  48.926  1.00  0.00     0.237 C 
HETATM    7  N   UNL     1      20.800  46.966  48.911  1.00  0.00    -0.075 N 
HETATM    8  C   UNL     1      19.670  47.914  48.593  1.00  0.00     0.269 C 
HETATM    9  H   UNL     1      21.115  47.195  49.867  1.00  0.00     0.279 HD
HETATM   10  C   UNL     1      21.965  47.187  47.986  1.00  0.00     0.237 C 
HETATM   11  C   UNL     1      23.118  46.284  48.405  1.00  0.00     0.069 C 
BRANCH   4  12
HETATM   12  C   UNL     1      22.408  44.479  46.858  1.00  0.00     0.251 C 
HETATM   13  N   UNL     1      21.262  43.737  46.677  1.00  0.00    -0.323 N 
HETATM   14  H   UNL     1      20.648  43.600  47.477  1.00  0.00     0.169 HD
HETATM   15  O   UNL     1      23.227  44.753  45.986  1.00  0.00    -0.270 OA
BRANCH  13  16
HETATM   16  C   UNL     1      20.806  43.086  45.509  1.00  0.00     0.068 A 
HETATM   17  C   UNL     1      19.414  43.109  45.274  1.00  0.00     0.097 A 
HETATM   18  C   UNL     1      18.880  42.462  44.153  1.00  0.00     0.075 A 
HETATM   19  C   UNL     1      19.725  41.792  43.266  1.00  0.00     0.070 A 
HETATM   20  C   UNL     1      21.099  41.771  43.508  1.00  0.00     0.039 A 
HETATM   21  C   UNL     1      21.642  42.416  44.620  1.00  0.00     0.035 A 
BRANCH  17  22
HETATM   22  O   UNL     1      18.673  43.773  46.229  1.00  0.00    -0.354 OA
HETATM   23  C   UNL     1      17.612  44.604  45.765  1.00  0.00     0.210 C 
ENDBRANCH  17  22
BRANCH  19  24
HETATM   24  O   UNL     1      19.340  41.113  42.144  1.00  0.00    -0.356 OA
HETATM   25  C   UNL     1      20.064  39.934  41.815  1.00  0.00     0.210 C 
ENDBRANCH  19  24
ENDBRANCH  13  16
ENDBRANCH   4  12
ENDBRANCH   1   4
BRANCH   1  26
HETATM   26  C   UNL     1      23.438  42.558  49.357  1.00  0.00     0.192 C 
BRANCH  26  27
HETATM   27  C   UNL     1      23.315  41.479  48.346  1.00  0.00     0.070 A 
HETATM   28  O   UNL     1      22.052  40.974  48.219  1.00  0.00    -0.325 OA
HETATM   29  C   UNL     1      22.091  40.006  47.270  1.00  0.00     0.142 A 
HETATM   30  C   UNL     1      23.369  39.870  46.783  1.00  0.00     0.027 A 
HETATM   31  C   UNL     1      24.161  40.818  47.478  1.00  0.00     0.036 A 
ENDBRANCH  26  27
ENDBRANCH   1  26
BRANCH   2  32
HETATM   32  C   UNL     1      26.247  43.581  49.462  1.00  0.00     0.228 C 
BRANCH  32  33
HETATM   33  N   UNL     1      26.670  43.156  50.789  1.00  0.00    -0.347 N 
HETATM   34  C   UNL     1      26.745  41.857  51.289  1.00  0.00     0.171 C 
HETATM   35  S   UNL     1      26.324  40.438  50.549  1.00  0.00    -0.041 SA
HETATM   36  N   UNL     1      27.233  41.928  52.590  1.00  0.00    -0.357 N 
HETATM   37  C   UNL     1      27.210  43.297  53.055  1.00  0.00     0.135 C 
HETATM   38  H   UNL     1      27.192  41.124  53.205  1.00  0.00     0.162 HD
HETATM   39  C   UNL     1      27.230  44.095  51.746  1.00  0.00     0.155 C 
BRANCH  37  40
HETATM   40  C   UNL     1      28.303  43.670  54.016  1.00  0.00    -0.034 A 
HETATM   41  C   UNL     1      29.422  42.851  54.224  1.00  0.00     0.009 A 
HETATM   42  C   UNL     1      30.442  43.249  55.091  1.00  0.00     0.001 A 
HETATM   43  C   UNL     1      30.361  44.474  55.753  1.00  0.00     0.000 A 
HETATM   44  C   UNL     1      29.259  45.301  55.551  1.00  0.00     0.001 A 
HETATM   45  C   UNL     1      28.238  44.902  54.687  1.00  0.00     0.009 A 
ENDBRANCH  37  40
ENDBRANCH  32  33
ENDBRANCH   2  32
TORSDOF 10
ENDMDL
