MODEL 1
REMARK VINA RESULT:      -9.1      0.000      0.000
REMARK  8 active torsions:
REMARK  status: ('A' for Active; 'I' for Inactive)
REMARK    1  A    between atoms: O_2  and  C_3 
REMARK    2  A    between atoms: C_3  and  C_4 
REMARK    3  A    between atoms: C_6  and  C_7 
REMARK    4  A    between atoms: C_7  and  N_8 
REMARK    5  A    between atoms: C_17  and  C_18 
REMARK    6  A    between atoms: C_18  and  N_19 
REMARK    7  A    between atoms: C_23  and  O_24 
REMARK    8  A    between atoms: C_23  and  C_25 
ROOT
HETATM    1  N   UNL     1      22.199  50.362  48.405  1.00  0.00    -0.059 N 
HETATM    2  H   UNL     1      22.286  51.347  48.112  1.00  0.00     0.280 HD
HETATM    3  C   UNL     1      23.582  49.791  48.212  1.00  0.00     0.276 C 
HETATM    4  C   UNL     1      23.792  48.439  48.832  1.00  0.00     0.002 A 
HETATM    5  C   UNL     1      23.047  47.343  48.395  1.00  0.00     0.076 A 
HETATM    6  O   UNL     1      22.152  47.466  47.369  1.00  0.00    -0.349 OA
HETATM    7  C   UNL     1      20.991  48.220  47.743  1.00  0.00     0.203 C 
HETATM    8  C   UNL     1      21.175  49.724  47.486  1.00  0.00     0.262 C 
HETATM    9  C   UNL     1      24.749  48.243  49.846  1.00  0.00     0.020 A 
HETATM   10  C   UNL     1      24.966  46.970  50.408  1.00  0.00    -0.032 A 
HETATM   11  C   UNL     1      24.197  45.891  49.950  1.00  0.00     0.011 A 
HETATM   12  C   UNL     1      23.255  46.075  48.933  1.00  0.00     0.038 A 
ENDROOT
BRANCH  10  13
HETATM   13  C   UNL     1      26.012  46.785  51.485  1.00  0.00     0.273 C 
BRANCH  13  14
HETATM   14  N   UNL     1      26.076  45.399  52.106  1.00  0.00    -0.067 N 
HETATM   15  H   UNL     1      25.323  44.849  51.670  1.00  0.00     0.280 HD
HETATM   16  C   UNL     1      27.373  44.674  51.827  1.00  0.00     0.238 C 
HETATM   17  C   UNL     1      27.322  43.290  52.450  1.00  0.00     0.071 C 
HETATM   18  C   UNL     1      27.146  43.358  53.980  1.00  0.00     0.089 C 
HETATM   19  C   UNL     1      25.824  44.109  54.237  1.00  0.00     0.071 C 
HETATM   20  C   UNL     1      25.775  45.483  53.588  1.00  0.00     0.238 C 
BRANCH  18  21
HETATM   21  O   UNL     1      26.932  42.016  54.420  1.00  0.00    -0.385 OA
HETATM   22  H   UNL     1      27.486  41.825  55.201  1.00  0.00     0.211 HD
ENDBRANCH  18  21
BRANCH  18  23
HETATM   23  C   UNL     1      28.385  43.898  54.684  1.00  0.00    -0.006 A 
HETATM   24  C   UNL     1      28.418  45.117  55.357  1.00  0.00     0.126 A 
HETATM   25  N   UNL     1      29.521  45.654  55.923  1.00  0.00    -0.272 NA
HETATM   26  C   UNL     1      30.649  44.916  55.907  1.00  0.00     0.116 A 
HETATM   27  C   UNL     1      30.721  43.665  55.327  1.00  0.00     0.020 A 
HETATM   28  C   UNL     1      29.579  43.156  54.715  1.00  0.00     0.013 A 
ENDBRANCH  18  23
ENDBRANCH  13  14
ENDBRANCH  10  13
BRANCH   1  29
HETATM   29  C   UNL     1      21.735  50.471  49.843  1.00  0.00     0.299 C 
BRANCH  29  30
HETATM   30  C   UNL     1      20.266  50.579  50.007  1.00  0.00     0.079 A 
HETATM   31  O   UNL     1      19.697  51.763  49.640  1.00  0.00    -0.316 OA
HETATM   32  C   UNL     1      18.346  51.633  49.808  1.00  0.00     0.077 A 
HETATM   33  C   UNL     1      18.060  50.386  50.324  1.00  0.00     0.037 A 
HETATM   34  C   UNL     1      19.296  49.706  50.451  1.00  0.00     0.037 A 
BRANCH  32  35
HETATM   35  C   UNL     1      17.490  52.784  49.412  1.00  0.00     0.231 C 
BRANCH  35  36
HETATM   36  O   UNL     1      16.158  52.467  49.801  1.00  0.00    -0.390 OA
HETATM   37  C   UNL     1      15.473  53.616  50.289  1.00  0.00     0.201 C 
ENDBRANCH  35  36
ENDBRANCH  32  35
ENDBRANCH  29  30
ENDBRANCH   1  29
TORSDOF 8
ENDMDL
MODEL 2
REMARK VINA RESULT:      -9.0      5.499     12.516
REMARK  8 active torsions:
REMARK  status: ('A' for Active; 'I' for Inactive)
REMARK    1  A    between atoms: O_2  and  C_3 
REMARK    2  A    between atoms: C_3  and  C_4 
REMARK    3  A    between atoms: C_6  and  C_7 
REMARK    4  A    between atoms: C_7  and  N_8 
REMARK    5  A    between atoms: C_17  and  C_18 
REMARK    6  A    between atoms: C_18  and  N_19 
REMARK    7  A    between atoms: C_23  and  O_24 
REMARK    8  A    between atoms: C_23  and  C_25 
ROOT
HETATM    1  N   UNL     1      20.172  47.760  49.075  1.00  0.00    -0.059 N 
HETATM    2  H   UNL     1      21.004  47.685  49.680  1.00  0.00     0.280 HD
HETATM    3  C   UNL     1      19.168  48.513  49.911  1.00  0.00     0.276 C 
HETATM    4  C   UNL     1      17.964  48.999  49.154  1.00  0.00     0.002 A 
HETATM    5  C   UNL     1      17.098  48.086  48.553  1.00  0.00     0.076 A 
HETATM    6  O   UNL     1      17.298  46.739  48.680  1.00  0.00    -0.349 OA
HETATM    7  C   UNL     1      18.438  46.284  47.938  1.00  0.00     0.203 C 
HETATM    8  C   UNL     1      19.727  46.343  48.771  1.00  0.00     0.262 C 
HETATM    9  C   UNL     1      17.674  50.373  49.051  1.00  0.00     0.020 A 
HETATM   10  C   UNL     1      16.531  50.828  48.366  1.00  0.00    -0.032 A 
HETATM   11  C   UNL     1      15.683  49.883  47.769  1.00  0.00     0.011 A 
HETATM   12  C   UNL     1      15.957  48.517  47.880  1.00  0.00     0.038 A 
ENDROOT
BRANCH  10  13
HETATM   13  C   UNL     1      16.235  52.308  48.284  1.00  0.00     0.273 C 
BRANCH  13  14
HETATM   14  N   UNL     1      14.912  52.748  48.889  1.00  0.00    -0.067 N 
HETATM   15  H   UNL     1      14.211  52.053  48.595  1.00  0.00     0.280 HD
HETATM   16  C   UNL     1      14.915  52.762  50.400  1.00  0.00     0.238 C 
HETATM   17  C   UNL     1      13.543  53.171  50.905  1.00  0.00     0.071 C 
HETATM   18  C   UNL     1      13.156  54.585  50.427  1.00  0.00     0.089 C 
HETATM   19  C   UNL     1      13.168  54.546  48.886  1.00  0.00     0.071 C 
HETATM   20  C   UNL     1      14.495  54.082  48.305  1.00  0.00     0.238 C 
BRANCH  18  21
HETATM   21  O   UNL     1      11.792  54.779  50.808  1.00  0.00    -0.385 OA
HETATM   22  H   UNL     1      11.532  55.709  50.668  1.00  0.00     0.211 HD
ENDBRANCH  18  21
BRANCH  18  23
HETATM   23  C   UNL     1      13.994  55.672  51.088  1.00  0.00    -0.006 A 
HETATM   24  C   UNL     1      14.453  55.599  52.401  1.00  0.00     0.126 A 
HETATM   25  N   UNL     1      15.132  56.580  53.035  1.00  0.00    -0.272 NA
HETATM   26  C   UNL     1      15.459  57.673  52.316  1.00  0.00     0.116 A 
HETATM   27  C   UNL     1      15.115  57.830  50.988  1.00  0.00     0.020 A 
HETATM   28  C   UNL     1      14.380  56.820  50.374  1.00  0.00     0.013 A 
ENDBRANCH  18  23
ENDBRANCH  13  14
ENDBRANCH  10  13
BRANCH   1  29
HETATM   29  C   UNL     1      20.696  48.502  47.863  1.00  0.00     0.299 C 
BRANCH  29  30
HETATM   30  C   UNL     1      21.789  49.461  48.155  1.00  0.00     0.079 A 
HETATM   31  O   UNL     1      23.055  49.053  47.855  1.00  0.00    -0.316 OA
HETATM   32  C   UNL     1      23.894  50.094  48.137  1.00  0.00     0.077 A 
HETATM   33  C   UNL     1      23.170  51.146  48.658  1.00  0.00     0.037 A 
HETATM   34  C   UNL     1      21.813  50.740  48.668  1.00  0.00     0.037 A 
BRANCH  32  35
HETATM   35  C   UNL     1      25.340  49.914  47.833  1.00  0.00     0.231 C 
BRANCH  35  36
HETATM   36  O   UNL     1      25.908  49.191  48.921  1.00  0.00    -0.390 OA
HETATM   37  C   UNL     1      27.319  49.367  48.980  1.00  0.00     0.201 C 
ENDBRANCH  35  36
ENDBRANCH  32  35
ENDBRANCH  29  30
ENDBRANCH   1  29
TORSDOF 8
ENDMDL
MODEL 3
REMARK VINA RESULT:      -8.9      3.864      7.731
REMARK  8 active torsions:
REMARK  status: ('A' for Active; 'I' for Inactive)
REMARK    1  A    between atoms: O_2  and  C_3 
REMARK    2  A    between atoms: C_3  and  C_4 
REMARK    3  A    between atoms: C_6  and  C_7 
REMARK    4  A    between atoms: C_7  and  N_8 
REMARK    5  A    between atoms: C_17  and  C_18 
REMARK    6  A    between atoms: C_18  and  N_19 
REMARK    7  A    between atoms: C_23  and  O_24 
REMARK    8  A    between atoms: C_23  and  C_25 
ROOT
HETATM    1  N   UNL     1      25.796  46.865  53.915  1.00  0.00    -0.059 N 
HETATM    2  H   UNL     1      24.810  47.164  53.877  1.00  0.00     0.280 HD
HETATM    3  C   UNL     1      25.727  45.381  54.178  1.00  0.00     0.276 C 
HETATM    4  C   UNL     1      27.030  44.654  54.000  1.00  0.00     0.002 A 
HETATM    5  C   UNL     1      28.122  44.962  54.811  1.00  0.00     0.076 A 
HETATM    6  O   UNL     1      28.016  45.892  55.808  1.00  0.00    -0.349 OA
HETATM    7  C   UNL     1      27.901  47.228  55.300  1.00  0.00     0.203 C 
HETATM    8  C   UNL     1      26.437  47.627  55.059  1.00  0.00     0.262 C 
HETATM    9  C   UNL     1      27.172  43.640  53.034  1.00  0.00     0.020 A 
HETATM   10  C   UNL     1      28.384  42.938  52.885  1.00  0.00    -0.032 A 
HETATM   11  C   UNL     1      29.464  43.277  53.714  1.00  0.00     0.011 A 
HETATM   12  C   UNL     1      29.325  44.272  54.685  1.00  0.00     0.038 A 
ENDROOT
BRANCH  10  13
HETATM   13  C   UNL     1      28.504  41.844  51.850  1.00  0.00     0.273 C 
BRANCH  13  14
HETATM   14  N   UNL     1      27.223  41.497  51.109  1.00  0.00    -0.067 N 
HETATM   15  H   UNL     1      26.471  41.496  51.812  1.00  0.00     0.280 HD
HETATM   16  C   UNL     1      26.843  42.510  50.054  1.00  0.00     0.238 C 
HETATM   17  C   UNL     1      25.535  42.097  49.404  1.00  0.00     0.071 C 
HETATM   18  C   UNL     1      25.648  40.725  48.711  1.00  0.00     0.089 C 
HETATM   19  C   UNL     1      26.044  39.713  49.804  1.00  0.00     0.071 C 
HETATM   20  C   UNL     1      27.316  40.093  50.546  1.00  0.00     0.238 C 
BRANCH  18  21
HETATM   21  O   UNL     1      24.325  40.370  48.303  1.00  0.00    -0.385 OA
HETATM   22  H   UNL     1      23.783  41.173  48.183  1.00  0.00     0.211 HD
ENDBRANCH  18  21
BRANCH  18  23
HETATM   23  C   UNL     1      26.533  40.771  47.472  1.00  0.00    -0.006 A 
HETATM   24  C   UNL     1      27.882  41.115  47.501  1.00  0.00     0.126 A 
HETATM   25  N   UNL     1      28.669  41.238  46.410  1.00  0.00    -0.272 NA
HETATM   26  C   UNL     1      28.128  40.921  45.216  1.00  0.00     0.116 A 
HETATM   27  C   UNL     1      26.820  40.505  45.069  1.00  0.00     0.020 A 
HETATM   28  C   UNL     1      26.021  40.428  46.207  1.00  0.00     0.013 A 
ENDBRANCH  18  23
ENDBRANCH  13  14
ENDBRANCH  10  13
BRANCH   1  29
HETATM   29  C   UNL     1      26.328  47.260  52.552  1.00  0.00     0.299 C 
BRANCH  29  30
HETATM   30  C   UNL     1      25.426  46.929  51.422  1.00  0.00     0.079 A 
HETATM   31  O   UNL     1      24.698  47.958  50.903  1.00  0.00    -0.316 OA
HETATM   32  C   UNL     1      23.991  47.460  49.844  1.00  0.00     0.077 A 
HETATM   33  C   UNL     1      24.233  46.108  49.719  1.00  0.00     0.037 A 
HETATM   34  C   UNL     1      25.159  45.766  50.734  1.00  0.00     0.037 A 
BRANCH  32  35
HETATM   35  C   UNL     1      23.156  48.415  49.064  1.00  0.00     0.231 C 
BRANCH  35  36
HETATM   36  O   UNL     1      23.517  49.726  49.487  1.00  0.00    -0.390 OA
HETATM   37  C   UNL     1      22.415  50.622  49.397  1.00  0.00     0.201 C 
ENDBRANCH  35  36
ENDBRANCH  32  35
ENDBRANCH  29  30
ENDBRANCH   1  29
TORSDOF 8
ENDMDL
MODEL 4
REMARK VINA RESULT:      -8.8      2.981      7.170
REMARK  8 active torsions:
REMARK  status: ('A' for Active; 'I' for Inactive)
REMARK    1  A    between atoms: O_2  and  C_3 
REMARK    2  A    between atoms: C_3  and  C_4 
REMARK    3  A    between atoms: C_6  and  C_7 
REMARK    4  A    between atoms: C_7  and  N_8 
REMARK    5  A    between atoms: C_17  and  C_18 
REMARK    6  A    between atoms: C_18  and  N_19 
REMARK    7  A    between atoms: C_23  and  O_24 
REMARK    8  A    between atoms: C_23  and  C_25 
ROOT
HETATM    1  N   UNL     1      25.550  46.589  52.784  1.00  0.00    -0.059 N 
HETATM    2  H   UNL     1      24.613  46.931  52.523  1.00  0.00     0.280 HD
HETATM    3  C   UNL     1      25.293  45.256  53.441  1.00  0.00     0.276 C 
HETATM    4  C   UNL     1      26.522  44.421  53.663  1.00  0.00     0.002 A 
HETATM    5  C   UNL     1      27.538  44.878  54.502  1.00  0.00     0.076 A 
HETATM    6  O   UNL     1      27.416  46.064  55.172  1.00  0.00    -0.349 OA
HETATM    7  C   UNL     1      27.505  47.197  54.298  1.00  0.00     0.203 C 
HETATM    8  C   UNL     1      26.131  47.607  53.747  1.00  0.00     0.262 C 
HETATM    9  C   UNL     1      26.667  43.161  53.052  1.00  0.00     0.020 A 
HETATM   10  C   UNL     1      27.806  42.366  53.282  1.00  0.00    -0.032 A 
HETATM   11  C   UNL     1      28.811  42.857  54.127  1.00  0.00     0.011 A 
HETATM   12  C   UNL     1      28.667  44.101  54.749  1.00  0.00     0.038 A 
ENDROOT
BRANCH  10  13
HETATM   13  C   UNL     1      27.929  41.010  52.624  1.00  0.00     0.273 C 
BRANCH  13  14
HETATM   14  N   UNL     1      27.611  40.970  51.138  1.00  0.00    -0.067 N 
HETATM   15  H   UNL     1      28.359  40.419  50.694  1.00  0.00     0.280 HD
HETATM   16  C   UNL     1      26.305  40.279  50.820  1.00  0.00     0.238 C 
HETATM   17  C   UNL     1      26.099  40.254  49.316  1.00  0.00     0.071 C 
HETATM   18  C   UNL     1      26.031  41.675  48.724  1.00  0.00     0.089 C 
HETATM   19  C   UNL     1      27.368  42.359  49.069  1.00  0.00     0.071 C 
HETATM   20  C   UNL     1      27.675  42.368  50.558  1.00  0.00     0.238 C 
BRANCH  18  21
HETATM   21  O   UNL     1      26.020  41.519  47.304  1.00  0.00    -0.385 OA
HETATM   22  H   UNL     1      26.559  42.217  46.884  1.00  0.00     0.211 HD
ENDBRANCH  18  21
BRANCH  18  23
HETATM   23  C   UNL     1      24.762  42.414  49.132  1.00  0.00    -0.006 A 
HETATM   24  C   UNL     1      23.478  41.932  48.888  1.00  0.00     0.126 A 
HETATM   25  N   UNL     1      22.339  42.601  49.170  1.00  0.00    -0.272 NA
HETATM   26  C   UNL     1      22.455  43.783  49.809  1.00  0.00     0.116 A 
HETATM   27  C   UNL     1      23.671  44.332  50.160  1.00  0.00     0.020 A 
HETATM   28  C   UNL     1      24.830  43.639  49.820  1.00  0.00     0.013 A 
ENDBRANCH  18  23
ENDBRANCH  13  14
ENDBRANCH  10  13
BRANCH   1  29
HETATM   29  C   UNL     1      26.277  46.530  51.456  1.00  0.00     0.299 C 
BRANCH  29  30
HETATM   30  C   UNL     1      25.801  47.512  50.452  1.00  0.00     0.079 A 
HETATM   31  O   UNL     1      24.456  47.730  50.404  1.00  0.00    -0.316 OA
HETATM   32  C   UNL     1      24.237  48.704  49.468  1.00  0.00     0.077 A 
HETATM   33  C   UNL     1      25.435  49.070  48.891  1.00  0.00     0.037 A 
HETATM   34  C   UNL     1      26.443  48.304  49.525  1.00  0.00     0.037 A 
BRANCH  32  35
HETATM   35  C   UNL     1      22.836  49.167  49.273  1.00  0.00     0.231 C 
BRANCH  35  36
HETATM   36  O   UNL     1      22.644  50.287  50.132  1.00  0.00    -0.390 OA
HETATM   37  C   UNL     1      21.353  50.860  49.955  1.00  0.00     0.201 C 
ENDBRANCH  35  36
ENDBRANCH  32  35
ENDBRANCH  29  30
ENDBRANCH   1  29
TORSDOF 8
ENDMDL
MODEL 5
REMARK VINA RESULT:      -8.7      4.183      7.949
REMARK  8 active torsions:
REMARK  status: ('A' for Active; 'I' for Inactive)
REMARK    1  A    between atoms: O_2  and  C_3 
REMARK    2  A    between atoms: C_3  and  C_4 
REMARK    3  A    between atoms: C_6  and  C_7 
REMARK    4  A    between atoms: C_7  and  N_8 
REMARK    5  A    between atoms: C_17  and  C_18 
REMARK    6  A    between atoms: C_18  and  N_19 
REMARK    7  A    between atoms: C_23  and  O_24 
REMARK    8  A    between atoms: C_23  and  C_25 
ROOT
HETATM    1  N   UNL     1      25.825  46.671  53.691  1.00  0.00    -0.059 N 
HETATM    2  H   UNL     1      24.857  47.022  53.638  1.00  0.00     0.280 HD
HETATM    3  C   UNL     1      25.678  45.232  54.119  1.00  0.00     0.276 C 
HETATM    4  C   UNL     1      26.932  44.414  54.000  1.00  0.00     0.002 A 
HETATM    5  C   UNL     1      28.059  44.744  54.753  1.00  0.00     0.076 A 
HETATM    6  O   UNL     1      28.030  45.782  55.643  1.00  0.00    -0.349 OA
HETATM    7  C   UNL     1      27.980  47.059  54.992  1.00  0.00     0.203 C 
HETATM    8  C   UNL     1      26.536  47.515  54.732  1.00  0.00     0.262 C 
HETATM    9  C   UNL     1      26.994  43.293  53.150  1.00  0.00     0.020 A 
HETATM   10  C   UNL     1      28.160  42.509  53.060  1.00  0.00    -0.032 A 
HETATM   11  C   UNL     1      29.277  42.872  53.826  1.00  0.00     0.011 A 
HETATM   12  C   UNL     1      29.218  43.975  54.684  1.00  0.00     0.038 A 
ENDROOT
BRANCH  10  13
HETATM   13  C   UNL     1      28.193  41.302  52.150  1.00  0.00     0.273 C 
BRANCH  13  14
HETATM   14  N   UNL     1      27.497  41.471  50.809  1.00  0.00    -0.067 N 
HETATM   15  H   UNL     1      27.321  42.479  50.697  1.00  0.00     0.280 HD
HETATM   16  C   UNL     1      28.340  41.034  49.633  1.00  0.00     0.238 C 
HETATM   17  C   UNL     1      27.576  41.280  48.344  1.00  0.00     0.071 C 
HETATM   18  C   UNL     1      26.260  40.479  48.297  1.00  0.00     0.089 C 
HETATM   19  C   UNL     1      25.424  40.936  49.509  1.00  0.00     0.071 C 
HETATM   20  C   UNL     1      26.150  40.778  50.837  1.00  0.00     0.238 C 
BRANCH  18  21
HETATM   21  O   UNL     1      25.556  40.930  47.138  1.00  0.00    -0.385 OA
HETATM   22  H   UNL     1      24.885  41.594  47.389  1.00  0.00     0.211 HD
ENDBRANCH  18  21
BRANCH  18  23
HETATM   23  C   UNL     1      26.496  38.981  48.158  1.00  0.00    -0.006 A 
HETATM   24  C   UNL     1      26.715  38.345  46.939  1.00  0.00     0.126 A 
HETATM   25  N   UNL     1      26.851  37.010  46.779  1.00  0.00    -0.272 NA
HETATM   26  C   UNL     1      26.859  36.250  47.893  1.00  0.00     0.116 A 
HETATM   27  C   UNL     1      26.716  36.773  49.162  1.00  0.00     0.020 A 
HETATM   28  C   UNL     1      26.536  38.148  49.292  1.00  0.00     0.013 A 
ENDBRANCH  18  23
ENDBRANCH  13  14
ENDBRANCH  10  13
BRANCH   1  29
HETATM   29  C   UNL     1      26.346  46.882  52.285  1.00  0.00     0.299 C 
BRANCH  29  30
HETATM   30  C   UNL     1      25.319  46.748  51.223  1.00  0.00     0.079 A 
HETATM   31  O   UNL     1      24.699  47.896  50.827  1.00  0.00    -0.316 OA
HETATM   32  C   UNL     1      23.847  47.566  49.810  1.00  0.00     0.077 A 
HETATM   33  C   UNL     1      23.889  46.205  49.592  1.00  0.00     0.037 A 
HETATM   34  C   UNL     1      24.838  45.678  50.501  1.00  0.00     0.037 A 
BRANCH  32  35
HETATM   35  C   UNL     1      23.091  48.672  49.160  1.00  0.00     0.231 C 
BRANCH  35  36
HETATM   36  O   UNL     1      23.887  49.847  49.280  1.00  0.00    -0.390 OA
HETATM   37  C   UNL     1      24.604  50.113  48.080  1.00  0.00     0.201 C 
ENDBRANCH  35  36
ENDBRANCH  32  35
ENDBRANCH  29  30
ENDBRANCH   1  29
TORSDOF 8
ENDMDL
MODEL 6
REMARK VINA RESULT:      -8.5      2.824      9.774
REMARK  8 active torsions:
REMARK  status: ('A' for Active; 'I' for Inactive)
REMARK    1  A    between atoms: O_2  and  C_3 
REMARK    2  A    between atoms: C_3  and  C_4 
REMARK    3  A    between atoms: C_6  and  C_7 
REMARK    4  A    between atoms: C_7  and  N_8 
REMARK    5  A    between atoms: C_17  and  C_18 
REMARK    6  A    between atoms: C_18  and  N_19 
REMARK    7  A    between atoms: C_23  and  O_24 
REMARK    8  A    between atoms: C_23  and  C_25 
ROOT
HETATM    1  N   UNL     1      25.428  46.843  50.272  1.00  0.00    -0.059 N 
HETATM    2  H   UNL     1      25.482  45.824  50.422  1.00  0.00     0.280 HD
HETATM    3  C   UNL     1      24.276  47.020  49.315  1.00  0.00     0.276 C 
HETATM    4  C   UNL     1      23.811  48.440  49.154  1.00  0.00     0.002 A 
HETATM    5  C   UNL     1      24.671  49.405  48.631  1.00  0.00     0.076 A 
HETATM    6  O   UNL     1      25.929  49.072  48.213  1.00  0.00    -0.349 OA
HETATM    7  C   UNL     1      26.803  48.756  49.306  1.00  0.00     0.203 C 
HETATM    8  C   UNL     1      26.754  47.263  49.667  1.00  0.00     0.262 C 
HETATM    9  C   UNL     1      22.502  48.822  49.505  1.00  0.00     0.020 A 
HETATM   10  C   UNL     1      22.056  50.145  49.328  1.00  0.00    -0.032 A 
HETATM   11  C   UNL     1      22.948  51.092  48.805  1.00  0.00     0.011 A 
HETATM   12  C   UNL     1      24.244  50.717  48.440  1.00  0.00     0.038 A 
ENDROOT
BRANCH  10  13
HETATM   13  C   UNL     1      20.640  50.525  49.699  1.00  0.00     0.273 C 
BRANCH  13  14
HETATM   14  N   UNL     1      19.544  49.768  48.967  1.00  0.00    -0.067 N 
HETATM   15  H   UNL     1      18.727  50.393  48.937  1.00  0.00     0.280 HD
HETATM   16  C   UNL     1      19.897  49.430  47.537  1.00  0.00     0.238 C 
HETATM   17  C   UNL     1      18.727  48.716  46.883  1.00  0.00     0.071 C 
HETATM   18  C   UNL     1      18.388  47.395  47.602  1.00  0.00     0.089 C 
HETATM   19  C   UNL     1      18.042  47.765  49.058  1.00  0.00     0.071 C 
HETATM   20  C   UNL     1      19.144  48.541  49.762  1.00  0.00     0.238 C 
BRANCH  18  21
HETATM   21  O   UNL     1      17.176  46.917  47.016  1.00  0.00    -0.385 OA
HETATM   22  H   UNL     1      17.274  45.980  46.758  1.00  0.00     0.211 HD
ENDBRANCH  18  21
BRANCH  18  23
HETATM   23  C   UNL     1      19.464  46.334  47.406  1.00  0.00    -0.006 A 
HETATM   24  C   UNL     1      19.710  45.310  48.318  1.00  0.00     0.126 A 
HETATM   25  N   UNL     1      20.706  44.404  48.206  1.00  0.00    -0.272 NA
HETATM   26  C   UNL     1      21.460  44.444  47.089  1.00  0.00     0.116 A 
HETATM   27  C   UNL     1      21.268  45.372  46.085  1.00  0.00     0.020 A 
HETATM   28  C   UNL     1      20.261  46.320  46.248  1.00  0.00     0.013 A 
ENDBRANCH  18  23
ENDBRANCH  13  14
ENDBRANCH  10  13
BRANCH   1  29
HETATM   29  C   UNL     1      25.202  47.383  51.669  1.00  0.00     0.299 C 
BRANCH  29  30
HETATM   30  C   UNL     1      26.036  46.745  52.716  1.00  0.00     0.079 A 
HETATM   31  O   UNL     1      26.377  45.440  52.512  1.00  0.00    -0.316 OA
HETATM   32  C   UNL     1      27.188  45.067  53.548  1.00  0.00     0.077 A 
HETATM   33  C   UNL     1      27.325  46.117  54.432  1.00  0.00     0.037 A 
HETATM   34  C   UNL     1      26.584  47.198  53.896  1.00  0.00     0.037 A 
BRANCH  32  35
HETATM   35  C   UNL     1      27.748  43.688  53.520  1.00  0.00     0.231 C 
BRANCH  35  36
HETATM   36  O   UNL     1      29.166  43.815  53.491  1.00  0.00    -0.390 OA
HETATM   37  C   UNL     1      29.766  43.188  54.619  1.00  0.00     0.201 C 
ENDBRANCH  35  36
ENDBRANCH  32  35
ENDBRANCH  29  30
ENDBRANCH   1  29
TORSDOF 8
ENDMDL
MODEL 7
REMARK VINA RESULT:      -8.4      3.507      6.813
REMARK  8 active torsions:
REMARK  status: ('A' for Active; 'I' for Inactive)
REMARK    1  A    between atoms: O_2  and  C_3 
REMARK    2  A    between atoms: C_3  and  C_4 
REMARK    3  A    between atoms: C_6  and  C_7 
REMARK    4  A    between atoms: C_7  and  N_8 
REMARK    5  A    between atoms: C_17  and  C_18 
REMARK    6  A    between atoms: C_18  and  N_19 
REMARK    7  A    between atoms: C_23  and  O_24 
REMARK    8  A    between atoms: C_23  and  C_25 
ROOT
HETATM    1  N   UNL     1      21.706  44.182  47.416  1.00  0.00    -0.059 N 
HETATM    2  H   UNL     1      21.212  43.277  47.439  1.00  0.00     0.280 HD
HETATM    3  C   UNL     1      21.850  44.568  48.867  1.00  0.00     0.276 C 
HETATM    4  C   UNL     1      22.785  45.716  49.118  1.00  0.00     0.002 A 
HETATM    5  C   UNL     1      22.506  46.977  48.590  1.00  0.00     0.076 A 
HETATM    6  O   UNL     1      21.360  47.203  47.879  1.00  0.00    -0.349 OA
HETATM    7  C   UNL     1      21.381  46.569  46.592  1.00  0.00     0.203 C 
HETATM    8  C   UNL     1      20.818  45.141  46.646  1.00  0.00     0.262 C 
HETATM    9  C   UNL     1      23.944  45.554  49.901  1.00  0.00     0.020 A 
HETATM   10  C   UNL     1      24.807  46.636  50.160  1.00  0.00    -0.032 A 
HETATM   11  C   UNL     1      24.499  47.889  49.610  1.00  0.00     0.011 A 
HETATM   12  C   UNL     1      23.343  48.061  48.844  1.00  0.00     0.038 A 
ENDROOT
BRANCH  10  13
HETATM   13  C   UNL     1      26.036  46.438  51.017  1.00  0.00     0.273 C 
BRANCH  13  14
HETATM   14  N   UNL     1      26.103  45.121  51.774  1.00  0.00    -0.067 N 
HETATM   15  H   UNL     1      25.394  44.505  51.352  1.00  0.00     0.280 HD
HETATM   16  C   UNL     1      27.435  44.418  51.643  1.00  0.00     0.238 C 
HETATM   17  C   UNL     1      27.386  43.100  52.395  1.00  0.00     0.071 C 
HETATM   18  C   UNL     1      27.116  43.309  53.898  1.00  0.00     0.089 C 
HETATM   19  C   UNL     1      25.760  44.034  54.004  1.00  0.00     0.071 C 
HETATM   20  C   UNL     1      25.710  45.337  53.221  1.00  0.00     0.238 C 
BRANCH  18  21
HETATM   21  O   UNL     1      26.915  42.008  54.455  1.00  0.00    -0.385 OA
HETATM   22  H   UNL     1      27.390  41.928  55.304  1.00  0.00     0.211 HD
ENDBRANCH  18  21
BRANCH  18  23
HETATM   23  C   UNL     1      28.294  43.957  54.615  1.00  0.00    -0.006 A 
HETATM   24  C   UNL     1      28.225  45.199  55.242  1.00  0.00     0.126 A 
HETATM   25  N   UNL     1      29.272  45.830  55.817  1.00  0.00    -0.272 NA
HETATM   26  C   UNL     1      30.447  45.169  55.861  1.00  0.00     0.116 A 
HETATM   27  C   UNL     1      30.620  43.906  55.332  1.00  0.00     0.020 A 
HETATM   28  C   UNL     1      29.533  43.299  54.708  1.00  0.00     0.013 A 
ENDBRANCH  18  23
ENDBRANCH  13  14
ENDBRANCH  10  13
BRANCH   1  29
HETATM   29  C   UNL     1      22.999  43.849  46.700  1.00  0.00     0.299 C 
BRANCH  29  30
HETATM   30  C   UNL     1      23.577  42.531  47.059  1.00  0.00     0.079 A 
HETATM   31  O   UNL     1      24.464  42.516  48.094  1.00  0.00    -0.316 OA
HETATM   32  C   UNL     1      24.823  41.213  48.300  1.00  0.00     0.077 A 
HETATM   33  C   UNL     1      24.202  40.407  47.370  1.00  0.00     0.037 A 
HETATM   34  C   UNL     1      23.398  41.255  46.570  1.00  0.00     0.037 A 
BRANCH  32  35
HETATM   35  C   UNL     1      25.748  40.926  49.431  1.00  0.00     0.231 C 
BRANCH  35  36
HETATM   36  O   UNL     1      26.735  40.022  48.944  1.00  0.00    -0.390 OA
HETATM   37  C   UNL     1      27.962  40.691  48.675  1.00  0.00     0.201 C 
ENDBRANCH  35  36
ENDBRANCH  32  35
ENDBRANCH  29  30
ENDBRANCH   1  29
TORSDOF 8
ENDMDL
MODEL 8
REMARK VINA RESULT:      -8.3      3.970      9.236
REMARK  8 active torsions:
REMARK  status: ('A' for Active; 'I' for Inactive)
REMARK    1  A    between atoms: O_2  and  C_3 
REMARK    2  A    between atoms: C_3  and  C_4 
REMARK    3  A    between atoms: C_6  and  C_7 
REMARK    4  A    between atoms: C_7  and  N_8 
REMARK    5  A    between atoms: C_17  and  C_18 
REMARK    6  A    between atoms: C_18  and  N_19 
REMARK    7  A    between atoms: C_23  and  O_24 
REMARK    8  A    between atoms: C_23  and  C_25 
ROOT
HETATM    1  N   UNL     1      22.925  44.933  48.912  1.00  0.00    -0.059 N 
HETATM    2  H   UNL     1      23.440  44.568  49.728  1.00  0.00     0.280 HD
HETATM    3  C   UNL     1      21.501  44.494  49.140  1.00  0.00     0.276 C 
HETATM    4  C   UNL     1      20.495  45.139  48.230  1.00  0.00     0.002 A 
HETATM    5  C   UNL     1      20.562  44.934  46.852  1.00  0.00     0.076 A 
HETATM    6  O   UNL     1      21.508  44.109  46.310  1.00  0.00    -0.349 OA
HETATM    7  C   UNL     1      22.827  44.668  46.382  1.00  0.00     0.203 C 
HETATM    8  C   UNL     1      23.542  44.286  47.686  1.00  0.00     0.262 C 
HETATM    9  C   UNL     1      19.459  45.943  48.742  1.00  0.00     0.020 A 
HETATM   10  C   UNL     1      18.499  46.526  47.893  1.00  0.00    -0.032 A 
HETATM   11  C   UNL     1      18.598  46.303  46.512  1.00  0.00     0.011 A 
HETATM   12  C   UNL     1      19.616  45.494  45.997  1.00  0.00     0.038 A 
ENDROOT
BRANCH  10  13
HETATM   13  C   UNL     1      17.387  47.372  48.471  1.00  0.00     0.273 C 
BRANCH  13  14
HETATM   14  N   UNL     1      17.627  48.873  48.451  1.00  0.00    -0.067 N 
HETATM   15  H   UNL     1      16.700  49.315  48.375  1.00  0.00     0.280 HD
HETATM   16  C   UNL     1      18.266  49.399  49.715  1.00  0.00     0.238 C 
HETATM   17  C   UNL     1      18.424  50.905  49.613  1.00  0.00     0.071 C 
HETATM   18  C   UNL     1      19.329  51.308  48.432  1.00  0.00     0.089 C 
HETATM   19  C   UNL     1      18.660  50.753  47.159  1.00  0.00     0.071 C 
HETATM   20  C   UNL     1      18.411  49.254  47.212  1.00  0.00     0.238 C 
BRANCH  18  21
HETATM   21  O   UNL     1      19.251  52.731  48.332  1.00  0.00    -0.385 OA
HETATM   22  H   UNL     1      19.878  53.056  47.658  1.00  0.00     0.211 HD
ENDBRANCH  18  21
BRANCH  18  23
HETATM   23  C   UNL     1      20.786  50.924  48.660  1.00  0.00    -0.006 A 
HETATM   24  C   UNL     1      21.400  50.940  49.909  1.00  0.00     0.126 A 
HETATM   25  N   UNL     1      22.708  50.679  50.127  1.00  0.00    -0.272 NA
HETATM   26  C   UNL     1      23.449  50.294  49.069  1.00  0.00     0.116 A 
HETATM   27  C   UNL     1      22.935  50.179  47.793  1.00  0.00     0.020 A 
HETATM   28  C   UNL     1      21.594  50.495  47.592  1.00  0.00     0.013 A 
ENDBRANCH  18  23
ENDBRANCH  13  14
ENDBRANCH  10  13
BRANCH   1  29
HETATM   29  C   UNL     1      23.167  46.427  48.993  1.00  0.00     0.299 C 
BRANCH  29  30
HETATM   30  C   UNL     1      24.419  46.809  49.689  1.00  0.00     0.079 A 
HETATM   31  O   UNL     1      25.454  47.217  48.901  1.00  0.00    -0.316 OA
HETATM   32  C   UNL     1      26.478  47.580  49.731  1.00  0.00     0.077 A 
HETATM   33  C   UNL     1      26.111  47.360  51.043  1.00  0.00     0.037 A 
HETATM   34  C   UNL     1      24.785  46.865  51.016  1.00  0.00     0.037 A 
BRANCH  32  35
HETATM   35  C   UNL     1      27.712  48.126  49.104  1.00  0.00     0.231 C 
BRANCH  35  36
HETATM   36  O   UNL     1      27.656  49.543  49.236  1.00  0.00    -0.390 OA
HETATM   37  C   UNL     1      26.813  50.123  48.246  1.00  0.00     0.201 C 
ENDBRANCH  35  36
ENDBRANCH  32  35
ENDBRANCH  29  30
ENDBRANCH   1  29
TORSDOF 8
ENDMDL
MODEL 9
REMARK VINA RESULT:      -8.2      4.932      8.070
REMARK  8 active torsions:
REMARK  status: ('A' for Active; 'I' for Inactive)
REMARK    1  A    between atoms: O_2  and  C_3 
REMARK    2  A    between atoms: C_3  and  C_4 
REMARK    3  A    between atoms: C_6  and  C_7 
REMARK    4  A    between atoms: C_7  and  N_8 
REMARK    5  A    between atoms: C_17  and  C_18 
REMARK    6  A    between atoms: C_18  and  N_19 
REMARK    7  A    between atoms: C_23  and  O_24 
REMARK    8  A    between atoms: C_23  and  C_25 
ROOT
HETATM    1  N   UNL     1      25.334  46.463  51.596  1.00  0.00    -0.059 N 
HETATM    2  H   UNL     1      24.549  46.965  51.155  1.00  0.00     0.280 HD
HETATM    3  C   UNL     1      24.800  45.074  51.841  1.00  0.00     0.276 C 
HETATM    4  C   UNL     1      25.842  44.061  52.223  1.00  0.00     0.002 A 
HETATM    5  C   UNL     1      26.574  44.218  53.401  1.00  0.00     0.076 A 
HETATM    6  O   UNL     1      26.325  45.261  54.248  1.00  0.00    -0.349 OA
HETATM    7  C   UNL     1      26.755  46.519  53.708  1.00  0.00     0.203 C 
HETATM    8  C   UNL     1      25.650  47.198  52.885  1.00  0.00     0.262 C 
HETATM    9  C   UNL     1      26.090  42.932  51.421  1.00  0.00     0.020 A 
HETATM   10  C   UNL     1      27.047  41.968  51.792  1.00  0.00    -0.032 A 
HETATM   11  C   UNL     1      27.768  42.158  52.980  1.00  0.00     0.011 A 
HETATM   12  C   UNL     1      27.517  43.270  53.789  1.00  0.00     0.038 A 
ENDROOT
BRANCH  10  13
HETATM   13  C   UNL     1      27.282  40.756  50.919  1.00  0.00     0.273 C 
BRANCH  13  14
HETATM   14  N   UNL     1      27.159  40.992  49.422  1.00  0.00    -0.067 N 
HETATM   15  H   UNL     1      27.084  42.011  49.292  1.00  0.00     0.280 HD
HETATM   16  C   UNL     1      28.366  40.532  48.638  1.00  0.00     0.238 C 
HETATM   17  C   UNL     1      28.164  40.848  47.167  1.00  0.00     0.071 C 
HETATM   18  C   UNL     1      26.931  40.124  46.590  1.00  0.00     0.089 C 
HETATM   19  C   UNL     1      25.717  40.603  47.411  1.00  0.00     0.071 C 
HETATM   20  C   UNL     1      25.873  40.377  48.907  1.00  0.00     0.238 C 
BRANCH  18  21
HETATM   21  O   UNL     1      26.744  40.638  45.270  1.00  0.00    -0.385 OA
HETATM   22  H   UNL     1      27.427  40.281  44.670  1.00  0.00     0.211 HD
ENDBRANCH  18  21
BRANCH  18  23
HETATM   23  C   UNL     1      27.135  38.618  46.491  1.00  0.00    -0.006 A 
HETATM   24  C   UNL     1      26.155  37.684  46.819  1.00  0.00     0.126 A 
HETATM   25  N   UNL     1      26.335  36.345  46.814  1.00  0.00    -0.272 NA
HETATM   26  C   UNL     1      27.523  35.880  46.377  1.00  0.00     0.116 A 
HETATM   27  C   UNL     1      28.548  36.706  45.964  1.00  0.00     0.020 A 
HETATM   28  C   UNL     1      28.348  38.084  46.020  1.00  0.00     0.013 A 
ENDBRANCH  18  23
ENDBRANCH  13  14
ENDBRANCH  10  13
BRANCH   1  29
HETATM   29  C   UNL     1      26.434  46.563  50.558  1.00  0.00     0.299 C 
BRANCH  29  30
HETATM   30  C   UNL     1      26.404  47.807  49.752  1.00  0.00     0.079 A 
HETATM   31  O   UNL     1      25.176  48.248  49.357  1.00  0.00    -0.316 OA
HETATM   32  C   UNL     1      25.364  49.426  48.689  1.00  0.00     0.077 A 
HETATM   33  C   UNL     1      26.712  49.710  48.619  1.00  0.00     0.037 A 
HETATM   34  C   UNL     1      27.382  48.668  49.304  1.00  0.00     0.037 A 
BRANCH  32  35
HETATM   35  C   UNL     1      24.153  50.145  48.207  1.00  0.00     0.231 C 
BRANCH  35  36
HETATM   36  O   UNL     1      23.055  49.679  48.986  1.00  0.00    -0.390 OA
HETATM   37  C   UNL     1      22.330  50.762  49.560  1.00  0.00     0.201 C 
ENDBRANCH  35  36
ENDBRANCH  32  35
ENDBRANCH  29  30
ENDBRANCH   1  29
TORSDOF 8
ENDMDL
MODEL 10
REMARK VINA RESULT:      -8.2      4.813      8.206
REMARK  8 active torsions:
REMARK  status: ('A' for Active; 'I' for Inactive)
REMARK    1  A    between atoms: O_2  and  C_3 
REMARK    2  A    between atoms: C_3  and  C_4 
REMARK    3  A    between atoms: C_6  and  C_7 
REMARK    4  A    between atoms: C_7  and  N_8 
REMARK    5  A    between atoms: C_17  and  C_18 
REMARK    6  A    between atoms: C_18  and  N_19 
REMARK    7  A    between atoms: C_23  and  O_24 
REMARK    8  A    between atoms: C_23  and  C_25 
ROOT
HETATM    1  N   UNL     1      25.670  46.254  53.609  1.00  0.00    -0.059 N 
HETATM    2  H   UNL     1      24.715  46.622  53.736  1.00  0.00     0.280 HD
HETATM    3  C   UNL     1      25.489  44.759  53.528  1.00  0.00     0.276 C 
HETATM    4  C   UNL     1      26.703  44.006  53.063  1.00  0.00     0.002 A 
HETATM    5  C   UNL     1      27.877  44.036  53.815  1.00  0.00     0.076 A 
HETATM    6  O   UNL     1      27.932  44.706  55.005  1.00  0.00    -0.349 OA
HETATM    7  C   UNL     1      27.900  46.130  54.833  1.00  0.00     0.203 C 
HETATM    8  C   UNL     1      26.464  46.676  54.831  1.00  0.00     0.262 C 
HETATM    9  C   UNL     1      26.679  43.244  51.880  1.00  0.00     0.020 A 
HETATM   10  C   UNL     1      27.807  42.515  51.458  1.00  0.00    -0.032 A 
HETATM   11  C   UNL     1      28.974  42.571  52.234  1.00  0.00     0.011 A 
HETATM   12  C   UNL     1      29.000  43.314  53.419  1.00  0.00     0.038 A 
ENDROOT
BRANCH  10  13
HETATM   13  C   UNL     1      27.749  41.693  50.190  1.00  0.00     0.273 C 
BRANCH  13  14
HETATM   14  N   UNL     1      27.706  40.186  50.387  1.00  0.00    -0.067 N 
HETATM   15  H   UNL     1      27.675  40.025  51.404  1.00  0.00     0.280 HD
HETATM   16  C   UNL     1      26.477  39.536  49.797  1.00  0.00     0.238 C 
HETATM   17  C   UNL     1      26.507  38.045  50.081  1.00  0.00     0.071 C 
HETATM   18  C   UNL     1      27.740  37.367  49.451  1.00  0.00     0.089 C 
HETATM   19  C   UNL     1      28.978  38.053  50.061  1.00  0.00     0.071 C 
HETATM   20  C   UNL     1      28.987  39.562  49.871  1.00  0.00     0.238 C 
BRANCH  18  21
HETATM   21  O   UNL     1      27.752  36.023  49.936  1.00  0.00    -0.385 OA
HETATM   22  H   UNL     1      26.861  35.768  50.242  1.00  0.00     0.211 HD
ENDBRANCH  18  21
BRANCH  18  23
HETATM   23  C   UNL     1      27.665  37.325  47.930  1.00  0.00    -0.006 A 
HETATM   24  C   UNL     1      28.771  37.485  47.099  1.00  0.00     0.126 A 
HETATM   25  N   UNL     1      28.722  37.528  45.750  1.00  0.00    -0.272 NA
HETATM   26  C   UNL     1      27.525  37.315  45.166  1.00  0.00     0.116 A 
HETATM   27  C   UNL     1      26.369  37.081  45.883  1.00  0.00     0.020 A 
HETATM   28  C   UNL     1      26.444  37.084  47.274  1.00  0.00     0.013 A 
ENDBRANCH  18  23
ENDBRANCH  13  14
ENDBRANCH  10  13
BRANCH   1  29
HETATM   29  C   UNL     1      26.130  46.924  52.330  1.00  0.00     0.299 C 
BRANCH  29  30
HETATM   30  C   UNL     1      25.162  46.836  51.210  1.00  0.00     0.079 A 
HETATM   31  O   UNL     1      24.757  48.016  50.660  1.00  0.00    -0.316 OA
HETATM   32  C   UNL     1      23.928  47.713  49.616  1.00  0.00     0.077 A 
HETATM   33  C   UNL     1      23.770  46.345  49.530  1.00  0.00     0.037 A 
HETATM   34  C   UNL     1      24.566  45.780  50.556  1.00  0.00     0.037 A 
BRANCH  32  35
HETATM   35  C   UNL     1      23.398  48.845  48.808  1.00  0.00     0.231 C 
BRANCH  35  36
HETATM   36  O   UNL     1      23.426  50.000  49.641  1.00  0.00    -0.390 OA
HETATM   37  C   UNL     1      22.476  50.971  49.214  1.00  0.00     0.201 C 
ENDBRANCH  35  36
ENDBRANCH  32  35
ENDBRANCH  29  30
ENDBRANCH   1  29
TORSDOF 8
ENDMDL
