MODEL 1
REMARK VINA RESULT:     -10.4      0.000      0.000
REMARK  2 active torsions:
REMARK  status: ('A' for Active; 'I' for Inactive)
REMARK    1  A    between atoms: C_2  and  C_3 
REMARK    2  A    between atoms: N_9  and  C_10 
ROOT
HETATM    1  C   UNL     1      22.412  50.001  48.412  1.00  0.00     0.047 A 
HETATM    2  N   UNL     1      22.569  49.087  49.437  1.00  0.00    -0.344 N 
HETATM    3  C   UNL     1      23.785  48.522  49.715  1.00  0.00     0.119 A 
HETATM    4  C   UNL     1      24.892  48.898  49.054  1.00  0.00     0.123 A 
HETATM    5  C   UNL     1      26.020  48.171  49.655  1.00  0.00     0.280 A 
HETATM    6  O   UNL     1      27.184  48.280  49.316  1.00  0.00    -0.265 OA
HETATM    7  N   UNL     1      25.451  47.377  50.664  1.00  0.00    -0.236 N 
HETATM    8  N   UNL     1      24.052  47.568  50.679  1.00  0.00    -0.179 NA
HETATM    9  C   UNL     1      24.821  49.909  47.996  1.00  0.00     0.193 A 
HETATM   10  O   UNL     1      25.792  50.314  47.371  1.00  0.00    -0.287 OA
HETATM   11  C   UNL     1      23.461  50.446  47.694  1.00  0.00     0.086 A 
HETATM   12  H   UNL     1      21.740  48.616  49.787  1.00  0.00     0.167 HD
HETATM   13  H   UNL     1      23.714  47.881  51.590  1.00  0.00     0.155 HD
ENDROOT
BRANCH   1  14
HETATM   14  C   UNL     1      21.050  50.502  48.142  1.00  0.00    -0.009 A 
HETATM   15  C   UNL     1      20.578  51.681  48.739  1.00  0.00     0.015 A 
HETATM   16  C   UNL     1      19.289  52.148  48.467  1.00  0.00     0.024 A 
HETATM   17  C   UNL     1      18.464  51.442  47.595  1.00  0.00     0.034 A 
HETATM   18  C   UNL     1      18.918  50.273  46.989  1.00  0.00     0.024 A 
HETATM   19 CL   UNL     1      16.879  52.017  47.261  1.00  0.00    -0.084 Cl
HETATM   20  C   UNL     1      20.207  49.805  47.262  1.00  0.00     0.015 A 
ENDBRANCH   1  14
BRANCH   7  21
HETATM   21  C   UNL     1      26.064  46.463  51.547  1.00  0.00     0.055 A 
HETATM   22  C   UNL     1      26.560  45.231  51.092  1.00  0.00     0.034 A 
HETATM   23  C   UNL     1      27.179  44.336  51.971  1.00  0.00     0.044 A 
HETATM   24  C   UNL     1      27.304  44.665  53.312  1.00  0.00     0.116 A 
HETATM   25  F   UNL     1      27.898  43.809  54.153  1.00  0.00    -0.206 F 
HETATM   26  C   UNL     1      26.817  45.872  53.793  1.00  0.00     0.044 A 
HETATM   27  C   UNL     1      26.199  46.767  52.914  1.00  0.00     0.034 A 
ENDBRANCH   7  21
TORSDOF 2
ENDMDL
MODEL 2
REMARK VINA RESULT:      -9.8      4.404      8.604
REMARK  2 active torsions:
REMARK  status: ('A' for Active; 'I' for Inactive)
REMARK    1  A    between atoms: C_2  and  C_3 
REMARK    2  A    between atoms: N_9  and  C_10 
ROOT
HETATM    1  C   UNL     1      25.529  47.193  50.591  1.00  0.00     0.047 A 
HETATM    2  N   UNL     1      24.165  47.402  50.507  1.00  0.00    -0.344 N 
HETATM    3  C   UNL     1      23.638  48.392  49.721  1.00  0.00     0.119 A 
HETATM    4  C   UNL     1      24.424  49.148  48.936  1.00  0.00     0.123 A 
HETATM    5  C   UNL     1      23.539  50.038  48.170  1.00  0.00     0.280 A 
HETATM    6  O   UNL     1      23.909  50.851  47.343  1.00  0.00    -0.265 OA
HETATM    7  N   UNL     1      22.240  49.725  48.600  1.00  0.00    -0.236 N 
HETATM    8  N   UNL     1      22.302  48.723  49.593  1.00  0.00    -0.179 NA
HETATM    9  C   UNL     1      25.875  48.947  48.920  1.00  0.00     0.193 A 
HETATM   10  O   UNL     1      26.646  49.582  48.214  1.00  0.00    -0.287 OA
HETATM   11  C   UNL     1      26.401  47.895  49.842  1.00  0.00     0.086 A 
HETATM   12  H   UNL     1      23.578  47.023  51.243  1.00  0.00     0.167 HD
HETATM   13  H   UNL     1      21.756  47.897  49.346  1.00  0.00     0.155 HD
ENDROOT
BRANCH   1  14
HETATM   14  C   UNL     1      26.007  46.150  51.519  1.00  0.00    -0.009 A 
HETATM   15  C   UNL     1      26.590  44.965  51.041  1.00  0.00     0.015 A 
HETATM   16  C   UNL     1      27.046  43.988  51.931  1.00  0.00     0.024 A 
HETATM   17  C   UNL     1      26.926  44.190  53.304  1.00  0.00     0.034 A 
HETATM   18  C   UNL     1      26.355  45.362  53.796  1.00  0.00     0.024 A 
HETATM   19 CL   UNL     1      27.486  42.988  54.398  1.00  0.00    -0.084 Cl
HETATM   20  C   UNL     1      25.898  46.338  52.905  1.00  0.00     0.015 A 
ENDBRANCH   1  14
BRANCH   7  21
HETATM   21  C   UNL     1      21.002  50.283  48.215  1.00  0.00     0.055 A 
HETATM   22  C   UNL     1      20.574  51.521  48.717  1.00  0.00     0.034 A 
HETATM   23  C   UNL     1      19.352  52.076  48.320  1.00  0.00     0.044 A 
HETATM   24  C   UNL     1      18.548  51.392  47.420  1.00  0.00     0.116 A 
HETATM   25  F   UNL     1      17.379  51.923  47.038  1.00  0.00    -0.206 F 
HETATM   26  C   UNL     1      18.940  50.162  46.912  1.00  0.00     0.044 A 
HETATM   27  C   UNL     1      20.163  49.609  47.309  1.00  0.00     0.034 A 
ENDBRANCH   7  21
TORSDOF 2
ENDMDL
MODEL 3
REMARK VINA RESULT:      -9.7      4.918      9.129
REMARK  2 active torsions:
REMARK  status: ('A' for Active; 'I' for Inactive)
REMARK    1  A    between atoms: C_2  and  C_3 
REMARK    2  A    between atoms: N_9  and  C_10 
ROOT
HETATM    1  C   UNL     1      26.429  44.829  51.550  1.00  0.00     0.047 A 
HETATM    2  N   UNL     1      25.895  46.103  51.608  1.00  0.00    -0.344 N 
HETATM    3  C   UNL     1      24.977  46.538  50.689  1.00  0.00     0.119 A 
HETATM    4  C   UNL     1      24.496  45.713  49.744  1.00  0.00     0.123 A 
HETATM    5  C   UNL     1      23.477  46.464  48.995  1.00  0.00     0.280 A 
HETATM    6  O   UNL     1      22.818  46.021  48.072  1.00  0.00    -0.265 OA
HETATM    7  N   UNL     1      23.451  47.738  49.585  1.00  0.00    -0.236 N 
HETATM    8  N   UNL     1      24.411  47.797  50.619  1.00  0.00    -0.179 NA
HETATM    9  C   UNL     1      24.964  44.328  49.656  1.00  0.00     0.193 A 
HETATM   10  O   UNL     1      24.553  43.518  48.836  1.00  0.00    -0.287 OA
HETATM   11  C   UNL     1      26.011  43.926  50.643  1.00  0.00     0.086 A 
HETATM   12  H   UNL     1      26.395  46.806  52.143  1.00  0.00     0.167 HD
HETATM   13  H   UNL     1      23.998  48.050  51.517  1.00  0.00     0.155 HD
ENDROOT
BRANCH   1  14
HETATM   14  C   UNL     1      27.465  44.475  52.540  1.00  0.00    -0.009 A 
HETATM   15  C   UNL     1      27.461  45.033  53.828  1.00  0.00     0.015 A 
HETATM   16  C   UNL     1      28.444  44.683  54.758  1.00  0.00     0.024 A 
HETATM   17  C   UNL     1      29.435  43.769  54.409  1.00  0.00     0.034 A 
HETATM   18  C   UNL     1      29.452  43.200  53.137  1.00  0.00     0.024 A 
HETATM   19 CL   UNL     1      30.643  43.338  55.553  1.00  0.00    -0.084 Cl
HETATM   20  C   UNL     1      28.469  43.553  52.206  1.00  0.00     0.015 A 
ENDBRANCH   1  14
BRANCH   7  21
HETATM   21  C   UNL     1      22.675  48.870  49.256  1.00  0.00     0.055 A 
HETATM   22  C   UNL     1      21.273  48.808  49.229  1.00  0.00     0.034 A 
HETATM   23  C   UNL     1      20.509  49.938  48.916  1.00  0.00     0.044 A 
HETATM   24  C   UNL     1      21.142  51.136  48.625  1.00  0.00     0.116 A 
HETATM   25  F   UNL     1      20.411  52.218  48.326  1.00  0.00    -0.206 F 
HETATM   26  C   UNL     1      22.527  51.227  48.636  1.00  0.00     0.044 A 
HETATM   27  C   UNL     1      23.290  50.097  48.950  1.00  0.00     0.034 A 
ENDBRANCH   7  21
TORSDOF 2
ENDMDL
MODEL 4
REMARK VINA RESULT:      -9.4      5.131      9.600
REMARK  2 active torsions:
REMARK  status: ('A' for Active; 'I' for Inactive)
REMARK    1  A    between atoms: C_2  and  C_3 
REMARK    2  A    between atoms: N_9  and  C_10 
ROOT
HETATM    1  C   UNL     1      27.233  44.538  52.888  1.00  0.00     0.047 A 
HETATM    2  N   UNL     1      26.924  45.817  52.462  1.00  0.00    -0.344 N 
HETATM    3  C   UNL     1      25.972  46.043  51.504  1.00  0.00     0.119 A 
HETATM    4  C   UNL     1      25.240  45.035  51.000  1.00  0.00     0.123 A 
HETATM    5  C   UNL     1      24.264  45.632  50.076  1.00  0.00     0.280 A 
HETATM    6  O   UNL     1      23.423  45.012  49.450  1.00  0.00    -0.265 OA
HETATM    7  N   UNL     1      24.523  47.011  50.106  1.00  0.00    -0.236 N 
HETATM    8  N   UNL     1      25.612  47.266  50.969  1.00  0.00    -0.179 NA
HETATM    9  C   UNL     1      25.463  43.658  51.446  1.00  0.00     0.193 A 
HETATM   10  O   UNL     1      24.819  42.697  51.047  1.00  0.00    -0.287 OA
HETATM   11  C   UNL     1      26.555  43.462  52.447  1.00  0.00     0.086 A 
HETATM   12  H   UNL     1      27.598  46.555  52.639  1.00  0.00     0.167 HD
HETATM   13  H   UNL     1      25.370  47.921  51.714  1.00  0.00     0.155 HD
ENDROOT
BRANCH   1  14
HETATM   14  C   UNL     1      28.322  44.388  53.872  1.00  0.00    -0.009 A 
HETATM   15  C   UNL     1      28.531  45.345  54.876  1.00  0.00     0.015 A 
HETATM   16  C   UNL     1      29.562  45.187  55.807  1.00  0.00     0.024 A 
HETATM   17  C   UNL     1      30.389  44.068  55.742  1.00  0.00     0.034 A 
HETATM   18  C   UNL     1      30.194  43.104  54.755  1.00  0.00     0.024 A 
HETATM   19 CL   UNL     1      31.657  43.873  56.886  1.00  0.00    -0.084 Cl
HETATM   20  C   UNL     1      29.163  43.265  53.823  1.00  0.00     0.015 A 
ENDBRANCH   1  14
BRANCH   7  21
HETATM   21  C   UNL     1      23.902  48.063  49.399  1.00  0.00     0.055 A 
HETATM   22  C   UNL     1      22.516  48.073  49.178  1.00  0.00     0.034 A 
HETATM   23  C   UNL     1      21.905  49.126  48.488  1.00  0.00     0.044 A 
HETATM   24  C   UNL     1      22.677  50.174  48.012  1.00  0.00     0.116 A 
HETATM   25  F   UNL     1      22.092  51.182  47.353  1.00  0.00    -0.206 F 
HETATM   26  C   UNL     1      24.051  50.189  48.207  1.00  0.00     0.044 A 
HETATM   27  C   UNL     1      24.661  49.136  48.898  1.00  0.00     0.034 A 
ENDBRANCH   7  21
TORSDOF 2
ENDMDL
MODEL 5
REMARK VINA RESULT:      -9.3      5.053      9.560
REMARK  2 active torsions:
REMARK  status: ('A' for Active; 'I' for Inactive)
REMARK    1  A    between atoms: C_2  and  C_3 
REMARK    2  A    between atoms: N_9  and  C_10 
ROOT
HETATM    1  C   UNL     1      27.604  44.985  53.234  1.00  0.00     0.047 A 
HETATM    2  N   UNL     1      26.966  46.162  52.886  1.00  0.00    -0.344 N 
HETATM    3  C   UNL     1      26.220  46.261  51.742  1.00  0.00     0.119 A 
HETATM    4  C   UNL     1      26.010  45.193  50.955  1.00  0.00     0.123 A 
HETATM    5  C   UNL     1      25.105  45.623  49.877  1.00  0.00     0.280 A 
HETATM    6  O   UNL     1      24.685  44.906  48.988  1.00  0.00    -0.265 OA
HETATM    7  N   UNL     1      24.856  46.982  50.127  1.00  0.00    -0.236 N 
HETATM    8  N   UNL     1      25.578  47.391  51.269  1.00  0.00    -0.179 NA
HETATM    9  C   UNL     1      26.598  43.894  51.289  1.00  0.00     0.193 A 
HETATM   10  O   UNL     1      26.429  42.877  50.631  1.00  0.00    -0.287 OA
HETATM   11  C   UNL     1      27.453  43.858  52.514  1.00  0.00     0.086 A 
HETATM   12  H   UNL     1      27.288  47.024  53.314  1.00  0.00     0.167 HD
HETATM   13  H   UNL     1      24.973  47.782  51.991  1.00  0.00     0.155 HD
ENDROOT
BRANCH   1  14
HETATM   14  C   UNL     1      28.444  44.994  54.447  1.00  0.00    -0.009 A 
HETATM   15  C   UNL     1      29.433  44.019  54.653  1.00  0.00     0.015 A 
HETATM   16  C   UNL     1      30.227  44.044  55.803  1.00  0.00     0.024 A 
HETATM   17  C   UNL     1      30.041  45.045  56.753  1.00  0.00     0.034 A 
HETATM   18  C   UNL     1      29.068  46.024  56.563  1.00  0.00     0.024 A 
HETATM   19 CL   UNL     1      31.018  45.076  58.167  1.00  0.00    -0.084 Cl
HETATM   20  C   UNL     1      28.273  45.998  55.413  1.00  0.00     0.015 A 
ENDBRANCH   1  14
BRANCH   7  21
HETATM   21  C   UNL     1      24.072  47.905  49.401  1.00  0.00     0.055 A 
HETATM   22  C   UNL     1      24.627  49.088  48.890  1.00  0.00     0.034 A 
HETATM   23  C   UNL     1      23.847  49.991  48.159  1.00  0.00     0.044 A 
HETATM   24  C   UNL     1      22.506  49.718  47.937  1.00  0.00     0.116 A 
HETATM   25  F   UNL     1      21.760  50.581  47.237  1.00  0.00    -0.206 F 
HETATM   26  C   UNL     1      21.927  48.560  48.436  1.00  0.00     0.044 A 
HETATM   27  C   UNL     1      22.708  47.657  49.166  1.00  0.00     0.034 A 
ENDBRANCH   7  21
TORSDOF 2
ENDMDL
MODEL 6
REMARK VINA RESULT:      -9.2      8.589     10.997
REMARK  2 active torsions:
REMARK  status: ('A' for Active; 'I' for Inactive)
REMARK    1  A    between atoms: C_2  and  C_3 
REMARK    2  A    between atoms: N_9  and  C_10 
ROOT
HETATM    1  C   UNL     1      28.786  43.343  53.177  1.00  0.00     0.047 A 
HETATM    2  N   UNL     1      29.013  42.049  52.744  1.00  0.00    -0.344 N 
HETATM    3  C   UNL     1      28.400  41.548  51.627  1.00  0.00     0.119 A 
HETATM    4  C   UNL     1      27.616  42.324  50.859  1.00  0.00     0.123 A 
HETATM    5  C   UNL     1      27.198  41.507  49.708  1.00  0.00     0.280 A 
HETATM    6  O   UNL     1      26.493  41.894  48.795  1.00  0.00    -0.265 OA
HETATM    7  N   UNL     1      27.793  40.252  49.912  1.00  0.00    -0.236 N 
HETATM    8  N   UNL     1      28.514  40.265  51.127  1.00  0.00    -0.179 NA
HETATM    9  C   UNL     1      27.376  43.724  51.214  1.00  0.00     0.193 A 
HETATM   10  O   UNL     1      26.693  44.491  50.549  1.00  0.00    -0.287 OA
HETATM   11  C   UNL     1      28.020  44.199  52.475  1.00  0.00     0.086 A 
HETATM   12  H   UNL     1      29.396  41.384  53.408  1.00  0.00     0.167 HD
HETATM   13  H   UNL     1      29.496  40.021  50.997  1.00  0.00     0.155 HD
ENDROOT
BRANCH   1  14
HETATM   14  C   UNL     1      29.435  43.770  54.431  1.00  0.00    -0.009 A 
HETATM   15  C   UNL     1      29.059  44.959  55.075  1.00  0.00     0.015 A 
HETATM   16  C   UNL     1      29.677  45.348  56.267  1.00  0.00     0.024 A 
HETATM   17  C   UNL     1      30.672  44.550  56.825  1.00  0.00     0.034 A 
HETATM   18  C   UNL     1      31.055  43.364  56.203  1.00  0.00     0.024 A 
HETATM   19 CL   UNL     1      31.432  45.029  58.291  1.00  0.00    -0.084 Cl
HETATM   20  C   UNL     1      30.438  42.976  55.009  1.00  0.00     0.015 A 
ENDBRANCH   1  14
BRANCH   7  21
HETATM   21  C   UNL     1      27.716  39.079  49.132  1.00  0.00     0.055 A 
HETATM   22  C   UNL     1      26.895  38.005  49.511  1.00  0.00     0.034 A 
HETATM   23  C   UNL     1      26.812  36.850  48.724  1.00  0.00     0.044 A 
HETATM   24  C   UNL     1      27.552  36.761  47.555  1.00  0.00     0.116 A 
HETATM   25  F   UNL     1      27.473  35.657  46.802  1.00  0.00    -0.206 F 
HETATM   26  C   UNL     1      28.378  37.803  47.158  1.00  0.00     0.044 A 
HETATM   27  C   UNL     1      28.459  38.957  47.945  1.00  0.00     0.034 A 
ENDBRANCH   7  21
TORSDOF 2
ENDMDL
MODEL 7
REMARK VINA RESULT:      -8.8      5.725     10.103
REMARK  2 active torsions:
REMARK  status: ('A' for Active; 'I' for Inactive)
REMARK    1  A    between atoms: C_2  and  C_3 
REMARK    2  A    between atoms: N_9  and  C_10 
ROOT
HETATM    1  C   UNL     1      28.482  43.893  53.436  1.00  0.00     0.047 A 
HETATM    2  N   UNL     1      27.460  44.781  53.155  1.00  0.00    -0.344 N 
HETATM    3  C   UNL     1      26.713  44.676  52.012  1.00  0.00     0.119 A 
HETATM    4  C   UNL     1      26.890  43.653  51.158  1.00  0.00     0.123 A 
HETATM    5  C   UNL     1      25.878  43.795  50.100  1.00  0.00     0.280 A 
HETATM    6  O   UNL     1      25.732  43.031  49.164  1.00  0.00    -0.265 OA
HETATM    7  N   UNL     1      25.160  44.956  50.431  1.00  0.00    -0.236 N 
HETATM    8  N   UNL     1      25.702  45.526  51.603  1.00  0.00    -0.179 NA
HETATM    9  C   UNL     1      27.910  42.635  51.417  1.00  0.00     0.193 A 
HETATM   10  O   UNL     1      28.109  41.667  50.696  1.00  0.00    -0.287 OA
HETATM   11  C   UNL     1      28.736  42.833  52.646  1.00  0.00     0.086 A 
HETATM   12  H   UNL     1      27.456  45.673  53.639  1.00  0.00     0.167 HD
HETATM   13  H   UNL     1      25.006  45.629  52.342  1.00  0.00     0.155 HD
ENDROOT
BRANCH   1  14
HETATM   14  C   UNL     1      29.278  44.129  54.656  1.00  0.00    -0.009 A 
HETATM   15  C   UNL     1      29.035  45.241  55.478  1.00  0.00     0.015 A 
HETATM   16  C   UNL     1      29.792  45.448  56.635  1.00  0.00     0.024 A 
HETATM   17  C   UNL     1      30.793  44.544  56.980  1.00  0.00     0.034 A 
HETATM   18  C   UNL     1      31.044  43.432  56.180  1.00  0.00     0.024 A 
HETATM   19 CL   UNL     1      31.723  44.798  58.404  1.00  0.00    -0.084 Cl
HETATM   20  C   UNL     1      30.288  43.226  55.021  1.00  0.00     0.015 A 
ENDBRANCH   1  14
BRANCH   7  21
HETATM   21  C   UNL     1      24.088  45.578  49.756  1.00  0.00     0.055 A 
HETATM   22  C   UNL     1      24.107  46.951  49.469  1.00  0.00     0.034 A 
HETATM   23  C   UNL     1      23.047  47.559  48.786  1.00  0.00     0.044 A 
HETATM   24  C   UNL     1      21.959  46.796  48.389  1.00  0.00     0.116 A 
HETATM   25  F   UNL     1      20.945  47.377  47.735  1.00  0.00    -0.206 F 
HETATM   26  C   UNL     1      21.908  45.437  48.665  1.00  0.00     0.044 A 
HETATM   27  C   UNL     1      22.969  44.831  49.346  1.00  0.00     0.034 A 
ENDBRANCH   7  21
TORSDOF 2
ENDMDL
MODEL 8
REMARK VINA RESULT:      -8.8      6.702      9.811
REMARK  2 active torsions:
REMARK  status: ('A' for Active; 'I' for Inactive)
REMARK    1  A    between atoms: C_2  and  C_3 
REMARK    2  A    between atoms: N_9  and  C_10 
ROOT
HETATM    1  C   UNL     1      27.640  44.961  53.516  1.00  0.00     0.047 A 
HETATM    2  N   UNL     1      27.273  44.014  52.578  1.00  0.00    -0.344 N 
HETATM    3  C   UNL     1      26.224  44.221  51.722  1.00  0.00     0.119 A 
HETATM    4  C   UNL     1      25.563  45.390  51.705  1.00  0.00     0.123 A 
HETATM    5  C   UNL     1      24.571  45.308  50.621  1.00  0.00     0.280 A 
HETATM    6  O   UNL     1      23.804  46.198  50.305  1.00  0.00    -0.265 OA
HETATM    7  N   UNL     1      24.732  44.026  50.071  1.00  0.00    -0.236 N 
HETATM    8  N   UNL     1      25.739  43.334  50.779  1.00  0.00    -0.179 NA
HETATM    9  C   UNL     1      25.932  46.469  52.624  1.00  0.00     0.193 A 
HETATM   10  O   UNL     1      25.389  47.565  52.647  1.00  0.00    -0.287 OA
HETATM   11  C   UNL     1      27.042  46.166  53.577  1.00  0.00     0.086 A 
HETATM   12  H   UNL     1      27.584  43.058  52.718  1.00  0.00     0.167 HD
HETATM   13  H   UNL     1      26.494  43.017  50.170  1.00  0.00     0.155 HD
ENDROOT
BRANCH   1  14
HETATM   14  C   UNL     1      28.737  44.619  54.442  1.00  0.00    -0.009 A 
HETATM   15  C   UNL     1      29.423  43.399  54.336  1.00  0.00     0.015 A 
HETATM   16  C   UNL     1      30.466  43.091  55.215  1.00  0.00     0.024 A 
HETATM   17  C   UNL     1      30.831  44.001  56.204  1.00  0.00     0.034 A 
HETATM   18  C   UNL     1      30.164  45.219  56.321  1.00  0.00     0.024 A 
HETATM   19 CL   UNL     1      32.113  43.623  57.285  1.00  0.00    -0.084 Cl
HETATM   20  C   UNL     1      29.121  45.526  55.442  1.00  0.00     0.015 A 
ENDBRANCH   1  14
BRANCH   7  21
HETATM   21  C   UNL     1      24.032  43.401  49.017  1.00  0.00     0.055 A 
HETATM   22  C   UNL     1      23.699  44.102  47.848  1.00  0.00     0.034 A 
HETATM   23  C   UNL     1      23.017  43.472  46.801  1.00  0.00     0.044 A 
HETATM   24  C   UNL     1      22.660  42.137  46.918  1.00  0.00     0.116 A 
HETATM   25  F   UNL     1      22.008  41.534  45.917  1.00  0.00    -0.206 F 
HETATM   26  C   UNL     1      22.968  41.420  48.066  1.00  0.00     0.044 A 
HETATM   27  C   UNL     1      23.651  42.051  49.111  1.00  0.00     0.034 A 
ENDBRANCH   7  21
TORSDOF 2
ENDMDL
MODEL 9
REMARK VINA RESULT:      -8.7      5.343      9.783
REMARK  2 active torsions:
REMARK  status: ('A' for Active; 'I' for Inactive)
REMARK    1  A    between atoms: C_2  and  C_3 
REMARK    2  A    between atoms: N_9  and  C_10 
ROOT
HETATM    1  C   UNL     1      27.481  42.877  51.581  1.00  0.00     0.047 A 
HETATM    2  N   UNL     1      27.109  43.670  50.511  1.00  0.00    -0.344 N 
HETATM    3  C   UNL     1      26.513  44.889  50.695  1.00  0.00     0.119 A 
HETATM    4  C   UNL     1      26.341  45.399  51.926  1.00  0.00     0.123 A 
HETATM    5  C   UNL     1      25.764  46.742  51.758  1.00  0.00     0.280 A 
HETATM    6  O   UNL     1      25.491  47.505  52.667  1.00  0.00    -0.265 OA
HETATM    7  N   UNL     1      25.625  46.913  50.371  1.00  0.00    -0.236 N 
HETATM    8  N   UNL     1      26.059  45.744  49.708  1.00  0.00    -0.179 NA
HETATM    9  C   UNL     1      26.766  44.649  53.109  1.00  0.00     0.193 A 
HETATM   10  O   UNL     1      26.662  45.062  54.256  1.00  0.00    -0.287 OA
HETATM   11  C   UNL     1      27.354  43.300  52.853  1.00  0.00     0.086 A 
HETATM   12  H   UNL     1      27.007  43.229  49.603  1.00  0.00     0.167 HD
HETATM   13  H   UNL     1      26.802  45.934  49.035  1.00  0.00     0.155 HD
ENDROOT
BRANCH   1  14
HETATM   14  C   UNL     1      28.051  41.548  51.285  1.00  0.00    -0.009 A 
HETATM   15  C   UNL     1      28.741  40.819  52.265  1.00  0.00     0.015 A 
HETATM   16  C   UNL     1      29.269  39.558  51.973  1.00  0.00     0.024 A 
HETATM   17  C   UNL     1      29.108  39.016  50.701  1.00  0.00     0.034 A 
HETATM   18  C   UNL     1      28.420  39.723  49.716  1.00  0.00     0.024 A 
HETATM   19 CL   UNL     1      29.757  37.465  50.342  1.00  0.00    -0.084 Cl
HETATM   20  C   UNL     1      27.894  40.985  50.009  1.00  0.00     0.015 A 
ENDBRANCH   1  14
BRANCH   7  21
HETATM   21  C   UNL     1      25.106  48.005  49.644  1.00  0.00     0.055 A 
HETATM   22  C   UNL     1      23.724  48.231  49.557  1.00  0.00     0.034 A 
HETATM   23  C   UNL     1      23.216  49.324  48.845  1.00  0.00     0.044 A 
HETATM   24  C   UNL     1      24.089  50.197  48.214  1.00  0.00     0.116 A 
HETATM   25  F   UNL     1      23.604  51.243  47.534  1.00  0.00    -0.206 F 
HETATM   26  C   UNL     1      25.460  49.996  48.275  1.00  0.00     0.044 A 
HETATM   27  C   UNL     1      25.966  48.903  48.987  1.00  0.00     0.034 A 
ENDBRANCH   7  21
TORSDOF 2
ENDMDL
MODEL 10
REMARK VINA RESULT:      -8.6      7.221     10.506
REMARK  2 active torsions:
REMARK  status: ('A' for Active; 'I' for Inactive)
REMARK    1  A    between atoms: C_2  and  C_3 
REMARK    2  A    between atoms: N_9  and  C_10 
ROOT
HETATM    1  C   UNL     1      28.686  43.130  53.665  1.00  0.00     0.047 A 
HETATM    2  N   UNL     1      27.593  43.661  53.004  1.00  0.00    -0.344 N 
HETATM    3  C   UNL     1      27.046  43.041  51.912  1.00  0.00     0.119 A 
HETATM    4  C   UNL     1      27.498  41.848  51.492  1.00  0.00     0.123 A 
HETATM    5  C   UNL     1      26.641  41.433  50.371  1.00  0.00     0.280 A 
HETATM    6  O   UNL     1      26.750  40.389  49.754  1.00  0.00    -0.265 OA
HETATM    7  N   UNL     1      25.715  42.477  50.209  1.00  0.00    -0.236 N 
HETATM    8  N   UNL     1      25.988  43.497  51.147  1.00  0.00    -0.179 NA
HETATM    9  C   UNL     1      28.611  41.189  52.178  1.00  0.00     0.193 A 
HETATM   10  O   UNL     1      29.058  40.094  51.864  1.00  0.00    -0.287 OA
HETATM   11  C   UNL     1      29.210  41.938  53.323  1.00  0.00     0.086 A 
HETATM   12  H   UNL     1      27.384  44.644  53.140  1.00  0.00     0.167 HD
HETATM   13  H   UNL     1      25.184  43.703  51.741  1.00  0.00     0.155 HD
ENDROOT
BRANCH   1  14
HETATM   14  C   UNL     1      29.251  43.906  54.786  1.00  0.00    -0.009 A 
HETATM   15  C   UNL     1      30.416  43.484  55.447  1.00  0.00     0.015 A 
HETATM   16  C   UNL     1      30.945  44.232  56.502  1.00  0.00     0.024 A 
HETATM   17  C   UNL     1      30.316  45.408  56.902  1.00  0.00     0.034 A 
HETATM   18  C   UNL     1      29.162  45.845  56.255  1.00  0.00     0.024 A 
HETATM   19 CL   UNL     1      30.968  46.329  58.200  1.00  0.00    -0.084 Cl
HETATM   20  C   UNL     1      28.633  45.096  55.200  1.00  0.00     0.015 A 
ENDBRANCH   1  14
BRANCH   7  21
HETATM   21  C   UNL     1      24.671  42.621  49.270  1.00  0.00     0.055 A 
HETATM   22  C   UNL     1      23.934  41.513  48.826  1.00  0.00     0.034 A 
HETATM   23  C   UNL     1      22.891  41.664  47.905  1.00  0.00     0.044 A 
HETATM   24  C   UNL     1      22.580  42.926  47.422  1.00  0.00     0.116 A 
HETATM   25  F   UNL     1      21.581  43.072  46.542  1.00  0.00    -0.206 F 
HETATM   26  C   UNL     1      23.296  44.040  47.837  1.00  0.00     0.044 A 
HETATM   27  C   UNL     1      24.338  43.887  48.757  1.00  0.00     0.034 A 
ENDBRANCH   7  21
TORSDOF 2
ENDMDL
