MODEL 1
REMARK VINA RESULT:      -9.9      0.000      0.000
REMARK  8 active torsions:
REMARK  status: ('A' for Active; 'I' for Inactive)
REMARK    1  A    between atoms: O_2  and  C_3 
REMARK    2  A    between atoms: C_7  and  C_8 
REMARK       I    between atoms: C_8  and  N_9 
REMARK    3  A    between atoms: N_9  and  C_10 
REMARK    4  A    between atoms: C_10  and  N_11 
REMARK    5  A    between atoms: N_11  and  C_12 
REMARK    6  A    between atoms: C_15  and  N_16 
REMARK    7  A    between atoms: N_19  and  C_21 
REMARK    8  A    between atoms: C_21  and  C_22 
ROOT
HETATM    1  C   UNL     1      25.488  42.699  50.679  1.00  0.00     0.034 A 
HETATM    2  C   UNL     1      25.203  42.848  49.322  1.00  0.00     0.032 A 
HETATM    3  C   UNL     1      24.600  44.018  48.853  1.00  0.00     0.031 A 
HETATM    4  C   UNL     1      24.264  45.070  49.720  1.00  0.00     0.030 A 
HETATM    5  C   UNL     1      24.568  44.913  51.077  1.00  0.00     0.031 A 
HETATM    6  C   UNL     1      25.185  43.743  51.554  1.00  0.00     0.032 A 
ENDROOT
BRANCH   1   7
HETATM    7  N   UNL     1      26.074  41.480  51.095  1.00  0.00    -0.333 N 
HETATM    8  H   UNL     1      25.605  41.062  51.890  1.00  0.00     0.168 HD
BRANCH   7   9
HETATM    9  C   UNL     1      27.412  41.225  51.058  1.00  0.00     0.179 C 
HETATM   10  S   UNL     1      28.092  40.244  49.889  1.00  0.00    -0.040 SA
BRANCH   9  11
HETATM   11  N   UNL     1      28.243  41.984  51.845  1.00  0.00    -0.299 N 
HETATM   12  C   UNL     1      28.589  41.776  53.175  1.00  0.00     0.257 C 
HETATM   13  O   UNL     1      28.666  40.667  53.697  1.00  0.00    -0.267 OA
HETATM   14  H   UNL     1      28.423  42.882  51.428  1.00  0.00     0.171 HD
BRANCH  12  15
HETATM   15  C   UNL     1      28.941  42.981  53.997  1.00  0.00     0.034 A 
HETATM   16  C   UNL     1      28.187  44.160  54.040  1.00  0.00     0.044 A 
HETATM   17  C   UNL     1      28.562  45.237  54.875  1.00  0.00     0.068 A 
HETATM   18  C   UNL     1      29.700  45.143  55.686  1.00  0.00     0.089 A 
HETATM   19 CL   UNL     1      27.536  46.626  54.766  1.00  0.00    -0.081 Cl
HETATM   20  C   UNL     1      30.457  43.965  55.621  1.00  0.00     0.039 A 
HETATM   21  C   UNL     1      30.088  42.901  54.792  1.00  0.00     0.020 A 
BRANCH  18  22
HETATM   22  O   UNL     1      30.253  46.039  56.555  1.00  0.00    -0.354 OA
HETATM   23  C   UNL     1      30.433  45.710  57.921  1.00  0.00     0.210 C 
ENDBRANCH  18  22
ENDBRANCH  12  15
ENDBRANCH   9  11
ENDBRANCH   7   9
ENDBRANCH   1   7
BRANCH   4  24
HETATM   24  N   UNL     1      23.652  46.204  49.175  1.00  0.00    -0.378 N 
HETATM   25  C   UNL     1      22.254  46.102  48.732  1.00  0.00     0.150 C 
HETATM   26  C   UNL     1      21.940  47.286  47.786  1.00  0.00     0.255 C 
HETATM   27  N   UNL     1      22.250  48.632  48.452  1.00  0.00    -0.064 N 
HETATM   28  H   UNL     1      21.588  48.747  49.231  1.00  0.00     0.280 HD
HETATM   29  C   UNL     1      23.666  48.661  49.036  1.00  0.00     0.255 C 
HETATM   30  C   UNL     1      23.947  47.437  49.930  1.00  0.00     0.150 C 
BRANCH  27  31
HETATM   31  C   UNL     1      22.052  49.809  47.524  1.00  0.00     0.276 C 
BRANCH  31  32
HETATM   32  C   UNL     1      20.744  50.526  47.669  1.00  0.00     0.006 A 
HETATM   33  C   UNL     1      20.542  51.400  48.740  1.00  0.00     0.124 A 
HETATM   34  F   UNL     1      21.508  51.530  49.662  1.00  0.00    -0.206 F 
HETATM   35  C   UNL     1      19.360  52.119  48.879  1.00  0.00     0.043 A 
HETATM   36  C   UNL     1      18.351  51.965  47.930  1.00  0.00     0.003 A 
HETATM   37  C   UNL     1      18.530  51.093  46.856  1.00  0.00     0.001 A 
HETATM   38  C   UNL     1      19.722  50.378  46.721  1.00  0.00     0.012 A 
ENDBRANCH  31  32
ENDBRANCH  27  31
ENDBRANCH   4  24
TORSDOF 8
ENDMDL
MODEL 2
REMARK VINA RESULT:      -9.7      1.636      2.105
REMARK  8 active torsions:
REMARK  status: ('A' for Active; 'I' for Inactive)
REMARK    1  A    between atoms: O_2  and  C_3 
REMARK    2  A    between atoms: C_7  and  C_8 
REMARK       I    between atoms: C_8  and  N_9 
REMARK    3  A    between atoms: N_9  and  C_10 
REMARK    4  A    between atoms: C_10  and  N_11 
REMARK    5  A    between atoms: N_11  and  C_12 
REMARK    6  A    between atoms: C_15  and  N_16 
REMARK    7  A    between atoms: N_19  and  C_21 
REMARK    8  A    between atoms: C_21  and  C_22 
ROOT
HETATM    1  C   UNL     1      26.278  44.386  49.640  1.00  0.00     0.034 A 
HETATM    2  C   UNL     1      24.941  44.290  49.257  1.00  0.00     0.032 A 
HETATM    3  C   UNL     1      24.155  45.440  49.146  1.00  0.00     0.031 A 
HETATM    4  C   UNL     1      24.679  46.715  49.413  1.00  0.00     0.030 A 
HETATM    5  C   UNL     1      26.026  46.799  49.783  1.00  0.00     0.031 A 
HETATM    6  C   UNL     1      26.825  45.646  49.886  1.00  0.00     0.032 A 
ENDROOT
BRANCH   1   7
HETATM    7  N   UNL     1      27.013  43.182  49.760  1.00  0.00    -0.333 N 
HETATM    8  H   UNL     1      27.308  42.803  48.868  1.00  0.00     0.168 HD
BRANCH   7   9
HETATM    9  C   UNL     1      26.762  42.227  50.699  1.00  0.00     0.179 C 
HETATM   10  S   UNL     1      26.055  40.765  50.304  1.00  0.00    -0.040 SA
BRANCH   9  11
HETATM   11  N   UNL     1      27.323  42.372  51.944  1.00  0.00    -0.299 N 
HETATM   12  C   UNL     1      27.027  43.324  52.912  1.00  0.00     0.257 C 
HETATM   13  O   UNL     1      25.917  43.828  53.059  1.00  0.00    -0.267 OA
HETATM   14  H   UNL     1      28.173  41.838  52.026  1.00  0.00     0.171 HD
BRANCH  12  15
HETATM   15  C   UNL     1      28.123  43.710  53.863  1.00  0.00     0.034 A 
HETATM   16  C   UNL     1      28.031  44.744  54.803  1.00  0.00     0.044 A 
HETATM   17  C   UNL     1      29.093  45.017  55.695  1.00  0.00     0.068 A 
HETATM   18  C   UNL     1      30.264  44.249  55.659  1.00  0.00     0.089 A 
HETATM   19 CL   UNL     1      28.818  46.355  56.755  1.00  0.00    -0.081 Cl
HETATM   20  C   UNL     1      30.351  43.229  54.702  1.00  0.00     0.039 A 
HETATM   21  C   UNL     1      29.302  42.961  53.818  1.00  0.00     0.020 A 
BRANCH  18  22
HETATM   22  O   UNL     1      31.405  44.328  56.404  1.00  0.00    -0.354 OA
HETATM   23  C   UNL     1      31.886  43.202  57.117  1.00  0.00     0.210 C 
ENDBRANCH  18  22
ENDBRANCH  12  15
ENDBRANCH   9  11
ENDBRANCH   7   9
ENDBRANCH   1   7
BRANCH   4  24
HETATM   24  N   UNL     1      23.825  47.818  49.292  1.00  0.00    -0.378 N 
HETATM   25  C   UNL     1      24.365  49.063  48.726  1.00  0.00     0.150 C 
HETATM   26  C   UNL     1      23.420  50.233  49.095  1.00  0.00     0.255 C 
HETATM   27  N   UNL     1      21.982  49.953  48.641  1.00  0.00    -0.064 N 
HETATM   28  H   UNL     1      21.983  49.943  47.612  1.00  0.00     0.280 HD
HETATM   29  C   UNL     1      21.493  48.584  49.121  1.00  0.00     0.255 C 
HETATM   30  C   UNL     1      22.491  47.460  48.775  1.00  0.00     0.150 C 
BRANCH  27  31
HETATM   31  C   UNL     1      21.009  51.027  49.072  1.00  0.00     0.276 C 
BRANCH  31  32
HETATM   32  C   UNL     1      19.791  51.172  48.211  1.00  0.00     0.006 A 
HETATM   33  C   UNL     1      18.702  51.922  48.662  1.00  0.00     0.124 A 
HETATM   34  F   UNL     1      18.744  52.449  49.895  1.00  0.00    -0.206 F 
HETATM   35  C   UNL     1      17.576  52.118  47.870  1.00  0.00     0.043 A 
HETATM   36  C   UNL     1      17.528  51.552  46.597  1.00  0.00     0.003 A 
HETATM   37  C   UNL     1      18.602  50.795  46.130  1.00  0.00     0.001 A 
HETATM   38  C   UNL     1      19.732  50.606  46.929  1.00  0.00     0.012 A 
ENDBRANCH  31  32
ENDBRANCH  27  31
ENDBRANCH   4  24
TORSDOF 8
ENDMDL
MODEL 3
REMARK VINA RESULT:      -9.6      2.140      3.117
REMARK  8 active torsions:
REMARK  status: ('A' for Active; 'I' for Inactive)
REMARK    1  A    between atoms: O_2  and  C_3 
REMARK    2  A    between atoms: C_7  and  C_8 
REMARK       I    between atoms: C_8  and  N_9 
REMARK    3  A    between atoms: N_9  and  C_10 
REMARK    4  A    between atoms: C_10  and  N_11 
REMARK    5  A    between atoms: N_11  and  C_12 
REMARK    6  A    between atoms: C_15  and  N_16 
REMARK    7  A    between atoms: N_19  and  C_21 
REMARK    8  A    between atoms: C_21  and  C_22 
ROOT
HETATM    1  C   UNL     1      25.245  45.399  49.569  1.00  0.00     0.034 A 
HETATM    2  C   UNL     1      25.508  46.706  49.975  1.00  0.00     0.032 A 
HETATM    3  C   UNL     1      24.565  47.715  49.758  1.00  0.00     0.031 A 
HETATM    4  C   UNL     1      23.338  47.449  49.131  1.00  0.00     0.030 A 
HETATM    5  C   UNL     1      23.081  46.130  48.741  1.00  0.00     0.031 A 
HETATM    6  C   UNL     1      24.021  45.109  48.967  1.00  0.00     0.032 A 
ENDROOT
BRANCH   1   7
HETATM    7  N   UNL     1      26.252  44.429  49.793  1.00  0.00    -0.333 N 
HETATM    8  H   UNL     1      26.794  44.217  48.964  1.00  0.00     0.168 HD
BRANCH   7   9
HETATM    9  C   UNL     1      26.114  43.368  50.638  1.00  0.00     0.179 C 
HETATM   10  S   UNL     1      25.602  41.871  50.098  1.00  0.00    -0.040 SA
BRANCH   9  11
HETATM   11  N   UNL     1      26.638  43.468  51.903  1.00  0.00    -0.299 N 
HETATM   12  C   UNL     1      26.341  44.409  52.882  1.00  0.00     0.257 C 
HETATM   13  O   UNL     1      25.244  44.947  53.004  1.00  0.00    -0.267 OA
HETATM   14  H   UNL     1      27.466  42.905  52.001  1.00  0.00     0.171 HD
BRANCH  12  15
HETATM   15  C   UNL     1      27.417  44.738  53.875  1.00  0.00     0.034 A 
HETATM   16  C   UNL     1      28.493  43.899  54.188  1.00  0.00     0.044 A 
HETATM   17  C   UNL     1      29.492  44.301  55.103  1.00  0.00     0.068 A 
HETATM   18  C   UNL     1      29.427  45.559  55.716  1.00  0.00     0.089 A 
HETATM   19 CL   UNL     1      30.719  43.118  55.397  1.00  0.00    -0.081 Cl
HETATM   20  C   UNL     1      28.336  46.383  55.409  1.00  0.00     0.039 A 
HETATM   21  C   UNL     1      27.346  45.984  54.506  1.00  0.00     0.020 A 
BRANCH  18  22
HETATM   22  O   UNL     1      30.257  46.154  56.621  1.00  0.00    -0.354 OA
HETATM   23  C   UNL     1      30.104  45.920  58.010  1.00  0.00     0.210 C 
ENDBRANCH  18  22
ENDBRANCH  12  15
ENDBRANCH   9  11
ENDBRANCH   7   9
ENDBRANCH   1   7
BRANCH   4  24
HETATM   24  N   UNL     1      22.451  48.514  48.938  1.00  0.00    -0.378 N 
HETATM   25  C   UNL     1      21.008  48.233  48.935  1.00  0.00     0.150 C 
HETATM   26  C   UNL     1      20.267  49.423  48.277  1.00  0.00     0.255 C 
HETATM   27  N   UNL     1      20.608  50.747  48.971  1.00  0.00    -0.064 N 
HETATM   28  H   UNL     1      20.220  50.702  49.923  1.00  0.00     0.280 HD
HETATM   29  C   UNL     1      22.121  50.948  49.093  1.00  0.00     0.255 C 
HETATM   30  C   UNL     1      22.820  49.719  49.707  1.00  0.00     0.150 C 
BRANCH  27  31
HETATM   31  C   UNL     1      19.983  51.945  48.294  1.00  0.00     0.276 C 
BRANCH  31  32
HETATM   32  C   UNL     1      18.507  52.103  48.503  1.00  0.00     0.006 A 
HETATM   33  C   UNL     1      17.620  51.827  47.459  1.00  0.00     0.124 A 
HETATM   34  F   UNL     1      18.117  51.486  46.259  1.00  0.00    -0.206 F 
HETATM   35  C   UNL     1      16.244  51.915  47.631  1.00  0.00     0.043 A 
HETATM   36  C   UNL     1      15.733  52.289  48.873  1.00  0.00     0.003 A 
HETATM   37  C   UNL     1      16.601  52.574  49.927  1.00  0.00     0.001 A 
HETATM   38  C   UNL     1      17.982  52.480  49.747  1.00  0.00     0.012 A 
ENDBRANCH  31  32
ENDBRANCH  27  31
ENDBRANCH   4  24
TORSDOF 8
ENDMDL
MODEL 4
REMARK VINA RESULT:      -8.8      5.865     12.194
REMARK  8 active torsions:
REMARK  status: ('A' for Active; 'I' for Inactive)
REMARK    1  A    between atoms: O_2  and  C_3 
REMARK    2  A    between atoms: C_7  and  C_8 
REMARK       I    between atoms: C_8  and  N_9 
REMARK    3  A    between atoms: N_9  and  C_10 
REMARK    4  A    between atoms: C_10  and  N_11 
REMARK    5  A    between atoms: N_11  and  C_12 
REMARK    6  A    between atoms: C_15  and  N_16 
REMARK    7  A    between atoms: N_19  and  C_21 
REMARK    8  A    between atoms: C_21  and  C_22 
ROOT
HETATM    1  C   UNL     1      22.266  47.528  48.220  1.00  0.00     0.034 A 
HETATM    2  C   UNL     1      22.495  46.157  48.108  1.00  0.00     0.032 A 
HETATM    3  C   UNL     1      23.486  45.543  48.879  1.00  0.00     0.031 A 
HETATM    4  C   UNL     1      24.274  46.276  49.781  1.00  0.00     0.030 A 
HETATM    5  C   UNL     1      24.024  47.649  49.893  1.00  0.00     0.031 A 
HETATM    6  C   UNL     1      23.021  48.270  49.128  1.00  0.00     0.032 A 
ENDROOT
BRANCH   1   7
HETATM    7  N   UNL     1      21.267  48.094  47.391  1.00  0.00    -0.333 N 
HETATM    8  H   UNL     1      21.549  48.970  46.968  1.00  0.00     0.168 HD
BRANCH   7   9
HETATM    9  C   UNL     1      19.931  48.019  47.649  1.00  0.00     0.179 C 
HETATM   10  S   UNL     1      19.251  46.695  48.409  1.00  0.00    -0.040 SA
BRANCH   9  11
HETATM   11  N   UNL     1      19.173  49.155  47.503  1.00  0.00    -0.299 N 
HETATM   12  C   UNL     1      19.392  50.409  48.060  1.00  0.00     0.257 C 
HETATM   13  O   UNL     1      20.505  50.862  48.310  1.00  0.00    -0.267 OA
HETATM   14  H   UNL     1      18.269  48.943  47.114  1.00  0.00     0.171 HD
BRANCH  12  15
HETATM   15  C   UNL     1      18.192  51.273  48.316  1.00  0.00     0.034 A 
HETATM   16  C   UNL     1      17.162  51.496  47.393  1.00  0.00     0.044 A 
HETATM   17  C   UNL     1      16.041  52.289  47.726  1.00  0.00     0.068 A 
HETATM   18  C   UNL     1      15.933  52.865  48.998  1.00  0.00     0.089 A 
HETATM   19 CL   UNL     1      14.893  52.488  46.448  1.00  0.00    -0.081 Cl
HETATM   20  C   UNL     1      16.978  52.649  49.908  1.00  0.00     0.039 A 
HETATM   21  C   UNL     1      18.089  51.869  49.576  1.00  0.00     0.020 A 
BRANCH  18  22
HETATM   22  O   UNL     1      14.963  53.659  49.538  1.00  0.00    -0.354 OA
HETATM   23  C   UNL     1      14.140  53.187  50.591  1.00  0.00     0.210 C 
ENDBRANCH  18  22
ENDBRANCH  12  15
ENDBRANCH   9  11
ENDBRANCH   7   9
ENDBRANCH   1   7
BRANCH   4  24
HETATM   24  N   UNL     1      25.254  45.592  50.509  1.00  0.00    -0.378 N 
HETATM   25  C   UNL     1      26.607  45.493  49.942  1.00  0.00     0.150 C 
HETATM   26  C   UNL     1      27.370  44.354  50.661  1.00  0.00     0.255 C 
HETATM   27  N   UNL     1      27.381  44.563  52.181  1.00  0.00    -0.064 N 
HETATM   28  H   UNL     1      27.943  45.404  52.370  1.00  0.00     0.280 HD
HETATM   29  C   UNL     1      25.972  44.811  52.728  1.00  0.00     0.255 C 
HETATM   30  C   UNL     1      25.236  45.917  51.948  1.00  0.00     0.150 C 
BRANCH  27  31
HETATM   31  C   UNL     1      28.030  43.420  52.928  1.00  0.00     0.276 C 
BRANCH  31  32
HETATM   32  C   UNL     1      28.913  43.820  54.071  1.00  0.00     0.006 A 
HETATM   33  C   UNL     1      30.121  43.152  54.287  1.00  0.00     0.124 A 
HETATM   34  F   UNL     1      30.438  42.114  53.498  1.00  0.00    -0.206 F 
HETATM   35  C   UNL     1      30.988  43.528  55.307  1.00  0.00     0.043 A 
HETATM   36  C   UNL     1      30.645  44.594  56.137  1.00  0.00     0.003 A 
HETATM   37  C   UNL     1      29.441  45.270  55.942  1.00  0.00     0.001 A 
HETATM   38  C   UNL     1      28.578  44.890  54.912  1.00  0.00     0.012 A 
ENDBRANCH  31  32
ENDBRANCH  27  31
ENDBRANCH   4  24
TORSDOF 8
ENDMDL
MODEL 5
REMARK VINA RESULT:      -8.5      3.541      5.763
REMARK  8 active torsions:
REMARK  status: ('A' for Active; 'I' for Inactive)
REMARK    1  A    between atoms: O_2  and  C_3 
REMARK    2  A    between atoms: C_7  and  C_8 
REMARK       I    between atoms: C_8  and  N_9 
REMARK    3  A    between atoms: N_9  and  C_10 
REMARK    4  A    between atoms: C_10  and  N_11 
REMARK    5  A    between atoms: N_11  and  C_12 
REMARK    6  A    between atoms: C_15  and  N_16 
REMARK    7  A    between atoms: N_19  and  C_21 
REMARK    8  A    between atoms: C_21  and  C_22 
ROOT
HETATM    1  C   UNL     1      22.591  47.552  48.858  1.00  0.00     0.034 A 
HETATM    2  C   UNL     1      22.661  48.838  49.390  1.00  0.00     0.032 A 
HETATM    3  C   UNL     1      21.517  49.637  49.456  1.00  0.00     0.031 A 
HETATM    4  C   UNL     1      20.273  49.177  48.995  1.00  0.00     0.030 A 
HETATM    5  C   UNL     1      20.214  47.879  48.476  1.00  0.00     0.031 A 
HETATM    6  C   UNL     1      21.360  47.066  48.416  1.00  0.00     0.032 A 
ENDROOT
BRANCH   1   7
HETATM    7  N   UNL     1      23.791  46.804  48.793  1.00  0.00    -0.333 N 
HETATM    8  H   UNL     1      24.180  46.751  47.858  1.00  0.00     0.168 HD
BRANCH   7   9
HETATM    9  C   UNL     1      24.042  45.698  49.548  1.00  0.00     0.179 C 
HETATM   10  S   UNL     1      24.176  44.177  48.868  1.00  0.00    -0.040 SA
BRANCH   9  11
HETATM   11  N   UNL     1      24.432  45.872  50.853  1.00  0.00    -0.299 N 
HETATM   12  C   UNL     1      25.370  46.766  51.355  1.00  0.00     0.257 C 
HETATM   13  O   UNL     1      25.603  47.864  50.858  1.00  0.00    -0.267 OA
HETATM   14  H   UNL     1      24.128  45.105  51.431  1.00  0.00     0.171 HD
BRANCH  12  15
HETATM   15  C   UNL     1      26.095  46.377  52.611  1.00  0.00     0.034 A 
HETATM   16  C   UNL     1      26.492  45.072  52.927  1.00  0.00     0.044 A 
HETATM   17  C   UNL     1      27.212  44.794  54.111  1.00  0.00     0.068 A 
HETATM   18  C   UNL     1      27.550  45.827  54.995  1.00  0.00     0.089 A 
HETATM   19 CL   UNL     1      27.579  43.121  54.355  1.00  0.00    -0.081 Cl
HETATM   20  C   UNL     1      27.132  47.126  54.676  1.00  0.00     0.039 A 
HETATM   21  C   UNL     1      26.417  47.401  53.507  1.00  0.00     0.020 A 
BRANCH  18  22
HETATM   22  O   UNL     1      28.224  45.801  56.181  1.00  0.00    -0.354 OA
HETATM   23  C   UNL     1      29.620  45.561  56.218  1.00  0.00     0.210 C 
ENDBRANCH  18  22
ENDBRANCH  12  15
ENDBRANCH   9  11
ENDBRANCH   7   9
ENDBRANCH   1   7
BRANCH   4  24
HETATM   24  N   UNL     1      19.175  50.040  49.085  1.00  0.00    -0.378 N 
HETATM   25  C   UNL     1      19.423  51.489  49.109  1.00  0.00     0.150 C 
HETATM   26  C   UNL     1      18.162  52.205  49.651  1.00  0.00     0.255 C 
HETATM   27  N   UNL     1      16.916  51.833  48.839  1.00  0.00    -0.064 N 
HETATM   28  H   UNL     1      17.040  52.221  47.893  1.00  0.00     0.280 HD
HETATM   29  C   UNL     1      16.760  50.316  48.703  1.00  0.00     0.255 C 
HETATM   30  C   UNL     1      18.056  49.644  48.209  1.00  0.00     0.150 C 
BRANCH  27  31
HETATM   31  C   UNL     1      15.646  52.433  49.399  1.00  0.00     0.276 C 
BRANCH  31  32
HETATM   32  C   UNL     1      14.950  53.412  48.503  1.00  0.00     0.006 A 
HETATM   33  C   UNL     1      14.413  54.587  49.036  1.00  0.00     0.124 A 
HETATM   34  F   UNL     1      14.476  54.785  50.362  1.00  0.00    -0.206 F 
HETATM   35  C   UNL     1      13.803  55.540  48.228  1.00  0.00     0.043 A 
HETATM   36  C   UNL     1      13.721  55.321  46.855  1.00  0.00     0.003 A 
HETATM   37  C   UNL     1      14.245  54.152  46.303  1.00  0.00     0.001 A 
HETATM   38  C   UNL     1      14.860  53.201  47.120  1.00  0.00     0.012 A 
ENDBRANCH  31  32
ENDBRANCH  27  31
ENDBRANCH   4  24
TORSDOF 8
ENDMDL
MODEL 6
REMARK VINA RESULT:      -8.5      4.831     10.666
REMARK  8 active torsions:
REMARK  status: ('A' for Active; 'I' for Inactive)
REMARK    1  A    between atoms: O_2  and  C_3 
REMARK    2  A    between atoms: C_7  and  C_8 
REMARK       I    between atoms: C_8  and  N_9 
REMARK    3  A    between atoms: N_9  and  C_10 
REMARK    4  A    between atoms: C_10  and  N_11 
REMARK    5  A    between atoms: N_11  and  C_12 
REMARK    6  A    between atoms: C_15  and  N_16 
REMARK    7  A    between atoms: N_19  and  C_21 
REMARK    8  A    between atoms: C_21  and  C_22 
ROOT
HETATM    1  C   UNL     1      23.492  42.729  49.313  1.00  0.00     0.034 A 
HETATM    2  C   UNL     1      23.192  43.879  50.042  1.00  0.00     0.032 A 
HETATM    3  C   UNL     1      24.071  44.339  51.026  1.00  0.00     0.031 A 
HETATM    4  C   UNL     1      25.270  43.668  51.311  1.00  0.00     0.030 A 
HETATM    5  C   UNL     1      25.566  42.522  50.564  1.00  0.00     0.031 A 
HETATM    6  C   UNL     1      24.691  42.060  49.564  1.00  0.00     0.032 A 
ENDROOT
BRANCH   1   7
HETATM    7  N   UNL     1      22.548  42.299  48.350  1.00  0.00    -0.333 N 
HETATM    8  H   UNL     1      22.515  41.292  48.244  1.00  0.00     0.168 HD
BRANCH   7   9
HETATM    9  C   UNL     1      22.272  42.975  47.199  1.00  0.00     0.179 C 
HETATM   10  S   UNL     1      22.799  42.433  45.709  1.00  0.00    -0.040 SA
BRANCH   9  11
HETATM   11  N   UNL     1      21.340  43.983  47.241  1.00  0.00    -0.299 N 
HETATM   12  C   UNL     1      21.529  45.336  46.988  1.00  0.00     0.257 C 
HETATM   13  O   UNL     1      22.362  45.775  46.200  1.00  0.00    -0.267 OA
HETATM   14  H   UNL     1      20.501  43.686  47.712  1.00  0.00     0.171 HD
BRANCH  12  15
HETATM   15  C   UNL     1      20.619  46.305  47.685  1.00  0.00     0.034 A 
HETATM   16  C   UNL     1      19.244  46.114  47.866  1.00  0.00     0.044 A 
HETATM   17  C   UNL     1      18.462  47.054  48.574  1.00  0.00     0.068 A 
HETATM   18  C   UNL     1      19.053  48.201  49.118  1.00  0.00     0.089 A 
HETATM   19 CL   UNL     1      16.777  46.673  48.660  1.00  0.00    -0.081 Cl
HETATM   20  C   UNL     1      20.427  48.391  48.916  1.00  0.00     0.039 A 
HETATM   21  C   UNL     1      21.200  47.463  48.212  1.00  0.00     0.020 A 
BRANCH  18  22
HETATM   22  O   UNL     1      18.510  49.236  49.824  1.00  0.00    -0.354 OA
HETATM   23  C   UNL     1      19.336  50.160  50.510  1.00  0.00     0.210 C 
ENDBRANCH  18  22
ENDBRANCH  12  15
ENDBRANCH   9  11
ENDBRANCH   7   9
ENDBRANCH   1   7
BRANCH   4  24
HETATM   24  N   UNL     1      26.092  44.184  52.320  1.00  0.00    -0.378 N 
HETATM   25  C   UNL     1      25.475  44.574  53.596  1.00  0.00     0.150 C 
HETATM   26  C   UNL     1      26.449  45.504  54.360  1.00  0.00     0.255 C 
HETATM   27  N   UNL     1      27.821  44.844  54.545  1.00  0.00    -0.064 N 
HETATM   28  H   UNL     1      27.691  44.040  55.175  1.00  0.00     0.280 HD
HETATM   29  C   UNL     1      28.378  44.314  53.221  1.00  0.00     0.255 C 
HETATM   30  C   UNL     1      27.355  43.436  52.474  1.00  0.00     0.150 C 
BRANCH  27  31
HETATM   31  C   UNL     1      28.832  45.759  55.199  1.00  0.00     0.276 C 
BRANCH  31  32
HETATM   32  C   UNL     1      29.863  45.076  56.045  1.00  0.00     0.006 A 
HETATM   33  C   UNL     1      30.070  45.488  57.364  1.00  0.00     0.124 A 
HETATM   34  F   UNL     1      29.378  46.539  57.830  1.00  0.00    -0.206 F 
HETATM   35  C   UNL     1      30.983  44.846  58.192  1.00  0.00     0.043 A 
HETATM   36  C   UNL     1      31.714  43.768  57.697  1.00  0.00     0.003 A 
HETATM   37  C   UNL     1      31.528  43.344  56.381  1.00  0.00     0.001 A 
HETATM   38  C   UNL     1      30.605  43.991  55.556  1.00  0.00     0.012 A 
ENDBRANCH  31  32
ENDBRANCH  27  31
ENDBRANCH   4  24
TORSDOF 8
ENDMDL
MODEL 7
REMARK VINA RESULT:      -8.4      5.291     11.416
REMARK  8 active torsions:
REMARK  status: ('A' for Active; 'I' for Inactive)
REMARK    1  A    between atoms: O_2  and  C_3 
REMARK    2  A    between atoms: C_7  and  C_8 
REMARK       I    between atoms: C_8  and  N_9 
REMARK    3  A    between atoms: N_9  and  C_10 
REMARK    4  A    between atoms: C_10  and  N_11 
REMARK    5  A    between atoms: N_11  and  C_12 
REMARK    6  A    between atoms: C_15  and  N_16 
REMARK    7  A    between atoms: N_19  and  C_21 
REMARK    8  A    between atoms: C_21  and  C_22 
ROOT
HETATM    1  C   UNL     1      22.426  46.044  47.717  1.00  0.00     0.034 A 
HETATM    2  C   UNL     1      22.836  44.816  48.233  1.00  0.00     0.032 A 
HETATM    3  C   UNL     1      23.626  44.763  49.385  1.00  0.00     0.031 A 
HETATM    4  C   UNL     1      24.028  45.931  50.053  1.00  0.00     0.030 A 
HETATM    5  C   UNL     1      23.598  47.157  49.532  1.00  0.00     0.031 A 
HETATM    6  C   UNL     1      22.794  47.215  48.379  1.00  0.00     0.032 A 
ENDROOT
BRANCH   1   7
HETATM    7  N   UNL     1      21.650  46.030  46.532  1.00  0.00    -0.333 N 
HETATM    8  H   UNL     1      21.908  46.759  45.878  1.00  0.00     0.168 HD
BRANCH   7   9
HETATM    9  C   UNL     1      20.328  45.705  46.491  1.00  0.00     0.179 C 
HETATM   10  S   UNL     1      19.806  44.186  46.029  1.00  0.00    -0.040 SA
BRANCH   9  11
HETATM   11  N   UNL     1      19.426  46.562  47.072  1.00  0.00    -0.299 N 
HETATM   12  C   UNL     1      18.644  47.531  46.455  1.00  0.00     0.257 C 
HETATM   13  O   UNL     1      18.223  47.440  45.306  1.00  0.00    -0.267 OA
HETATM   14  H   UNL     1      19.540  46.589  48.072  1.00  0.00     0.171 HD
BRANCH  12  15
HETATM   15  C   UNL     1      18.252  48.728  47.271  1.00  0.00     0.034 A 
HETATM   16  C   UNL     1      19.123  49.765  47.630  1.00  0.00     0.044 A 
HETATM   17  C   UNL     1      18.666  50.883  48.363  1.00  0.00     0.068 A 
HETATM   18  C   UNL     1      17.322  50.980  48.743  1.00  0.00     0.089 A 
HETATM   19 CL   UNL     1      19.891  52.040  48.752  1.00  0.00    -0.081 Cl
HETATM   20  C   UNL     1      16.463  49.928  48.394  1.00  0.00     0.039 A 
HETATM   21  C   UNL     1      16.916  48.821  47.671  1.00  0.00     0.020 A 
BRANCH  18  22
HETATM   22  O   UNL     1      16.661  51.945  49.447  1.00  0.00    -0.354 OA
HETATM   23  C   UNL     1      15.362  52.362  49.065  1.00  0.00     0.210 C 
ENDBRANCH  18  22
ENDBRANCH  12  15
ENDBRANCH   9  11
ENDBRANCH   7   9
ENDBRANCH   1   7
BRANCH   4  24
HETATM   24  N   UNL     1      24.828  45.797  51.193  1.00  0.00    -0.378 N 
HETATM   25  C   UNL     1      25.193  44.444  51.639  1.00  0.00     0.150 C 
HETATM   26  C   UNL     1      25.671  44.513  53.109  1.00  0.00     0.255 C 
HETATM   27  N   UNL     1      26.817  45.518  53.277  1.00  0.00    -0.064 N 
HETATM   28  H   UNL     1      27.628  45.146  52.764  1.00  0.00     0.280 HD
HETATM   29  C   UNL     1      26.467  46.881  52.673  1.00  0.00     0.255 C 
HETATM   30  C   UNL     1      25.949  46.756  51.227  1.00  0.00     0.150 C 
BRANCH  27  31
HETATM   31  C   UNL     1      27.246  45.688  54.717  1.00  0.00     0.276 C 
BRANCH  31  32
HETATM   32  C   UNL     1      28.552  45.050  55.077  1.00  0.00     0.006 A 
HETATM   33  C   UNL     1      29.282  45.521  56.172  1.00  0.00     0.124 A 
HETATM   34  F   UNL     1      28.825  46.587  56.845  1.00  0.00    -0.206 F 
HETATM   35  C   UNL     1      30.474  44.922  56.564  1.00  0.00     0.043 A 
HETATM   36  C   UNL     1      30.956  43.827  55.849  1.00  0.00     0.003 A 
HETATM   37  C   UNL     1      30.246  43.344  54.750  1.00  0.00     0.001 A 
HETATM   38  C   UNL     1      29.048  43.948  54.365  1.00  0.00     0.012 A 
ENDBRANCH  31  32
ENDBRANCH  27  31
ENDBRANCH   4  24
TORSDOF 8
ENDMDL
MODEL 8
REMARK VINA RESULT:      -8.3      1.906      2.544
REMARK  8 active torsions:
REMARK  status: ('A' for Active; 'I' for Inactive)
REMARK    1  A    between atoms: O_2  and  C_3 
REMARK    2  A    between atoms: C_7  and  C_8 
REMARK       I    between atoms: C_8  and  N_9 
REMARK    3  A    between atoms: N_9  and  C_10 
REMARK    4  A    between atoms: C_10  and  N_11 
REMARK    5  A    between atoms: N_11  and  C_12 
REMARK    6  A    between atoms: C_15  and  N_16 
REMARK    7  A    between atoms: N_19  and  C_21 
REMARK    8  A    between atoms: C_21  and  C_22 
ROOT
HETATM    1  C   UNL     1      25.119  41.648  49.819  1.00  0.00     0.034 A 
HETATM    2  C   UNL     1      24.729  41.817  48.492  1.00  0.00     0.032 A 
HETATM    3  C   UNL     1      23.853  42.848  48.140  1.00  0.00     0.031 A 
HETATM    4  C   UNL     1      23.342  43.736  49.100  1.00  0.00     0.030 A 
HETATM    5  C   UNL     1      23.752  43.563  50.427  1.00  0.00     0.031 A 
HETATM    6  C   UNL     1      24.642  42.535  50.785  1.00  0.00     0.032 A 
ENDROOT
BRANCH   1   7
HETATM    7  N   UNL     1      25.986  40.568  50.115  1.00  0.00    -0.333 N 
HETATM    8  H   UNL     1      25.633  39.961  50.845  1.00  0.00     0.168 HD
BRANCH   7   9
HETATM    9  C   UNL     1      27.345  40.654  50.088  1.00  0.00     0.179 C 
HETATM   10  S   UNL     1      28.251  39.938  48.878  1.00  0.00    -0.040 SA
BRANCH   9  11
HETATM   11  N   UNL     1      27.961  41.546  50.930  1.00  0.00    -0.299 N 
HETATM   12  C   UNL     1      28.498  41.306  52.189  1.00  0.00     0.257 C 
HETATM   13  O   UNL     1      28.991  40.234  52.529  1.00  0.00    -0.267 OA
HETATM   14  H   UNL     1      27.789  42.496  50.644  1.00  0.00     0.171 HD
BRANCH  12  15
HETATM   15  C   UNL     1      28.521  42.448  53.162  1.00  0.00     0.034 A 
HETATM   16  C   UNL     1      29.605  42.765  53.990  1.00  0.00     0.044 A 
HETATM   17  C   UNL     1      29.565  43.886  54.850  1.00  0.00     0.068 A 
HETATM   18  C   UNL     1      28.435  44.713  54.885  1.00  0.00     0.089 A 
HETATM   19 CL   UNL     1      30.977  44.096  55.827  1.00  0.00    -0.081 Cl
HETATM   20  C   UNL     1      27.349  44.376  54.064  1.00  0.00     0.039 A 
HETATM   21  C   UNL     1      27.387  43.265  53.217  1.00  0.00     0.020 A 
BRANCH  18  22
HETATM   22  O   UNL     1      28.169  45.829  55.624  1.00  0.00    -0.354 OA
HETATM   23  C   UNL     1      28.121  47.108  55.018  1.00  0.00     0.210 C 
ENDBRANCH  18  22
ENDBRANCH  12  15
ENDBRANCH   9  11
ENDBRANCH   7   9
ENDBRANCH   1   7
BRANCH   4  24
HETATM   24  N   UNL     1      22.461  44.736  48.672  1.00  0.00    -0.378 N 
HETATM   25  C   UNL     1      22.982  46.098  48.488  1.00  0.00     0.150 C 
HETATM   26  C   UNL     1      21.794  47.090  48.458  1.00  0.00     0.255 C 
HETATM   27  N   UNL     1      20.768  46.701  47.386  1.00  0.00    -0.064 N 
HETATM   28  H   UNL     1      21.222  46.821  46.471  1.00  0.00     0.280 HD
HETATM   29  C   UNL     1      20.350  45.232  47.509  1.00  0.00     0.255 C 
HETATM   30  C   UNL     1      21.567  44.290  47.586  1.00  0.00     0.150 C 
BRANCH  27  31
HETATM   31  C   UNL     1      19.543  47.587  47.393  1.00  0.00     0.276 C 
BRANCH  31  32
HETATM   32  C   UNL     1      19.520  48.641  48.458  1.00  0.00     0.006 A 
HETATM   33  C   UNL     1      19.903  49.950  48.154  1.00  0.00     0.124 A 
HETATM   34  F   UNL     1      20.349  50.224  46.918  1.00  0.00    -0.206 F 
HETATM   35  C   UNL     1      19.848  50.964  49.103  1.00  0.00     0.043 A 
HETATM   36  C   UNL     1      19.404  50.670  50.391  1.00  0.00     0.003 A 
HETATM   37  C   UNL     1      19.023  49.369  50.718  1.00  0.00     0.001 A 
HETATM   38  C   UNL     1      19.076  48.357  49.757  1.00  0.00     0.012 A 
ENDBRANCH  31  32
ENDBRANCH  27  31
ENDBRANCH   4  24
TORSDOF 8
ENDMDL
MODEL 9
REMARK VINA RESULT:      -8.2      5.755     12.188
REMARK  8 active torsions:
REMARK  status: ('A' for Active; 'I' for Inactive)
REMARK    1  A    between atoms: O_2  and  C_3 
REMARK    2  A    between atoms: C_7  and  C_8 
REMARK       I    between atoms: C_8  and  N_9 
REMARK    3  A    between atoms: N_9  and  C_10 
REMARK    4  A    between atoms: C_10  and  N_11 
REMARK    5  A    between atoms: N_11  and  C_12 
REMARK    6  A    between atoms: C_15  and  N_16 
REMARK    7  A    between atoms: N_19  and  C_21 
REMARK    8  A    between atoms: C_21  and  C_22 
ROOT
HETATM    1  C   UNL     1      21.461  45.996  48.397  1.00  0.00     0.034 A 
HETATM    2  C   UNL     1      22.507  46.875  48.675  1.00  0.00     0.032 A 
HETATM    3  C   UNL     1      23.658  46.418  49.322  1.00  0.00     0.031 A 
HETATM    4  C   UNL     1      23.799  45.077  49.709  1.00  0.00     0.030 A 
HETATM    5  C   UNL     1      22.747  44.202  49.412  1.00  0.00     0.031 A 
HETATM    6  C   UNL     1      21.591  44.654  48.752  1.00  0.00     0.032 A 
ENDROOT
BRANCH   1   7
HETATM    7  N   UNL     1      20.311  46.527  47.764  1.00  0.00    -0.333 N 
HETATM    8  H   UNL     1      19.450  46.085  48.065  1.00  0.00     0.168 HD
BRANCH   7   9
HETATM    9  C   UNL     1      20.280  46.951  46.470  1.00  0.00     0.179 C 
HETATM   10  S   UNL     1      20.652  45.932  45.198  1.00  0.00    -0.040 SA
BRANCH   9  11
HETATM   11  N   UNL     1      19.699  48.164  46.193  1.00  0.00    -0.299 N 
HETATM   12  C   UNL     1      19.702  49.314  46.973  1.00  0.00     0.257 C 
HETATM   13  O   UNL     1      20.618  49.624  47.730  1.00  0.00    -0.267 OA
HETATM   14  H   UNL     1      19.040  48.089  45.435  1.00  0.00     0.171 HD
BRANCH  12  15
HETATM   15  C   UNL     1      18.540  50.252  46.830  1.00  0.00     0.034 A 
HETATM   16  C   UNL     1      17.652  50.580  47.862  1.00  0.00     0.044 A 
HETATM   17  C   UNL     1      16.606  51.508  47.660  1.00  0.00     0.068 A 
HETATM   18  C   UNL     1      16.439  52.128  46.415  1.00  0.00     0.089 A 
HETATM   19 CL   UNL     1      15.586  51.756  49.035  1.00  0.00    -0.081 Cl
HETATM   20  C   UNL     1      17.323  51.779  45.384  1.00  0.00     0.039 A 
HETATM   21  C   UNL     1      18.355  50.858  45.584  1.00  0.00     0.020 A 
BRANCH  18  22
HETATM   22  O   UNL     1      15.515  53.037  45.988  1.00  0.00    -0.354 OA
HETATM   23  C   UNL     1      15.576  53.574  44.678  1.00  0.00     0.210 C 
ENDBRANCH  18  22
ENDBRANCH  12  15
ENDBRANCH   9  11
ENDBRANCH   7   9
ENDBRANCH   1   7
BRANCH   4  24
HETATM   24  N   UNL     1      24.977  44.698  50.364  1.00  0.00    -0.378 N 
HETATM   25  C   UNL     1      26.257  45.213  49.856  1.00  0.00     0.150 C 
HETATM   26  C   UNL     1      27.406  44.341  50.417  1.00  0.00     0.255 C 
HETATM   27  N   UNL     1      27.362  44.277  51.949  1.00  0.00    -0.064 N 
HETATM   28  H   UNL     1      27.566  45.223  52.300  1.00  0.00     0.280 HD
HETATM   29  C   UNL     1      25.974  43.880  52.459  1.00  0.00     0.255 C 
HETATM   30  C   UNL     1      24.860  44.743  51.834  1.00  0.00     0.150 C 
BRANCH  27  31
HETATM   31  C   UNL     1      28.408  43.353  52.531  1.00  0.00     0.276 C 
BRANCH  31  32
HETATM   32  C   UNL     1      29.054  43.832  53.795  1.00  0.00     0.006 A 
HETATM   33  C   UNL     1      30.241  43.244  54.239  1.00  0.00     0.124 A 
HETATM   34  F   UNL     1      30.749  42.210  53.551  1.00  0.00    -0.206 F 
HETATM   35  C   UNL     1      30.894  43.694  55.381  1.00  0.00     0.043 A 
HETATM   36  C   UNL     1      30.352  44.755  56.104  1.00  0.00     0.003 A 
HETATM   37  C   UNL     1      29.164  45.352  55.682  1.00  0.00     0.001 A 
HETATM   38  C   UNL     1      28.517  44.897  54.532  1.00  0.00     0.012 A 
ENDBRANCH  31  32
ENDBRANCH  27  31
ENDBRANCH   4  24
TORSDOF 8
ENDMDL
MODEL 10
REMARK VINA RESULT:      -8.2      4.906     10.817
REMARK  8 active torsions:
REMARK  status: ('A' for Active; 'I' for Inactive)
REMARK    1  A    between atoms: O_2  and  C_3 
REMARK    2  A    between atoms: C_7  and  C_8 
REMARK       I    between atoms: C_8  and  N_9 
REMARK    3  A    between atoms: N_9  and  C_10 
REMARK    4  A    between atoms: C_10  and  N_11 
REMARK    5  A    between atoms: N_11  and  C_12 
REMARK    6  A    between atoms: C_15  and  N_16 
REMARK    7  A    between atoms: N_19  and  C_21 
REMARK    8  A    between atoms: C_21  and  C_22 
ROOT
HETATM    1  C   UNL     1      22.489  44.817  47.055  1.00  0.00     0.034 A 
HETATM    2  C   UNL     1      23.085  43.576  47.276  1.00  0.00     0.032 A 
HETATM    3  C   UNL     1      23.878  43.367  48.408  1.00  0.00     0.031 A 
HETATM    4  C   UNL     1      24.097  44.385  49.349  1.00  0.00     0.030 A 
HETATM    5  C   UNL     1      23.481  45.622  49.122  1.00  0.00     0.031 A 
HETATM    6  C   UNL     1      22.674  45.835  47.991  1.00  0.00     0.032 A 
ENDROOT
BRANCH   1   7
HETATM    7  N   UNL     1      21.721  44.973  45.876  1.00  0.00    -0.333 N 
HETATM    8  H   UNL     1      22.140  45.609  45.208  1.00  0.00     0.168 HD
BRANCH   7   9
HETATM    9  C   UNL     1      20.359  44.976  45.849  1.00  0.00     0.179 C 
HETATM   10  S   UNL     1      19.486  43.708  45.197  1.00  0.00    -0.040 SA
BRANCH   9  11
HETATM   11  N   UNL     1      19.692  45.921  46.588  1.00  0.00    -0.299 N 
HETATM   12  C   UNL     1      19.270  47.183  46.186  1.00  0.00     0.257 C 
HETATM   13  O   UNL     1      18.937  47.459  45.037  1.00  0.00    -0.267 OA
HETATM   14  H   UNL     1      19.726  45.707  47.571  1.00  0.00     0.171 HD
BRANCH  12  15
HETATM   15  C   UNL     1      19.168  48.248  47.239  1.00  0.00     0.034 A 
HETATM   16  C   UNL     1      18.980  47.999  48.605  1.00  0.00     0.044 A 
HETATM   17  C   UNL     1      18.939  49.057  49.541  1.00  0.00     0.068 A 
HETATM   18  C   UNL     1      19.093  50.383  49.120  1.00  0.00     0.089 A 
HETATM   19 CL   UNL     1      18.657  48.563  51.175  1.00  0.00    -0.081 Cl
HETATM   20  C   UNL     1      19.263  50.621  47.748  1.00  0.00     0.039 A 
HETATM   21  C   UNL     1      19.300  49.575  46.822  1.00  0.00     0.020 A 
BRANCH  18  22
HETATM   22  O   UNL     1      19.084  51.551  49.827  1.00  0.00    -0.354 OA
HETATM   23  C   UNL     1      17.943  52.390  49.828  1.00  0.00     0.210 C 
ENDBRANCH  18  22
ENDBRANCH  12  15
ENDBRANCH   9  11
ENDBRANCH   7   9
ENDBRANCH   1   7
BRANCH   4  24
HETATM   24  N   UNL     1      24.912  44.102  50.451  1.00  0.00    -0.378 N 
HETATM   25  C   UNL     1      26.326  43.779  50.212  1.00  0.00     0.150 C 
HETATM   26  C   UNL     1      26.901  43.082  51.469  1.00  0.00     0.255 C 
HETATM   27  N   UNL     1      26.695  43.937  52.725  1.00  0.00    -0.064 N 
HETATM   28  H   UNL     1      27.273  44.782  52.617  1.00  0.00     0.280 HD
HETATM   29  C   UNL     1      25.238  44.384  52.873  1.00  0.00     0.255 C 
HETATM   30  C   UNL     1      24.697  45.026  51.581  1.00  0.00     0.150 C 
BRANCH  27  31
HETATM   31  C   UNL     1      27.153  43.246  53.990  1.00  0.00     0.276 C 
BRANCH  31  32
HETATM   32  C   UNL     1      28.381  43.822  54.627  1.00  0.00     0.006 A 
HETATM   33  C   UNL     1      28.323  45.067  55.259  1.00  0.00     0.124 A 
HETATM   34  F   UNL     1      27.172  45.757  55.225  1.00  0.00    -0.206 F 
HETATM   35  C   UNL     1      29.430  45.609  55.901  1.00  0.00     0.043 A 
HETATM   36  C   UNL     1      30.628  44.899  55.916  1.00  0.00     0.003 A 
HETATM   37  C   UNL     1      30.710  43.657  55.286  1.00  0.00     0.001 A 
HETATM   38  C   UNL     1      29.593  43.116  54.646  1.00  0.00     0.012 A 
ENDBRANCH  31  32
ENDBRANCH  27  31
ENDBRANCH   4  24
TORSDOF 8
ENDMDL
