MODEL 1
REMARK VINA RESULT:     -11.2      0.000      0.000
REMARK  7 active torsions:
REMARK  status: ('A' for Active; 'I' for Inactive)
REMARK    1  A    between atoms: C_2  and  C_3 
REMARK    2  A    between atoms: C_4  and  N_5 
REMARK    3  A    between atoms: N_5  and  C_6 
REMARK    4  A    between atoms: C_8  and  N_9 
REMARK    5  A    between atoms: C_11  and  C_12 
REMARK    6  A    between atoms: C_12  and  N_13 
REMARK    7  A    between atoms: C_17  and  C_18 
ROOT
HETATM    1  C   UNL     1      25.148  46.348  50.451  1.00  0.00     0.218 C 
ENDROOT
BRANCH   1   2
HETATM    2  C   UNL     1      24.103  46.093  49.386  1.00  0.00     0.166 A 
HETATM    3  N   UNL     1      24.102  44.879  48.835  1.00  0.00    -0.200 NA
HETATM    4  C   UNL     1      23.213  44.702  47.875  1.00  0.00     0.219 A 
HETATM    5  N   UNL     1      22.344  45.608  47.470  1.00  0.00    -0.031 NA
HETATM    6  C   UNL     1      22.392  46.784  48.088  1.00  0.00     0.731 A 
HETATM    7  N   UNL     1      23.231  47.062  49.083  1.00  0.00    -0.045 NA
BRANCH   4   8
HETATM    8  N   UNL     1      23.158  43.458  47.279  1.00  0.00    -0.270 NA
HETATM    9  H   UNL     1      23.879  43.383  46.575  1.00  0.00     0.127 HD
HETATM   10  H   UNL     1      22.212  43.243  46.996  1.00  0.00     0.127 HD
ENDBRANCH   4   8
BRANCH   6  11
HETATM   11  N   UNL     1      21.499  47.797  47.737  1.00  0.00    -0.188 N 
HETATM   12  H   UNL     1      20.925  47.489  46.965  1.00  0.00     0.184 HD
BRANCH  11  13
HETATM   13  C   UNL     1      20.940  48.829  48.517  1.00  0.00     0.055 A 
HETATM   14  C   UNL     1      21.449  50.145  48.429  1.00  0.00    -0.031 A 
HETATM   15  C   UNL     1      20.895  51.161  49.233  1.00  0.00     0.009 A 
HETATM   16  C   UNL     1      19.854  50.891  50.117  1.00  0.00     0.001 A 
HETATM   17  C   UNL     1      19.360  49.597  50.220  1.00  0.00     0.002 A 
HETATM   18  C   UNL     1      19.905  48.579  49.435  1.00  0.00     0.030 A 
BRANCH  14  19
HETATM   19  C   UNL     1      22.628  50.501  47.550  1.00  0.00     0.036 C 
HETATM   20  C   UNL     1      23.937  50.472  48.329  1.00  0.00     0.010 C 
ENDBRANCH  14  19
ENDBRANCH  11  13
ENDBRANCH   6  11
ENDBRANCH   1   2
BRANCH   1  21
HETATM   21  N   UNL     1      25.734  45.157  51.026  1.00  0.00    -0.260 N 
HETATM   22  C   UNL     1      25.058  44.302  51.831  1.00  0.00     0.326 C 
HETATM   23  O   UNL     1      23.931  44.436  52.279  1.00  0.00    -0.247 OA
HETATM   24  N   UNL     1      25.831  43.187  52.040  1.00  0.00    -0.321 N 
HETATM   25  C   UNL     1      27.153  43.307  51.462  1.00  0.00     0.140 C 
HETATM   26  H   UNL     1      25.537  42.483  52.703  1.00  0.00     0.165 HD
HETATM   27  C   UNL     1      26.907  44.584  50.621  1.00  0.00     0.261 C 
HETATM   28  C   UNL     1      27.470  42.139  50.530  1.00  0.00     0.054 C 
HETATM   29  O   UNL     1      27.648  45.013  49.744  1.00  0.00    -0.270 OA
BRANCH  25  30
HETATM   30  C   UNL     1      28.187  43.458  52.575  1.00  0.00    -0.020 A 
HETATM   31  C   UNL     1      28.064  44.410  53.604  1.00  0.00     0.022 A 
HETATM   32  C   UNL     1      29.005  44.495  54.647  1.00  0.00    -0.025 A 
HETATM   33  C   UNL     1      30.108  43.613  54.662  1.00  0.00    -0.026 A 
HETATM   34  C   UNL     1      28.871  45.437  55.680  1.00  0.00     0.012 A 
HETATM   35  C   UNL     1      30.252  42.683  53.626  1.00  0.00     0.013 A 
HETATM   36  C   UNL     1      31.038  43.685  55.712  1.00  0.00     0.012 A 
HETATM   37  C   UNL     1      29.309  42.609  52.598  1.00  0.00     0.011 A 
HETATM   38  C   UNL     1      30.882  44.619  56.738  1.00  0.00     0.001 A 
HETATM   39  C   UNL     1      29.800  45.496  56.720  1.00  0.00     0.001 A 
ENDBRANCH  25  30
ENDBRANCH   1  21
TORSDOF 7
ENDMDL
MODEL 2
REMARK VINA RESULT:     -11.1      1.510      2.478
REMARK  7 active torsions:
REMARK  status: ('A' for Active; 'I' for Inactive)
REMARK    1  A    between atoms: C_2  and  C_3 
REMARK    2  A    between atoms: C_4  and  N_5 
REMARK    3  A    between atoms: N_5  and  C_6 
REMARK    4  A    between atoms: C_8  and  N_9 
REMARK    5  A    between atoms: C_11  and  C_12 
REMARK    6  A    between atoms: C_12  and  N_13 
REMARK    7  A    between atoms: C_17  and  C_18 
ROOT
HETATM    1  C   UNL     1      24.772  44.498  49.069  1.00  0.00     0.218 C 
ENDROOT
BRANCH   1   2
HETATM    2  C   UNL     1      24.722  45.996  49.279  1.00  0.00     0.166 A 
HETATM    3  N   UNL     1      25.897  46.623  49.362  1.00  0.00    -0.200 NA
HETATM    4  C   UNL     1      25.822  47.920  49.595  1.00  0.00     0.219 A 
HETATM    5  N   UNL     1      24.702  48.605  49.714  1.00  0.00    -0.031 NA
HETATM    6  C   UNL     1      23.574  47.912  49.591  1.00  0.00     0.731 A 
HETATM    7  N   UNL     1      23.533  46.608  49.332  1.00  0.00    -0.045 NA
BRANCH   4   8
HETATM    8  N   UNL     1      27.008  48.622  49.676  1.00  0.00    -0.270 NA
HETATM    9  H   UNL     1      26.820  49.586  49.914  1.00  0.00     0.127 HD
HETATM   10  H   UNL     1      27.577  48.451  48.859  1.00  0.00     0.127 HD
ENDBRANCH   4   8
BRANCH   6  11
HETATM   11  N   UNL     1      22.340  48.558  49.685  1.00  0.00    -0.188 N 
HETATM   12  H   UNL     1      22.402  49.308  50.360  1.00  0.00     0.184 HD
BRANCH  11  13
HETATM   13  C   UNL     1      21.312  48.700  48.732  1.00  0.00     0.055 A 
HETATM   14  C   UNL     1      21.015  49.971  48.188  1.00  0.00    -0.031 A 
HETATM   15  C   UNL     1      19.969  50.101  47.254  1.00  0.00     0.009 A 
HETATM   16  C   UNL     1      19.217  48.997  46.858  1.00  0.00     0.001 A 
HETATM   17  C   UNL     1      19.493  47.750  47.400  1.00  0.00     0.002 A 
HETATM   18  C   UNL     1      20.523  47.608  48.333  1.00  0.00     0.030 A 
BRANCH  14  19
HETATM   19  C   UNL     1      21.734  51.228  48.625  1.00  0.00     0.036 C 
HETATM   20  C   UNL     1      23.160  51.274  48.093  1.00  0.00     0.010 C 
ENDBRANCH  14  19
ENDBRANCH  11  13
ENDBRANCH   6  11
ENDBRANCH   1   2
BRANCH   1  21
HETATM   21  N   UNL     1      25.364  43.750  50.158  1.00  0.00    -0.260 N 
HETATM   22  C   UNL     1      24.642  43.048  51.064  1.00  0.00     0.326 C 
HETATM   23  O   UNL     1      23.429  43.013  51.183  1.00  0.00    -0.247 OA
HETATM   24  N   UNL     1      25.502  42.304  51.833  1.00  0.00    -0.321 N 
HETATM   25  C   UNL     1      26.894  42.580  51.541  1.00  0.00     0.140 C 
HETATM   26  H   UNL     1      25.156  41.794  52.634  1.00  0.00     0.165 HD
HETATM   27  C   UNL     1      26.684  43.411  50.251  1.00  0.00     0.261 C 
HETATM   28  C   UNL     1      27.664  41.305  51.204  1.00  0.00     0.054 C 
HETATM   29  O   UNL     1      27.562  43.720  49.453  1.00  0.00    -0.270 OA
BRANCH  25  30
HETATM   30  C   UNL     1      27.519  43.344  52.706  1.00  0.00    -0.020 A 
HETATM   31  C   UNL     1      28.695  42.920  53.350  1.00  0.00     0.022 A 
HETATM   32  C   UNL     1      29.279  43.669  54.389  1.00  0.00    -0.025 A 
HETATM   33  C   UNL     1      28.668  44.871  54.808  1.00  0.00    -0.026 A 
HETATM   34  C   UNL     1      30.462  43.249  55.020  1.00  0.00     0.012 A 
HETATM   35  C   UNL     1      27.481  45.283  54.191  1.00  0.00     0.013 A 
HETATM   36  C   UNL     1      29.259  45.628  55.832  1.00  0.00     0.012 A 
HETATM   37  C   UNL     1      26.914  44.531  53.160  1.00  0.00     0.011 A 
HETATM   38  C   UNL     1      30.442  45.203  56.439  1.00  0.00     0.001 A 
HETATM   39  C   UNL     1      31.041  44.013  56.034  1.00  0.00     0.001 A 
ENDBRANCH  25  30
ENDBRANCH   1  21
TORSDOF 7
ENDMDL
MODEL 3
REMARK VINA RESULT:     -10.9      4.461      9.013
REMARK  7 active torsions:
REMARK  status: ('A' for Active; 'I' for Inactive)
REMARK    1  A    between atoms: C_2  and  C_3 
REMARK    2  A    between atoms: C_4  and  N_5 
REMARK    3  A    between atoms: N_5  and  C_6 
REMARK    4  A    between atoms: C_8  and  N_9 
REMARK    5  A    between atoms: C_11  and  C_12 
REMARK    6  A    between atoms: C_12  and  N_13 
REMARK    7  A    between atoms: C_17  and  C_18 
ROOT
HETATM    1  C   UNL     1      21.948  44.021  47.443  1.00  0.00     0.218 C 
ENDROOT
BRANCH   1   2
HETATM    2  C   UNL     1      22.778  44.364  48.661  1.00  0.00     0.166 A 
HETATM    3  N   UNL     1      23.186  43.338  49.409  1.00  0.00    -0.200 NA
HETATM    4  C   UNL     1      23.865  43.671  50.491  1.00  0.00     0.219 A 
HETATM    5  N   UNL     1      24.176  44.904  50.841  1.00  0.00    -0.031 NA
HETATM    6  C   UNL     1      23.756  45.869  50.028  1.00  0.00     0.731 A 
HETATM    7  N   UNL     1      23.085  45.644  48.900  1.00  0.00    -0.045 NA
BRANCH   4   8
HETATM    8  N   UNL     1      24.325  42.648  51.295  1.00  0.00    -0.270 NA
HETATM    9  H   UNL     1      24.652  41.882  50.722  1.00  0.00     0.127 HD
HETATM   10  H   UNL     1      23.648  42.431  52.012  1.00  0.00     0.127 HD
ENDBRANCH   4   8
BRANCH   6  11
HETATM   11  N   UNL     1      24.053  47.203  50.310  1.00  0.00    -0.188 N 
HETATM   12  H   UNL     1      23.964  47.366  51.303  1.00  0.00     0.184 HD
BRANCH  11  13
HETATM   13  C   UNL     1      24.889  48.112  49.632  1.00  0.00     0.055 A 
HETATM   14  C   UNL     1      24.329  49.134  48.832  1.00  0.00    -0.031 A 
HETATM   15  C   UNL     1      25.177  50.021  48.140  1.00  0.00     0.009 A 
HETATM   16  C   UNL     1      26.562  49.908  48.229  1.00  0.00     0.001 A 
HETATM   17  C   UNL     1      27.119  48.897  49.001  1.00  0.00     0.002 A 
HETATM   18  C   UNL     1      26.289  48.005  49.685  1.00  0.00     0.030 A 
BRANCH  14  19
HETATM   19  C   UNL     1      22.837  49.275  48.622  1.00  0.00     0.036 C 
HETATM   20  C   UNL     1      22.426  50.734  48.472  1.00  0.00     0.010 C 
ENDBRANCH  14  19
ENDBRANCH  11  13
ENDBRANCH   6  11
ENDBRANCH   1   2
BRANCH   1  21
HETATM   21  N   UNL     1      21.004  45.042  47.042  1.00  0.00    -0.260 N 
HETATM   22  C   UNL     1      21.173  45.835  45.956  1.00  0.00     0.326 C 
HETATM   23  O   UNL     1      22.149  45.900  45.227  1.00  0.00    -0.247 OA
HETATM   24  N   UNL     1      20.020  46.550  45.746  1.00  0.00    -0.321 N 
HETATM   25  C   UNL     1      19.039  46.347  46.793  1.00  0.00     0.140 C 
HETATM   26  H   UNL     1      19.993  47.274  45.042  1.00  0.00     0.165 HD
HETATM   27  C   UNL     1      19.722  45.151  47.502  1.00  0.00     0.261 C 
HETATM   28  C   UNL     1      17.693  45.901  46.227  1.00  0.00     0.054 C 
HETATM   29  O   UNL     1      19.198  44.428  48.342  1.00  0.00    -0.270 OA
BRANCH  25  30
HETATM   30  C   UNL     1      18.923  47.615  47.636  1.00  0.00    -0.020 A 
HETATM   31  C   UNL     1      19.018  48.906  47.086  1.00  0.00     0.022 A 
HETATM   32  C   UNL     1      18.856  50.059  47.877  1.00  0.00    -0.025 A 
HETATM   33  C   UNL     1      18.604  49.924  49.260  1.00  0.00    -0.026 A 
HETATM   34  C   UNL     1      18.936  51.346  47.322  1.00  0.00     0.012 A 
HETATM   35  C   UNL     1      18.537  48.642  49.819  1.00  0.00     0.013 A 
HETATM   36  C   UNL     1      18.424  51.073  50.047  1.00  0.00     0.012 A 
HETATM   37  C   UNL     1      18.698  47.507  49.021  1.00  0.00     0.011 A 
HETATM   38  C   UNL     1      18.495  52.345  49.475  1.00  0.00     0.001 A 
HETATM   39  C   UNL     1      18.753  52.481  48.114  1.00  0.00     0.001 A 
ENDBRANCH  25  30
ENDBRANCH   1  21
TORSDOF 7
ENDMDL
MODEL 4
REMARK VINA RESULT:     -10.9      1.366      1.890
REMARK  7 active torsions:
REMARK  status: ('A' for Active; 'I' for Inactive)
REMARK    1  A    between atoms: C_2  and  C_3 
REMARK    2  A    between atoms: C_4  and  N_5 
REMARK    3  A    between atoms: N_5  and  C_6 
REMARK    4  A    between atoms: C_8  and  N_9 
REMARK    5  A    between atoms: C_11  and  C_12 
REMARK    6  A    between atoms: C_12  and  N_13 
REMARK    7  A    between atoms: C_17  and  C_18 
ROOT
HETATM    1  C   UNL     1      25.982  45.449  49.894  1.00  0.00     0.218 C 
ENDROOT
BRANCH   1   2
HETATM    2  C   UNL     1      24.559  45.553  49.387  1.00  0.00     0.166 A 
HETATM    3  N   UNL     1      23.902  44.404  49.225  1.00  0.00    -0.200 NA
HETATM    4  C   UNL     1      22.682  44.524  48.735  1.00  0.00     0.219 A 
HETATM    5  N   UNL     1      22.092  45.666  48.439  1.00  0.00    -0.031 NA
HETATM    6  C   UNL     1      22.805  46.767  48.655  1.00  0.00     0.731 A 
HETATM    7  N   UNL     1      24.033  46.764  49.167  1.00  0.00    -0.045 NA
BRANCH   4   8
HETATM    8  N   UNL     1      21.949  43.367  48.560  1.00  0.00    -0.270 NA
HETATM    9  H   UNL     1      22.238  42.673  49.237  1.00  0.00     0.127 HD
HETATM   10  H   UNL     1      21.949  43.092  47.588  1.00  0.00     0.127 HD
ENDBRANCH   4   8
BRANCH   6  11
HETATM   11  N   UNL     1      22.255  48.021  48.387  1.00  0.00    -0.188 N 
HETATM   12  H   UNL     1      22.361  48.234  47.405  1.00  0.00     0.184 HD
BRANCH  11  13
HETATM   13  C   UNL     1      21.217  48.718  49.036  1.00  0.00     0.055 A 
HETATM   14  C   UNL     1      21.431  50.029  49.519  1.00  0.00    -0.031 A 
HETATM   15  C   UNL     1      20.390  50.704  50.187  1.00  0.00     0.009 A 
HETATM   16  C   UNL     1      19.151  50.099  50.384  1.00  0.00     0.001 A 
HETATM   17  C   UNL     1      18.939  48.806  49.926  1.00  0.00     0.002 A 
HETATM   18  C   UNL     1      19.965  48.123  49.269  1.00  0.00     0.030 A 
BRANCH  14  19
HETATM   19  C   UNL     1      22.771  50.724  49.413  1.00  0.00     0.036 C 
HETATM   20  C   UNL     1      23.003  51.285  48.017  1.00  0.00     0.010 C 
ENDBRANCH  14  19
ENDBRANCH  11  13
ENDBRANCH   6  11
ENDBRANCH   1   2
BRANCH   1  21
HETATM   21  N   UNL     1      26.118  45.471  51.335  1.00  0.00    -0.260 N 
HETATM   22  C   UNL     1      26.126  46.610  52.069  1.00  0.00     0.326 C 
HETATM   23  O   UNL     1      26.131  47.759  51.661  1.00  0.00    -0.247 OA
HETATM   24  N   UNL     1      26.071  46.277  53.400  1.00  0.00    -0.321 N 
HETATM   25  C   UNL     1      26.149  44.848  53.622  1.00  0.00     0.140 C 
HETATM   26  H   UNL     1      26.174  46.992  54.107  1.00  0.00     0.165 HD
HETATM   27  C   UNL     1      25.963  44.389  52.155  1.00  0.00     0.261 C 
HETATM   28  C   UNL     1      24.979  44.343  54.464  1.00  0.00     0.054 C 
HETATM   29  O   UNL     1      25.726  43.243  51.792  1.00  0.00    -0.270 OA
BRANCH  25  30
HETATM   30  C   UNL     1      27.501  44.500  54.241  1.00  0.00    -0.020 A 
HETATM   31  C   UNL     1      28.037  45.196  55.339  1.00  0.00     0.022 A 
HETATM   32  C   UNL     1      29.262  44.823  55.923  1.00  0.00    -0.025 A 
HETATM   33  C   UNL     1      29.983  43.731  55.390  1.00  0.00    -0.026 A 
HETATM   34  C   UNL     1      29.787  45.511  57.029  1.00  0.00     0.012 A 
HETATM   35  C   UNL     1      29.469  43.053  54.279  1.00  0.00     0.013 A 
HETATM   36  C   UNL     1      31.196  43.347  55.983  1.00  0.00     0.012 A 
HETATM   37  C   UNL     1      28.251  43.433  53.711  1.00  0.00     0.011 A 
HETATM   38  C   UNL     1      31.696  44.034  57.090  1.00  0.00     0.001 A 
HETATM   39  C   UNL     1      30.993  45.117  57.611  1.00  0.00     0.001 A 
ENDBRANCH  25  30
ENDBRANCH   1  21
TORSDOF 7
ENDMDL
MODEL 5
REMARK VINA RESULT:     -10.8      2.205      9.313
REMARK  7 active torsions:
REMARK  status: ('A' for Active; 'I' for Inactive)
REMARK    1  A    between atoms: C_2  and  C_3 
REMARK    2  A    between atoms: C_4  and  N_5 
REMARK    3  A    between atoms: N_5  and  C_6 
REMARK    4  A    between atoms: C_8  and  N_9 
REMARK    5  A    between atoms: C_11  and  C_12 
REMARK    6  A    between atoms: C_12  and  N_13 
REMARK    7  A    between atoms: C_17  and  C_18 
ROOT
HETATM    1  C   UNL     1      25.139  44.199  51.654  1.00  0.00     0.218 C 
ENDROOT
BRANCH   1   2
HETATM    2  C   UNL     1      26.377  43.372  51.927  1.00  0.00     0.166 A 
HETATM    3  N   UNL     1      26.422  42.166  51.359  1.00  0.00    -0.200 NA
HETATM    4  C   UNL     1      27.490  41.448  51.655  1.00  0.00     0.219 A 
HETATM    5  N   UNL     1      28.484  41.851  52.423  1.00  0.00    -0.031 NA
HETATM    6  C   UNL     1      28.376  43.075  52.929  1.00  0.00     0.731 A 
HETATM    7  N   UNL     1      27.356  43.891  52.677  1.00  0.00    -0.045 NA
BRANCH   4   8
HETATM    8  N   UNL     1      27.596  40.197  51.082  1.00  0.00    -0.270 NA
HETATM    9  H   UNL     1      28.555  40.024  50.813  1.00  0.00     0.127 HD
HETATM   10  H   UNL     1      26.887  40.072  50.373  1.00  0.00     0.127 HD
ENDBRANCH   4   8
BRANCH   6  11
HETATM   11  N   UNL     1      29.389  43.591  53.738  1.00  0.00    -0.188 N 
HETATM   12  H   UNL     1      30.254  43.626  53.216  1.00  0.00     0.184 HD
BRANCH  11  13
HETATM   13  C   UNL     1      29.319  44.478  54.831  1.00  0.00     0.055 A 
HETATM   14  C   UNL     1      30.233  44.361  55.903  1.00  0.00    -0.031 A 
HETATM   15  C   UNL     1      30.135  45.240  57.000  1.00  0.00     0.009 A 
HETATM   16  C   UNL     1      29.150  46.224  57.048  1.00  0.00     0.001 A 
HETATM   17  C   UNL     1      28.241  46.333  56.005  1.00  0.00     0.002 A 
HETATM   18  C   UNL     1      28.321  45.463  54.915  1.00  0.00     0.030 A 
BRANCH  14  19
HETATM   19  C   UNL     1      31.280  43.271  55.961  1.00  0.00     0.036 C 
HETATM   20  C   UNL     1      32.020  43.274  57.293  1.00  0.00     0.010 C 
ENDBRANCH  14  19
ENDBRANCH  11  13
ENDBRANCH   6  11
ENDBRANCH   1   2
BRANCH   1  21
HETATM   21  N   UNL     1      25.397  45.559  51.233  1.00  0.00    -0.260 N 
HETATM   22  C   UNL     1      25.589  46.587  52.095  1.00  0.00     0.326 C 
HETATM   23  O   UNL     1      25.474  46.571  53.309  1.00  0.00    -0.247 OA
HETATM   24  N   UNL     1      26.000  47.688  51.385  1.00  0.00    -0.321 N 
HETATM   25  C   UNL     1      25.984  47.468  49.953  1.00  0.00     0.140 C 
HETATM   26  H   UNL     1      26.092  48.583  51.845  1.00  0.00     0.165 HD
HETATM   27  C   UNL     1      25.766  45.934  49.972  1.00  0.00     0.261 C 
HETATM   28  C   UNL     1      27.337  47.781  49.319  1.00  0.00     0.054 C 
HETATM   29  O   UNL     1      25.896  45.185  49.011  1.00  0.00    -0.270 OA
BRANCH  25  30
HETATM   30  C   UNL     1      24.849  48.273  49.325  1.00  0.00    -0.020 A 
HETATM   31  C   UNL     1      23.507  47.853  49.364  1.00  0.00     0.022 A 
HETATM   32  C   UNL     1      22.472  48.639  48.822  1.00  0.00    -0.025 A 
HETATM   33  C   UNL     1      22.783  49.873  48.211  1.00  0.00    -0.026 A 
HETATM   34  C   UNL     1      21.131  48.224  48.876  1.00  0.00     0.012 A 
HETATM   35  C   UNL     1      24.120  50.282  48.143  1.00  0.00     0.013 A 
HETATM   36  C   UNL     1      21.750  50.666  47.685  1.00  0.00     0.012 A 
HETATM   37  C   UNL     1      25.136  49.494  48.687  1.00  0.00     0.011 A 
HETATM   38  C   UNL     1      20.422  50.244  47.759  1.00  0.00     0.001 A 
HETATM   39  C   UNL     1      20.113  49.022  48.352  1.00  0.00     0.001 A 
ENDBRANCH  25  30
ENDBRANCH   1  21
TORSDOF 7
ENDMDL
MODEL 6
REMARK VINA RESULT:     -10.8      1.359      2.428
REMARK  7 active torsions:
REMARK  status: ('A' for Active; 'I' for Inactive)
REMARK    1  A    between atoms: C_2  and  C_3 
REMARK    2  A    between atoms: C_4  and  N_5 
REMARK    3  A    between atoms: N_5  and  C_6 
REMARK    4  A    between atoms: C_8  and  N_9 
REMARK    5  A    between atoms: C_11  and  C_12 
REMARK    6  A    between atoms: C_12  and  N_13 
REMARK    7  A    between atoms: C_17  and  C_18 
ROOT
HETATM    1  C   UNL     1      25.952  45.260  49.743  1.00  0.00     0.218 C 
ENDROOT
BRANCH   1   2
HETATM    2  C   UNL     1      24.520  45.170  49.262  1.00  0.00     0.166 A 
HETATM    3  N   UNL     1      24.105  43.970  48.855  1.00  0.00    -0.200 NA
HETATM    4  C   UNL     1      22.868  43.932  48.394  1.00  0.00     0.219 A 
HETATM    5  N   UNL     1      22.047  44.963  48.345  1.00  0.00    -0.031 NA
HETATM    6  C   UNL     1      22.527  46.119  48.795  1.00  0.00     0.731 A 
HETATM    7  N   UNL     1      23.749  46.263  49.301  1.00  0.00    -0.045 NA
BRANCH   4   8
HETATM    8  N   UNL     1      22.382  42.711  47.973  1.00  0.00    -0.270 NA
HETATM    9  H   UNL     1      23.113  42.194  47.504  1.00  0.00     0.127 HD
HETATM   10  H   UNL     1      21.509  42.830  47.478  1.00  0.00     0.127 HD
ENDBRANCH   4   8
BRANCH   6  11
HETATM   11  N   UNL     1      21.723  47.259  48.797  1.00  0.00    -0.188 N 
HETATM   12  H   UNL     1      20.894  47.086  49.348  1.00  0.00     0.184 HD
BRANCH  11  13
HETATM   13  C   UNL     1      22.068  48.617  48.653  1.00  0.00     0.055 A 
HETATM   14  C   UNL     1      21.098  49.624  48.858  1.00  0.00    -0.031 A 
HETATM   15  C   UNL     1      21.452  50.977  48.686  1.00  0.00     0.009 A 
HETATM   16  C   UNL     1      22.744  51.341  48.315  1.00  0.00     0.001 A 
HETATM   17  C   UNL     1      23.697  50.355  48.098  1.00  0.00     0.002 A 
HETATM   18  C   UNL     1      23.357  49.010  48.256  1.00  0.00     0.030 A 
BRANCH  14  19
HETATM   19  C   UNL     1      19.655  49.307  49.186  1.00  0.00     0.036 C 
HETATM   20  C   UNL     1      19.307  49.695  50.617  1.00  0.00     0.010 C 
ENDBRANCH  14  19
ENDBRANCH  11  13
ENDBRANCH   6  11
ENDBRANCH   1   2
BRANCH   1  21
HETATM   21  N   UNL     1      26.106  45.377  51.177  1.00  0.00    -0.260 N 
HETATM   22  C   UNL     1      26.171  46.562  51.830  1.00  0.00     0.326 C 
HETATM   23  O   UNL     1      26.220  47.679  51.342  1.00  0.00    -0.247 OA
HETATM   24  N   UNL     1      26.118  46.326  53.181  1.00  0.00    -0.321 N 
HETATM   25  C   UNL     1      26.139  44.913  53.503  1.00  0.00     0.140 C 
HETATM   26  H   UNL     1      26.260  47.083  53.836  1.00  0.00     0.165 HD
HETATM   27  C   UNL     1      25.916  44.362  52.072  1.00  0.00     0.261 C 
HETATM   28  C   UNL     1      24.958  44.519  54.388  1.00  0.00     0.054 C 
HETATM   29  O   UNL     1      25.626  43.205  51.793  1.00  0.00    -0.270 OA
BRANCH  25  30
HETATM   30  C   UNL     1      27.482  44.551  54.131  1.00  0.00    -0.020 A 
HETATM   31  C   UNL     1      28.021  45.249  55.227  1.00  0.00     0.022 A 
HETATM   32  C   UNL     1      29.238  44.863  55.821  1.00  0.00    -0.025 A 
HETATM   33  C   UNL     1      29.946  43.758  55.301  1.00  0.00    -0.026 A 
HETATM   34  C   UNL     1      29.766  45.553  56.925  1.00  0.00     0.012 A 
HETATM   35  C   UNL     1      29.429  43.078  54.192  1.00  0.00     0.013 A 
HETATM   36  C   UNL     1      31.151  43.361  55.904  1.00  0.00     0.012 A 
HETATM   37  C   UNL     1      28.220  43.470  53.615  1.00  0.00     0.011 A 
HETATM   38  C   UNL     1      31.654  44.050  57.009  1.00  0.00     0.001 A 
HETATM   39  C   UNL     1      30.963  45.147  57.517  1.00  0.00     0.001 A 
ENDBRANCH  25  30
ENDBRANCH   1  21
TORSDOF 7
ENDMDL
MODEL 7
REMARK VINA RESULT:     -10.7      2.153      3.846
REMARK  7 active torsions:
REMARK  status: ('A' for Active; 'I' for Inactive)
REMARK    1  A    between atoms: C_2  and  C_3 
REMARK    2  A    between atoms: C_4  and  N_5 
REMARK    3  A    between atoms: N_5  and  C_6 
REMARK    4  A    between atoms: C_8  and  N_9 
REMARK    5  A    between atoms: C_11  and  C_12 
REMARK    6  A    between atoms: C_12  and  N_13 
REMARK    7  A    between atoms: C_17  and  C_18 
ROOT
HETATM    1  C   UNL     1      26.405  47.868  50.359  1.00  0.00     0.218 C 
ENDROOT
BRANCH   1   2
HETATM    2  C   UNL     1      25.157  48.085  49.531  1.00  0.00     0.166 A 
HETATM    3  N   UNL     1      25.112  49.203  48.806  1.00  0.00    -0.200 NA
HETATM    4  C   UNL     1      23.991  49.389  48.133  1.00  0.00     0.219 A 
HETATM    5  N   UNL     1      22.971  48.553  48.116  1.00  0.00    -0.031 NA
HETATM    6  C   UNL     1      23.105  47.448  48.843  1.00  0.00     0.731 A 
HETATM    7  N   UNL     1      24.199  47.150  49.539  1.00  0.00    -0.045 NA
BRANCH   4   8
HETATM    8  N   UNL     1      23.896  50.523  47.353  1.00  0.00    -0.270 NA
HETATM    9  H   UNL     1      24.453  50.412  46.517  1.00  0.00     0.127 HD
HETATM   10  H   UNL     1      24.061  51.350  47.910  1.00  0.00     0.127 HD
ENDBRANCH   4   8
BRANCH   6  11
HETATM   11  N   UNL     1      22.083  46.498  48.870  1.00  0.00    -0.188 N 
HETATM   12  H   UNL     1      21.344  46.814  49.483  1.00  0.00     0.184 HD
BRANCH  11  13
HETATM   13  C   UNL     1      21.686  45.560  47.897  1.00  0.00     0.055 A 
HETATM   14  C   UNL     1      22.126  44.219  47.978  1.00  0.00    -0.031 A 
HETATM   15  C   UNL     1      21.741  43.298  46.984  1.00  0.00     0.009 A 
HETATM   16  C   UNL     1      20.933  43.686  45.919  1.00  0.00     0.001 A 
HETATM   17  C   UNL     1      20.509  45.005  45.825  1.00  0.00     0.002 A 
HETATM   18  C   UNL     1      20.891  45.930  46.799  1.00  0.00     0.030 A 
BRANCH  14  19
HETATM   19  C   UNL     1      23.068  43.739  49.061  1.00  0.00     0.036 C 
HETATM   20  C   UNL     1      23.977  42.625  48.560  1.00  0.00     0.010 C 
ENDBRANCH  14  19
ENDBRANCH  11  13
ENDBRANCH   6  11
ENDBRANCH   1   2
BRANCH   1  21
HETATM   21  N   UNL     1      26.324  46.780  51.309  1.00  0.00    -0.260 N 
HETATM   22  C   UNL     1      25.615  46.842  52.462  1.00  0.00     0.326 C 
HETATM   23  O   UNL     1      25.042  47.811  52.932  1.00  0.00    -0.247 OA
HETATM   24  N   UNL     1      25.585  45.592  53.030  1.00  0.00    -0.321 N 
HETATM   25  C   UNL     1      26.404  44.634  52.316  1.00  0.00     0.140 C 
HETATM   26  H   UNL     1      25.190  45.463  53.951  1.00  0.00     0.165 HD
HETATM   27  C   UNL     1      26.685  45.486  51.054  1.00  0.00     0.261 C 
HETATM   28  C   UNL     1      25.606  43.393  51.922  1.00  0.00     0.054 C 
HETATM   29  O   UNL     1      27.162  45.069  50.005  1.00  0.00    -0.270 OA
BRANCH  25  30
HETATM   30  C   UNL     1      27.635  44.291  53.151  1.00  0.00    -0.020 A 
HETATM   31  C   UNL     1      28.032  45.049  54.267  1.00  0.00     0.022 A 
HETATM   32  C   UNL     1      29.142  44.683  55.051  1.00  0.00    -0.025 A 
HETATM   33  C   UNL     1      29.888  43.534  54.707  1.00  0.00    -0.026 A 
HETATM   34  C   UNL     1      29.527  45.434  56.174  1.00  0.00     0.012 A 
HETATM   35  C   UNL     1      29.516  42.792  53.580  1.00  0.00     0.013 A 
HETATM   36  C   UNL     1      30.985  43.158  55.499  1.00  0.00     0.012 A 
HETATM   37  C   UNL     1      28.410  43.167  52.813  1.00  0.00     0.011 A 
HETATM   38  C   UNL     1      31.345  43.908  56.619  1.00  0.00     0.001 A 
HETATM   39  C   UNL     1      30.618  45.048  56.954  1.00  0.00     0.001 A 
ENDBRANCH  25  30
ENDBRANCH   1  21
TORSDOF 7
ENDMDL
MODEL 8
REMARK VINA RESULT:     -10.7      2.325      9.484
REMARK  7 active torsions:
REMARK  status: ('A' for Active; 'I' for Inactive)
REMARK    1  A    between atoms: C_2  and  C_3 
REMARK    2  A    between atoms: C_4  and  N_5 
REMARK    3  A    between atoms: N_5  and  C_6 
REMARK    4  A    between atoms: C_8  and  N_9 
REMARK    5  A    between atoms: C_11  and  C_12 
REMARK    6  A    between atoms: C_12  and  N_13 
REMARK    7  A    between atoms: C_17  and  C_18 
ROOT
HETATM    1  C   UNL     1      25.753  43.599  52.296  1.00  0.00     0.218 C 
ENDROOT
BRANCH   1   2
HETATM    2  C   UNL     1      27.136  43.022  52.510  1.00  0.00     0.166 A 
HETATM    3  N   UNL     1      27.339  41.785  52.056  1.00  0.00    -0.200 NA
HETATM    4  C   UNL     1      28.538  41.289  52.302  1.00  0.00     0.219 A 
HETATM    5  N   UNL     1      29.512  41.932  52.916  1.00  0.00    -0.031 NA
HETATM    6  C   UNL     1      29.238  43.171  53.314  1.00  0.00     0.731 A 
HETATM    7  N   UNL     1      28.073  43.776  53.098  1.00  0.00    -0.045 NA
BRANCH   4   8
HETATM    8  N   UNL     1      28.808  40.017  51.840  1.00  0.00    -0.270 NA
HETATM    9  H   UNL     1      29.511  39.583  52.424  1.00  0.00     0.127 HD
HETATM   10  H   UNL     1      28.979  40.031  50.845  1.00  0.00     0.127 HD
ENDBRANCH   4   8
BRANCH   6  11
HETATM   11  N   UNL     1      30.215  43.932  53.958  1.00  0.00    -0.188 N 
HETATM   12  H   UNL     1      30.479  44.710  53.369  1.00  0.00     0.184 HD
BRANCH  11  13
HETATM   13  C   UNL     1      30.469  44.115  55.331  1.00  0.00     0.055 A 
HETATM   14  C   UNL     1      29.945  45.238  56.010  1.00  0.00    -0.031 A 
HETATM   15  C   UNL     1      30.227  45.420  57.378  1.00  0.00     0.009 A 
HETATM   16  C   UNL     1      31.018  44.510  58.076  1.00  0.00     0.001 A 
HETATM   17  C   UNL     1      31.548  43.412  57.412  1.00  0.00     0.002 A 
HETATM   18  C   UNL     1      31.282  43.225  56.053  1.00  0.00     0.030 A 
BRANCH  14  19
HETATM   19  C   UNL     1      29.143  46.311  55.305  1.00  0.00     0.036 C 
HETATM   20  C   UNL     1      28.013  46.833  56.181  1.00  0.00     0.010 C 
ENDBRANCH  14  19
ENDBRANCH  11  13
ENDBRANCH   6  11
ENDBRANCH   1   2
BRANCH   1  21
HETATM   21  N   UNL     1      25.731  44.944  51.762  1.00  0.00    -0.260 N 
HETATM   22  C   UNL     1      25.767  46.058  52.532  1.00  0.00     0.326 C 
HETATM   23  O   UNL     1      25.715  46.123  53.749  1.00  0.00    -0.247 OA
HETATM   24  N   UNL     1      25.932  47.152  51.720  1.00  0.00    -0.321 N 
HETATM   25  C   UNL     1      25.889  46.815  50.312  1.00  0.00     0.140 C 
HETATM   26  H   UNL     1      25.875  48.085  52.107  1.00  0.00     0.165 HD
HETATM   27  C   UNL     1      25.964  45.274  50.456  1.00  0.00     0.261 C 
HETATM   28  C   UNL     1      27.129  47.316  49.574  1.00  0.00     0.054 C 
HETATM   29  O   UNL     1      26.187  44.484  49.546  1.00  0.00    -0.270 OA
BRANCH  25  30
HETATM   30  C   UNL     1      24.595  47.343  49.698  1.00  0.00    -0.020 A 
HETATM   31  C   UNL     1      24.315  48.716  49.580  1.00  0.00     0.022 A 
HETATM   32  C   UNL     1      23.137  49.178  48.963  1.00  0.00    -0.025 A 
HETATM   33  C   UNL     1      22.203  48.246  48.460  1.00  0.00    -0.026 A 
HETATM   34  C   UNL     1      22.867  50.551  48.834  1.00  0.00     0.012 A 
HETATM   35  C   UNL     1      22.462  46.878  48.601  1.00  0.00     0.013 A 
HETATM   36  C   UNL     1      21.036  48.706  47.830  1.00  0.00     0.012 A 
HETATM   37  C   UNL     1      23.637  46.434  49.213  1.00  0.00     0.011 A 
HETATM   38  C   UNL     1      20.790  50.074  47.698  1.00  0.00     0.001 A 
HETATM   39  C   UNL     1      21.704  50.995  48.202  1.00  0.00     0.001 A 
ENDBRANCH  25  30
ENDBRANCH   1  21
TORSDOF 7
ENDMDL
MODEL 9
REMARK VINA RESULT:     -10.6      1.883      3.317
REMARK  7 active torsions:
REMARK  status: ('A' for Active; 'I' for Inactive)
REMARK    1  A    between atoms: C_2  and  C_3 
REMARK    2  A    between atoms: C_4  and  N_5 
REMARK    3  A    between atoms: N_5  and  C_6 
REMARK    4  A    between atoms: C_8  and  N_9 
REMARK    5  A    between atoms: C_11  and  C_12 
REMARK    6  A    between atoms: C_12  and  N_13 
REMARK    7  A    between atoms: C_17  and  C_18 
ROOT
HETATM    1  C   UNL     1      26.489  47.686  50.070  1.00  0.00     0.218 C 
ENDROOT
BRANCH   1   2
HETATM    2  C   UNL     1      25.178  48.067  49.417  1.00  0.00     0.166 A 
HETATM    3  N   UNL     1      25.156  49.232  48.767  1.00  0.00    -0.200 NA
HETATM    4  C   UNL     1      23.986  49.561  48.250  1.00  0.00     0.219 A 
HETATM    5  N   UNL     1      22.896  48.822  48.312  1.00  0.00    -0.031 NA
HETATM    6  C   UNL     1      23.008  47.663  48.954  1.00  0.00     0.731 A 
HETATM    7  N   UNL     1      24.143  47.223  49.491  1.00  0.00    -0.045 NA
BRANCH   4   8
HETATM    8  N   UNL     1      23.910  50.750  47.553  1.00  0.00    -0.270 NA
HETATM    9  H   UNL     1      23.122  51.290  47.883  1.00  0.00     0.127 HD
HETATM   10  H   UNL     1      23.970  50.581  46.559  1.00  0.00     0.127 HD
ENDBRANCH   4   8
BRANCH   6  11
HETATM   11  N   UNL     1      21.910  46.808  49.053  1.00  0.00    -0.188 N 
HETATM   12  H   UNL     1      21.506  46.882  49.977  1.00  0.00     0.184 HD
BRANCH  11  13
HETATM   13  C   UNL     1      21.032  46.334  48.059  1.00  0.00     0.055 A 
HETATM   14  C   UNL     1      19.769  46.942  47.874  1.00  0.00    -0.031 A 
HETATM   15  C   UNL     1      18.892  46.441  46.891  1.00  0.00     0.009 A 
HETATM   16  C   UNL     1      19.247  45.353  46.097  1.00  0.00     0.001 A 
HETATM   17  C   UNL     1      20.480  44.742  46.284  1.00  0.00     0.002 A 
HETATM   18  C   UNL     1      21.355  45.223  47.260  1.00  0.00     0.030 A 
BRANCH  14  19
HETATM   19  C   UNL     1      19.279  48.076  48.747  1.00  0.00     0.036 C 
HETATM   20  C   UNL     1      17.844  47.852  49.205  1.00  0.00     0.010 C 
ENDBRANCH  14  19
ENDBRANCH  11  13
ENDBRANCH   6  11
ENDBRANCH   1   2
BRANCH   1  21
HETATM   21  N   UNL     1      26.396  46.619  51.043  1.00  0.00    -0.260 N 
HETATM   22  C   UNL     1      25.654  46.698  52.174  1.00  0.00     0.326 C 
HETATM   23  O   UNL     1      25.055  47.669  52.604  1.00  0.00    -0.247 OA
HETATM   24  N   UNL     1      25.624  45.461  52.770  1.00  0.00    -0.321 N 
HETATM   25  C   UNL     1      26.476  44.499  52.103  1.00  0.00     0.140 C 
HETATM   26  H   UNL     1      25.206  45.348  53.683  1.00  0.00     0.165 HD
HETATM   27  C   UNL     1      26.782  45.325  50.830  1.00  0.00     0.261 C 
HETATM   28  C   UNL     1      25.707  43.237  51.716  1.00  0.00     0.054 C 
HETATM   29  O   UNL     1      27.294  44.890  49.804  1.00  0.00    -0.270 OA
BRANCH  25  30
HETATM   30  C   UNL     1      27.688  44.193  52.980  1.00  0.00    -0.020 A 
HETATM   31  C   UNL     1      28.034  44.973  54.098  1.00  0.00     0.022 A 
HETATM   32  C   UNL     1      29.127  44.641  54.921  1.00  0.00    -0.025 A 
HETATM   33  C   UNL     1      29.907  43.505  54.615  1.00  0.00    -0.026 A 
HETATM   34  C   UNL     1      29.460  45.414  56.045  1.00  0.00     0.012 A 
HETATM   35  C   UNL     1      29.586  42.741  53.487  1.00  0.00     0.013 A 
HETATM   36  C   UNL     1      30.987  43.162  55.445  1.00  0.00     0.012 A 
HETATM   37  C   UNL     1      28.497  43.082  52.681  1.00  0.00     0.011 A 
HETATM   38  C   UNL     1      31.295  43.934  56.566  1.00  0.00     0.001 A 
HETATM   39  C   UNL     1      30.533  45.061  56.864  1.00  0.00     0.001 A 
ENDBRANCH  25  30
ENDBRANCH   1  21
TORSDOF 7
ENDMDL
MODEL 10
REMARK VINA RESULT:     -10.5      4.104      8.007
REMARK  7 active torsions:
REMARK  status: ('A' for Active; 'I' for Inactive)
REMARK    1  A    between atoms: C_2  and  C_3 
REMARK    2  A    between atoms: C_4  and  N_5 
REMARK    3  A    between atoms: N_5  and  C_6 
REMARK    4  A    between atoms: C_8  and  N_9 
REMARK    5  A    between atoms: C_11  and  C_12 
REMARK    6  A    between atoms: C_12  and  N_13 
REMARK    7  A    between atoms: C_17  and  C_18 
ROOT
HETATM    1  C   UNL     1      25.275  42.561  50.771  1.00  0.00     0.218 C 
ENDROOT
BRANCH   1   2
HETATM    2  C   UNL     1      26.255  41.458  50.438  1.00  0.00     0.166 A 
HETATM    3  N   UNL     1      27.224  41.236  51.327  1.00  0.00    -0.200 NA
HETATM    4  C   UNL     1      28.093  40.303  50.986  1.00  0.00     0.219 A 
HETATM    5  N   UNL     1      28.041  39.588  49.879  1.00  0.00    -0.031 NA
HETATM    6  C   UNL     1      27.030  39.851  49.057  1.00  0.00     0.731 A 
HETATM    7  N   UNL     1      26.086  40.753  49.313  1.00  0.00    -0.045 NA
BRANCH   4   8
HETATM    8  N   UNL     1      29.109  40.021  51.878  1.00  0.00    -0.270 NA
HETATM    9  H   UNL     1      29.998  40.024  51.396  1.00  0.00     0.127 HD
HETATM   10  H   UNL     1      28.882  39.202  52.424  1.00  0.00     0.127 HD
ENDBRANCH   4   8
BRANCH   6  11
HETATM   11  N   UNL     1      26.886  39.131  47.870  1.00  0.00    -0.188 N 
HETATM   12  H   UNL     1      25.988  38.668  47.863  1.00  0.00     0.184 HD
BRANCH  11  13
HETATM   13  C   UNL     1      27.451  39.351  46.598  1.00  0.00     0.055 A 
HETATM   14  C   UNL     1      27.998  38.272  45.866  1.00  0.00    -0.031 A 
HETATM   15  C   UNL     1      28.581  38.511  44.606  1.00  0.00     0.009 A 
HETATM   16  C   UNL     1      28.631  39.795  44.068  1.00  0.00     0.001 A 
HETATM   17  C   UNL     1      28.109  40.860  44.789  1.00  0.00     0.002 A 
HETATM   18  C   UNL     1      27.536  40.639  46.043  1.00  0.00     0.030 A 
BRANCH  14  19
HETATM   19  C   UNL     1      28.052  36.863  46.415  1.00  0.00     0.036 C 
HETATM   20  C   UNL     1      28.942  35.965  45.567  1.00  0.00     0.010 C 
ENDBRANCH  14  19
ENDBRANCH  11  13
ENDBRANCH   6  11
ENDBRANCH   1   2
BRANCH   1  21
HETATM   21  N   UNL     1      25.872  43.764  51.312  1.00  0.00    -0.260 N 
HETATM   22  C   UNL     1      26.743  44.542  50.625  1.00  0.00     0.326 C 
HETATM   23  O   UNL     1      27.237  44.320  49.532  1.00  0.00    -0.247 OA
HETATM   24  N   UNL     1      26.964  45.694  51.338  1.00  0.00    -0.321 N 
HETATM   25  C   UNL     1      26.320  45.680  52.636  1.00  0.00     0.140 C 
HETATM   26  H   UNL     1      27.669  46.352  51.035  1.00  0.00     0.165 HD
HETATM   27  C   UNL     1      25.438  44.424  52.427  1.00  0.00     0.261 C 
HETATM   28  C   UNL     1      25.425  46.901  52.835  1.00  0.00     0.054 C 
HETATM   29  O   UNL     1      24.510  44.078  53.148  1.00  0.00    -0.270 OA
BRANCH  25  30
HETATM   30  C   UNL     1      27.377  45.550  53.730  1.00  0.00    -0.020 A 
HETATM   31  C   UNL     1      28.203  44.419  53.860  1.00  0.00     0.022 A 
HETATM   32  C   UNL     1      29.204  44.346  54.846  1.00  0.00    -0.025 A 
HETATM   33  C   UNL     1      29.382  45.426  55.738  1.00  0.00    -0.026 A 
HETATM   34  C   UNL     1      30.037  43.220  54.964  1.00  0.00     0.012 A 
HETATM   35  C   UNL     1      28.544  46.542  55.633  1.00  0.00     0.013 A 
HETATM   36  C   UNL     1      30.393  45.361  56.711  1.00  0.00     0.012 A 
HETATM   37  C   UNL     1      27.556  46.602  54.648  1.00  0.00     0.011 A 
HETATM   38  C   UNL     1      31.220  44.241  56.805  1.00  0.00     0.001 A 
HETATM   39  C   UNL     1      31.039  43.170  55.933  1.00  0.00     0.001 A 
ENDBRANCH  25  30
ENDBRANCH   1  21
TORSDOF 7
ENDMDL
