MODEL 1
REMARK VINA RESULT:     -10.1      0.000      0.000
REMARK  9 active torsions:
REMARK  status: ('A' for Active; 'I' for Inactive)
REMARK    1  A    between atoms: C_2  and  C_3 
REMARK    2  A    between atoms: C_3  and  O_4 
REMARK    3  A    between atoms: O_4  and  C_5 
REMARK    4  A    between atoms: C_7  and  C_8 
REMARK       I    between atoms: C_8  and  N_9 
REMARK    5  A    between atoms: N_9  and  C_10 
REMARK    6  A    between atoms: C_10  and  N_11 
REMARK    7  A    between atoms: N_11  and  C_12 
REMARK    8  A    between atoms: C_14  and  O_15 
REMARK    9  A    between atoms: C_16  and  C_17 
ROOT
HETATM    1  C   UNL     1      24.521  46.351  50.385  1.00  0.00     0.036 A 
HETATM    2  C   UNL     1      24.392  45.173  51.120  1.00  0.00     0.067 A 
HETATM    3  C   UNL     1      25.188  44.943  52.249  1.00  0.00     0.082 A 
HETATM    4  C   UNL     1      26.127  45.890  52.680  1.00  0.00     0.050 A 
HETATM    5  C   UNL     1      26.197  47.102  51.967  1.00  0.00     0.021 A 
HETATM    6  C   UNL     1      25.387  47.341  50.846  1.00  0.00     0.030 A 
ENDROOT
BRANCH   1   7
HETATM    7  N   UNL     1      23.773  46.600  49.215  1.00  0.00    -0.333 N 
HETATM    8  H   UNL     1      23.626  45.805  48.592  1.00  0.00     0.168 HD
BRANCH   7   9
HETATM    9  C   UNL     1      23.020  47.707  48.893  1.00  0.00     0.179 C 
HETATM   10  S   UNL     1      23.536  49.217  48.382  1.00  0.00    -0.040 SA
BRANCH   9  11
HETATM   11  N   UNL     1      21.657  47.558  49.022  1.00  0.00    -0.299 N 
HETATM   12  C   UNL     1      20.810  46.631  48.432  1.00  0.00     0.257 C 
HETATM   13  O   UNL     1      21.181  45.548  47.991  1.00  0.00    -0.267 OA
HETATM   14  H   UNL     1      21.239  48.308  49.557  1.00  0.00     0.171 HD
BRANCH  12  15
HETATM   15  C   UNL     1      19.367  47.000  48.469  1.00  0.00     0.035 A 
HETATM   16  C   UNL     1      18.967  48.303  48.791  1.00  0.00     0.053 A 
HETATM   17  C   UNL     1      17.614  48.629  48.888  1.00  0.00     0.069 A 
HETATM   18  C   UNL     1      16.652  47.658  48.612  1.00  0.00     0.037 A 
HETATM   19  C   UNL     1      17.047  46.364  48.250  1.00  0.00     0.004 A 
HETATM   20  C   UNL     1      18.402  46.033  48.178  1.00  0.00     0.017 A 
BRANCH  17  21
HETATM   21  O   UNL     1      17.372  49.925  49.240  1.00  0.00    -0.351 OA
BRANCH  21  22
HETATM   22  C   UNL     1      18.321  50.551  50.106  1.00  0.00     0.175 C 
BRANCH  22  23
HETATM   23  C   UNL     1      18.561  51.960  49.572  1.00  0.00     0.022 C 
HETATM   24  C   UNL     1      19.738  52.018  48.616  1.00  0.00     0.007 C 
ENDBRANCH  22  23
ENDBRANCH  21  22
ENDBRANCH  17  21
ENDBRANCH  12  15
ENDBRANCH   9  11
ENDBRANCH   7   9
ENDBRANCH   1   7
BRANCH   3  25
HETATM   25  O   UNL     1      25.031  43.754  52.911  1.00  0.00    -0.360 OA
HETATM   26  H   UNL     1      24.783  43.058  52.281  1.00  0.00     0.217 HD
ENDBRANCH   3  25
BRANCH   4  27
HETATM   27  C   UNL     1      27.065  45.670  53.784  1.00  0.00     0.183 A 
HETATM   28  O   UNL     1      28.002  44.682  53.626  1.00  0.00    -0.288 OA
HETATM   29  C   UNL     1      28.785  44.769  54.736  1.00  0.00     0.112 A 
HETATM   30  C   UNL     1      28.273  45.781  55.527  1.00  0.00     0.094 A 
HETATM   31  C   UNL     1      29.910  44.001  55.032  1.00  0.00    -0.025 A 
HETATM   32  N   UNL     1      27.164  46.330  54.928  1.00  0.00    -0.221 NA
HETATM   33  C   UNL     1      28.919  46.091  56.731  1.00  0.00     0.041 A 
HETATM   34  C   UNL     1      30.078  45.370  57.078  1.00  0.00    -0.059 A 
HETATM   35  C   UNL     1      30.547  44.339  56.242  1.00  0.00     0.016 A 
HETATM   36  C   UNL     1      30.791  45.691  58.360  1.00  0.00     0.048 C 
HETATM   37  C   UNL     1      30.442  42.921  54.148  1.00  0.00     0.051 C 
ENDBRANCH   4  27
TORSDOF 9
ENDMDL
MODEL 2
REMARK VINA RESULT:     -10.0      1.441      2.479
REMARK  9 active torsions:
REMARK  status: ('A' for Active; 'I' for Inactive)
REMARK    1  A    between atoms: C_2  and  C_3 
REMARK    2  A    between atoms: C_3  and  O_4 
REMARK    3  A    between atoms: O_4  and  C_5 
REMARK    4  A    between atoms: C_7  and  C_8 
REMARK       I    between atoms: C_8  and  N_9 
REMARK    5  A    between atoms: N_9  and  C_10 
REMARK    6  A    between atoms: C_10  and  N_11 
REMARK    7  A    between atoms: N_11  and  C_12 
REMARK    8  A    between atoms: C_14  and  O_15 
REMARK    9  A    between atoms: C_16  and  C_17 
ROOT
HETATM    1  C   UNL     1      24.432  46.140  50.239  1.00  0.00     0.036 A 
HETATM    2  C   UNL     1      24.338  44.973  50.996  1.00  0.00     0.067 A 
HETATM    3  C   UNL     1      25.125  44.795  52.140  1.00  0.00     0.082 A 
HETATM    4  C   UNL     1      26.021  45.786  52.565  1.00  0.00     0.050 A 
HETATM    5  C   UNL     1      26.055  46.986  51.829  1.00  0.00     0.021 A 
HETATM    6  C   UNL     1      25.253  47.171  50.692  1.00  0.00     0.030 A 
ENDROOT
BRANCH   1   7
HETATM    7  N   UNL     1      23.693  46.338  49.054  1.00  0.00    -0.333 N 
HETATM    8  H   UNL     1      24.232  46.540  48.211  1.00  0.00     0.168 HD
BRANCH   7   9
HETATM    9  C   UNL     1      22.362  46.081  48.815  1.00  0.00     0.179 C 
HETATM   10  S   UNL     1      21.576  44.604  48.727  1.00  0.00    -0.040 SA
BRANCH   9  11
HETATM   11  N   UNL     1      21.569  47.188  48.604  1.00  0.00    -0.299 N 
HETATM   12  C   UNL     1      21.930  48.469  48.212  1.00  0.00     0.257 C 
HETATM   13  O   UNL     1      22.970  48.737  47.620  1.00  0.00    -0.267 OA
HETATM   14  H   UNL     1      20.608  47.028  48.874  1.00  0.00     0.171 HD
BRANCH  12  15
HETATM   15  C   UNL     1      20.894  49.509  48.468  1.00  0.00     0.035 A 
HETATM   16  C   UNL     1      19.567  49.150  48.735  1.00  0.00     0.053 A 
HETATM   17  C   UNL     1      18.586  50.127  48.909  1.00  0.00     0.069 A 
HETATM   18  C   UNL     1      18.943  51.473  48.869  1.00  0.00     0.037 A 
HETATM   19  C   UNL     1      20.277  51.837  48.643  1.00  0.00     0.004 A 
HETATM   20  C   UNL     1      21.253  50.858  48.443  1.00  0.00     0.017 A 
BRANCH  17  21
HETATM   21  O   UNL     1      17.333  49.632  49.130  1.00  0.00    -0.351 OA
BRANCH  21  22
HETATM   22  C   UNL     1      16.966  48.453  48.412  1.00  0.00     0.175 C 
BRANCH  22  23
HETATM   23  C   UNL     1      15.562  48.679  47.857  1.00  0.00     0.022 C 
HETATM   24  C   UNL     1      15.422  50.036  47.192  1.00  0.00     0.007 C 
ENDBRANCH  22  23
ENDBRANCH  21  22
ENDBRANCH  17  21
ENDBRANCH  12  15
ENDBRANCH   9  11
ENDBRANCH   7   9
ENDBRANCH   1   7
BRANCH   3  25
HETATM   25  O   UNL     1      25.004  43.614  52.823  1.00  0.00    -0.360 OA
HETATM   26  H   UNL     1      24.945  43.791  53.776  1.00  0.00     0.217 HD
ENDBRANCH   3  25
BRANCH   4  27
HETATM   27  C   UNL     1      26.950  45.624  53.686  1.00  0.00     0.183 A 
HETATM   28  O   UNL     1      27.919  44.661  53.566  1.00  0.00    -0.288 OA
HETATM   29  C   UNL     1      28.684  44.801  54.683  1.00  0.00     0.112 A 
HETATM   30  C   UNL     1      28.131  45.817  55.440  1.00  0.00     0.094 A 
HETATM   31  C   UNL     1      29.827  44.075  55.014  1.00  0.00    -0.025 A 
HETATM   32  N   UNL     1      27.014  46.316  54.813  1.00  0.00    -0.221 NA
HETATM   33  C   UNL     1      28.751  46.178  56.643  1.00  0.00     0.041 A 
HETATM   34  C   UNL     1      29.927  45.502  57.024  1.00  0.00    -0.059 A 
HETATM   35  C   UNL     1      30.438  44.465  56.222  1.00  0.00     0.016 A 
HETATM   36  C   UNL     1      30.613  45.878  58.306  1.00  0.00     0.048 C 
HETATM   37  C   UNL     1      30.404  42.989  54.165  1.00  0.00     0.051 C 
ENDBRANCH   4  27
TORSDOF 9
ENDMDL
MODEL 3
REMARK VINA RESULT:      -9.8      2.478      3.400
REMARK  9 active torsions:
REMARK  status: ('A' for Active; 'I' for Inactive)
REMARK    1  A    between atoms: C_2  and  C_3 
REMARK    2  A    between atoms: C_3  and  O_4 
REMARK    3  A    between atoms: O_4  and  C_5 
REMARK    4  A    between atoms: C_7  and  C_8 
REMARK       I    between atoms: C_8  and  N_9 
REMARK    5  A    between atoms: N_9  and  C_10 
REMARK    6  A    between atoms: C_10  and  N_11 
REMARK    7  A    between atoms: N_11  and  C_12 
REMARK    8  A    between atoms: C_14  and  O_15 
REMARK    9  A    between atoms: C_16  and  C_17 
ROOT
HETATM    1  C   UNL     1      24.745  43.820  49.757  1.00  0.00     0.036 A 
HETATM    2  C   UNL     1      24.361  43.773  51.096  1.00  0.00     0.067 A 
HETATM    3  C   UNL     1      25.309  43.908  52.119  1.00  0.00     0.082 A 
HETATM    4  C   UNL     1      26.667  44.102  51.827  1.00  0.00     0.050 A 
HETATM    5  C   UNL     1      27.028  44.215  50.472  1.00  0.00     0.021 A 
HETATM    6  C   UNL     1      26.076  44.098  49.448  1.00  0.00     0.030 A 
ENDROOT
BRANCH   1   7
HETATM    7  N   UNL     1      23.830  43.641  48.699  1.00  0.00    -0.333 N 
HETATM    8  H   UNL     1      23.373  42.729  48.642  1.00  0.00     0.168 HD
BRANCH   7   9
HETATM    9  C   UNL     1      23.291  44.586  47.856  1.00  0.00     0.179 C 
HETATM   10  S   UNL     1      22.676  44.388  46.309  1.00  0.00    -0.040 SA
BRANCH   9  11
HETATM   11  N   UNL     1      23.268  45.875  48.343  1.00  0.00    -0.299 N 
HETATM   12  C   UNL     1      22.192  46.735  48.512  1.00  0.00     0.257 C 
HETATM   13  O   UNL     1      21.028  46.364  48.613  1.00  0.00    -0.267 OA
HETATM   14  H   UNL     1      24.197  46.242  48.498  1.00  0.00     0.171 HD
BRANCH  12  15
HETATM   15  C   UNL     1      22.566  48.167  48.676  1.00  0.00     0.035 A 
HETATM   16  C   UNL     1      21.583  49.150  48.853  1.00  0.00     0.053 A 
HETATM   17  C   UNL     1      21.932  50.498  48.940  1.00  0.00     0.069 A 
HETATM   18  C   UNL     1      23.277  50.864  48.902  1.00  0.00     0.037 A 
HETATM   19  C   UNL     1      24.266  49.881  48.766  1.00  0.00     0.004 A 
HETATM   20  C   UNL     1      23.913  48.534  48.653  1.00  0.00     0.017 A 
BRANCH  17  21
HETATM   21  O   UNL     1      20.872  51.346  49.080  1.00  0.00    -0.351 OA
BRANCH  21  22
HETATM   22  C   UNL     1      19.842  50.952  49.989  1.00  0.00     0.175 C 
BRANCH  22  23
HETATM   23  C   UNL     1      18.703  51.957  49.847  1.00  0.00     0.022 C 
HETATM   24  C   UNL     1      18.630  52.545  48.451  1.00  0.00     0.007 C 
ENDBRANCH  22  23
ENDBRANCH  21  22
ENDBRANCH  17  21
ENDBRANCH  12  15
ENDBRANCH   9  11
ENDBRANCH   7   9
ENDBRANCH   1   7
BRANCH   3  25
HETATM   25  O   UNL     1      24.870  43.826  53.413  1.00  0.00    -0.360 OA
HETATM   26  H   UNL     1      25.027  42.932  53.757  1.00  0.00     0.217 HD
ENDBRANCH   3  25
BRANCH   4  27
HETATM   27  C   UNL     1      27.723  44.142  52.841  1.00  0.00     0.183 A 
HETATM   28  O   UNL     1      27.646  45.126  53.793  1.00  0.00    -0.288 OA
HETATM   29  C   UNL     1      28.675  44.863  54.645  1.00  0.00     0.112 A 
HETATM   30  C   UNL     1      29.344  43.755  54.158  1.00  0.00     0.094 A 
HETATM   31  C   UNL     1      29.001  45.560  55.807  1.00  0.00    -0.025 A 
HETATM   32  N   UNL     1      28.750  43.319  52.998  1.00  0.00    -0.221 NA
HETATM   33  C   UNL     1      30.442  43.260  54.873  1.00  0.00     0.041 A 
HETATM   34  C   UNL     1      30.809  43.903  56.072  1.00  0.00    -0.059 A 
HETATM   35  C   UNL     1      30.102  45.036  56.513  1.00  0.00     0.016 A 
HETATM   36  C   UNL     1      31.979  43.384  56.860  1.00  0.00     0.048 C 
HETATM   37  C   UNL     1      28.248  46.748  56.309  1.00  0.00     0.051 C 
ENDBRANCH   4  27
TORSDOF 9
ENDMDL
MODEL 4
REMARK VINA RESULT:      -9.8      2.492     10.765
REMARK  9 active torsions:
REMARK  status: ('A' for Active; 'I' for Inactive)
REMARK    1  A    between atoms: C_2  and  C_3 
REMARK    2  A    between atoms: C_3  and  O_4 
REMARK    3  A    between atoms: O_4  and  C_5 
REMARK    4  A    between atoms: C_7  and  C_8 
REMARK       I    between atoms: C_8  and  N_9 
REMARK    5  A    between atoms: N_9  and  C_10 
REMARK    6  A    between atoms: C_10  and  N_11 
REMARK    7  A    between atoms: N_11  and  C_12 
REMARK    8  A    between atoms: C_14  and  O_15 
REMARK    9  A    between atoms: C_16  and  C_17 
ROOT
HETATM    1  C   UNL     1      25.545  45.008  49.510  1.00  0.00     0.036 A 
HETATM    2  C   UNL     1      25.846  46.341  49.786  1.00  0.00     0.067 A 
HETATM    3  C   UNL     1      24.876  47.340  49.643  1.00  0.00     0.082 A 
HETATM    4  C   UNL     1      23.572  47.030  49.230  1.00  0.00     0.050 A 
HETATM    5  C   UNL     1      23.265  45.672  49.022  1.00  0.00     0.021 A 
HETATM    6  C   UNL     1      24.233  44.669  49.182  1.00  0.00     0.030 A 
ENDROOT
BRANCH   1   7
HETATM    7  N   UNL     1      26.506  43.979  49.595  1.00  0.00    -0.333 N 
HETATM    8  H   UNL     1      27.231  43.975  48.875  1.00  0.00     0.168 HD
BRANCH   7   9
HETATM    9  C   UNL     1      26.746  43.107  50.632  1.00  0.00     0.179 C 
HETATM   10  S   UNL     1      26.648  41.434  50.643  1.00  0.00    -0.040 SA
BRANCH   9  11
HETATM   11  N   UNL     1      27.100  43.688  51.830  1.00  0.00    -0.299 N 
HETATM   12  C   UNL     1      26.297  44.274  52.798  1.00  0.00     0.257 C 
HETATM   13  O   UNL     1      25.101  44.038  52.930  1.00  0.00    -0.267 OA
HETATM   14  H   UNL     1      28.103  43.762  51.938  1.00  0.00     0.171 HD
BRANCH  12  15
HETATM   15  C   UNL     1      27.025  45.148  53.759  1.00  0.00     0.035 A 
HETATM   16  C   UNL     1      28.159  44.683  54.437  1.00  0.00     0.053 A 
HETATM   17  C   UNL     1      28.800  45.482  55.384  1.00  0.00     0.069 A 
HETATM   18  C   UNL     1      28.336  46.775  55.620  1.00  0.00     0.037 A 
HETATM   19  C   UNL     1      27.227  47.259  54.915  1.00  0.00     0.004 A 
HETATM   20  C   UNL     1      26.571  46.450  53.985  1.00  0.00     0.017 A 
BRANCH  17  21
HETATM   21  O   UNL     1      29.871  44.888  55.988  1.00  0.00    -0.351 OA
BRANCH  21  22
HETATM   22  C   UNL     1      30.190  45.320  57.312  1.00  0.00     0.175 C 
BRANCH  22  23
HETATM   23  C   UNL     1      31.362  44.471  57.796  1.00  0.00     0.022 C 
HETATM   24  C   UNL     1      31.476  43.165  57.032  1.00  0.00     0.007 C 
ENDBRANCH  22  23
ENDBRANCH  21  22
ENDBRANCH  17  21
ENDBRANCH  12  15
ENDBRANCH   9  11
ENDBRANCH   7   9
ENDBRANCH   1   7
BRANCH   3  25
HETATM   25  O   UNL     1      25.244  48.633  49.904  1.00  0.00    -0.360 OA
HETATM   26  H   UNL     1      25.668  49.017  49.120  1.00  0.00     0.217 HD
ENDBRANCH   3  25
BRANCH   4  27
HETATM   27  C   UNL     1      22.540  48.034  48.957  1.00  0.00     0.183 A 
HETATM   28  O   UNL     1      21.232  47.634  49.054  1.00  0.00    -0.288 OA
HETATM   29  C   UNL     1      20.509  48.770  48.855  1.00  0.00     0.112 A 
HETATM   30  C   UNL     1      21.406  49.796  48.618  1.00  0.00     0.094 A 
HETATM   31  C   UNL     1      19.122  48.900  48.894  1.00  0.00    -0.025 A 
HETATM   32  N   UNL     1      22.692  49.315  48.657  1.00  0.00    -0.221 NA
HETATM   33  C   UNL     1      20.911  51.090  48.403  1.00  0.00     0.041 A 
HETATM   34  C   UNL     1      19.518  51.295  48.455  1.00  0.00    -0.059 A 
HETATM   35  C   UNL     1      18.651  50.212  48.685  1.00  0.00     0.016 A 
HETATM   36  C   UNL     1      18.968  52.676  48.236  1.00  0.00     0.048 C 
HETATM   37  C   UNL     1      18.183  47.770  49.164  1.00  0.00     0.051 C 
ENDBRANCH   4  27
TORSDOF 9
ENDMDL
MODEL 5
REMARK VINA RESULT:      -9.6      3.517      9.838
REMARK  9 active torsions:
REMARK  status: ('A' for Active; 'I' for Inactive)
REMARK    1  A    between atoms: C_2  and  C_3 
REMARK    2  A    between atoms: C_3  and  O_4 
REMARK    3  A    between atoms: O_4  and  C_5 
REMARK    4  A    between atoms: C_7  and  C_8 
REMARK       I    between atoms: C_8  and  N_9 
REMARK    5  A    between atoms: N_9  and  C_10 
REMARK    6  A    between atoms: C_10  and  N_11 
REMARK    7  A    between atoms: N_11  and  C_12 
REMARK    8  A    between atoms: C_14  and  O_15 
REMARK    9  A    between atoms: C_16  and  C_17 
ROOT
HETATM    1  C   UNL     1      25.604  42.553  50.509  1.00  0.00     0.036 A 
HETATM    2  C   UNL     1      24.244  42.787  50.707  1.00  0.00     0.067 A 
HETATM    3  C   UNL     1      23.672  44.018  50.366  1.00  0.00     0.082 A 
HETATM    4  C   UNL     1      24.444  45.047  49.808  1.00  0.00     0.050 A 
HETATM    5  C   UNL     1      25.800  44.772  49.551  1.00  0.00     0.021 A 
HETATM    6  C   UNL     1      26.370  43.531  49.876  1.00  0.00     0.030 A 
ENDROOT
BRANCH   1   7
HETATM    7  N   UNL     1      26.229  41.345  50.882  1.00  0.00    -0.333 N 
HETATM    8  H   UNL     1      25.639  40.511  50.886  1.00  0.00     0.168 HD
BRANCH   7   9
HETATM    9  C   UNL     1      27.571  41.078  51.031  1.00  0.00     0.179 C 
HETATM   10  S   UNL     1      28.509  39.934  50.245  1.00  0.00    -0.040 SA
BRANCH   9  11
HETATM   11  N   UNL     1      28.232  41.846  51.966  1.00  0.00    -0.299 N 
HETATM   12  C   UNL     1      28.515  41.567  53.295  1.00  0.00     0.257 C 
HETATM   13  O   UNL     1      28.560  40.435  53.763  1.00  0.00    -0.267 OA
HETATM   14  H   UNL     1      28.439  42.774  51.621  1.00  0.00     0.171 HD
BRANCH  12  15
HETATM   15  C   UNL     1      28.877  42.759  54.113  1.00  0.00     0.035 A 
HETATM   16  C   UNL     1      27.947  43.782  54.342  1.00  0.00     0.053 A 
HETATM   17  C   UNL     1      28.309  44.926  55.052  1.00  0.00     0.069 A 
HETATM   18  C   UNL     1      29.594  45.028  55.583  1.00  0.00     0.037 A 
HETATM   19  C   UNL     1      30.514  43.990  55.392  1.00  0.00     0.004 A 
HETATM   20  C   UNL     1      30.159  42.856  54.658  1.00  0.00     0.017 A 
BRANCH  17  21
HETATM   21  O   UNL     1      27.313  45.852  55.172  1.00  0.00    -0.351 OA
BRANCH  21  22
HETATM   22  C   UNL     1      26.447  46.021  54.048  1.00  0.00     0.175 C 
BRANCH  22  23
HETATM   23  C   UNL     1      26.029  47.488  54.014  1.00  0.00     0.022 C 
HETATM   24  C   UNL     1      26.425  48.225  55.280  1.00  0.00     0.007 C 
ENDBRANCH  22  23
ENDBRANCH  21  22
ENDBRANCH  17  21
ENDBRANCH  12  15
ENDBRANCH   9  11
ENDBRANCH   7   9
ENDBRANCH   1   7
BRANCH   3  25
HETATM   25  O   UNL     1      22.335  44.193  50.612  1.00  0.00    -0.360 OA
HETATM   26  H   UNL     1      21.821  43.553  50.094  1.00  0.00     0.217 HD
ENDBRANCH   3  25
BRANCH   4  27
HETATM   27  C   UNL     1      23.935  46.392  49.529  1.00  0.00     0.183 A 
HETATM   28  O   UNL     1      24.849  47.348  49.169  1.00  0.00    -0.288 OA
HETATM   29  C   UNL     1      24.101  48.448  48.875  1.00  0.00     0.112 A 
HETATM   30  C   UNL     1      22.776  48.118  49.097  1.00  0.00     0.094 A 
HETATM   31  C   UNL     1      24.563  49.680  48.419  1.00  0.00    -0.025 A 
HETATM   32  N   UNL     1      22.681  46.820  49.538  1.00  0.00    -0.221 NA
HETATM   33  C   UNL     1      21.789  49.080  48.844  1.00  0.00     0.041 A 
HETATM   34  C   UNL     1      22.187  50.341  48.355  1.00  0.00    -0.059 A 
HETATM   35  C   UNL     1      23.551  50.626  48.162  1.00  0.00     0.016 A 
HETATM   36  C   UNL     1      21.145  51.384  48.069  1.00  0.00     0.048 C 
HETATM   37  C   UNL     1      26.004  49.997  48.179  1.00  0.00     0.051 C 
ENDBRANCH   4  27
TORSDOF 9
ENDMDL
MODEL 6
REMARK VINA RESULT:      -9.6      1.475      1.976
REMARK  9 active torsions:
REMARK  status: ('A' for Active; 'I' for Inactive)
REMARK    1  A    between atoms: C_2  and  C_3 
REMARK    2  A    between atoms: C_3  and  O_4 
REMARK    3  A    between atoms: O_4  and  C_5 
REMARK    4  A    between atoms: C_7  and  C_8 
REMARK       I    between atoms: C_8  and  N_9 
REMARK    5  A    between atoms: N_9  and  C_10 
REMARK    6  A    between atoms: C_10  and  N_11 
REMARK    7  A    between atoms: N_11  and  C_12 
REMARK    8  A    between atoms: C_14  and  O_15 
REMARK    9  A    between atoms: C_16  and  C_17 
ROOT
HETATM    1  C   UNL     1      24.623  45.777  50.891  1.00  0.00     0.036 A 
HETATM    2  C   UNL     1      24.944  44.459  51.210  1.00  0.00     0.067 A 
HETATM    3  C   UNL     1      25.936  44.171  52.155  1.00  0.00     0.082 A 
HETATM    4  C   UNL     1      26.628  45.197  52.815  1.00  0.00     0.050 A 
HETATM    5  C   UNL     1      26.245  46.521  52.532  1.00  0.00     0.021 A 
HETATM    6  C   UNL     1      25.238  46.809  51.598  1.00  0.00     0.030 A 
ENDROOT
BRANCH   1   7
HETATM    7  N   UNL     1      23.665  46.109  49.910  1.00  0.00    -0.333 N 
HETATM    8  H   UNL     1      23.564  47.102  49.692  1.00  0.00     0.168 HD
BRANCH   7   9
HETATM    9  C   UNL     1      22.998  45.277  49.040  1.00  0.00     0.179 C 
HETATM   10  S   UNL     1      23.544  43.878  48.297  1.00  0.00    -0.040 SA
BRANCH   9  11
HETATM   11  N   UNL     1      21.711  45.653  48.724  1.00  0.00    -0.299 N 
HETATM   12  C   UNL     1      21.252  46.830  48.149  1.00  0.00     0.257 C 
HETATM   13  O   UNL     1      21.949  47.582  47.477  1.00  0.00    -0.267 OA
HETATM   14  H   UNL     1      21.025  44.991  49.059  1.00  0.00     0.171 HD
BRANCH  12  15
HETATM   15  C   UNL     1      19.791  47.071  48.317  1.00  0.00     0.035 A 
HETATM   16  C   UNL     1      19.313  48.314  48.749  1.00  0.00     0.053 A 
HETATM   17  C   UNL     1      17.950  48.516  48.968  1.00  0.00     0.069 A 
HETATM   18  C   UNL     1      17.051  47.484  48.703  1.00  0.00     0.037 A 
HETATM   19  C   UNL     1      17.521  46.252  48.231  1.00  0.00     0.004 A 
HETATM   20  C   UNL     1      18.888  46.043  48.037  1.00  0.00     0.017 A 
BRANCH  17  21
HETATM   21  O   UNL     1      17.632  49.765  49.418  1.00  0.00    -0.351 OA
BRANCH  21  22
HETATM   22  C   UNL     1      18.631  50.458  50.168  1.00  0.00     0.175 C 
BRANCH  22  23
HETATM   23  C   UNL     1      18.694  51.885  49.630  1.00  0.00     0.022 C 
HETATM   24  C   UNL     1      19.786  52.056  48.590  1.00  0.00     0.007 C 
ENDBRANCH  22  23
ENDBRANCH  21  22
ENDBRANCH  17  21
ENDBRANCH  12  15
ENDBRANCH   9  11
ENDBRANCH   7   9
ENDBRANCH   1   7
BRANCH   3  25
HETATM   25  O   UNL     1      26.222  42.855  52.403  1.00  0.00    -0.360 OA
HETATM   26  H   UNL     1      26.964  42.570  51.846  1.00  0.00     0.217 HD
ENDBRANCH   3  25
BRANCH   4  27
HETATM   27  C   UNL     1      27.748  44.970  53.732  1.00  0.00     0.183 A 
HETATM   28  O   UNL     1      27.772  45.704  54.890  1.00  0.00    -0.288 OA
HETATM   29  C   UNL     1      28.841  45.223  55.581  1.00  0.00     0.112 A 
HETATM   30  C   UNL     1      29.432  44.243  54.802  1.00  0.00     0.094 A 
HETATM   31  C   UNL     1      29.270  45.618  56.847  1.00  0.00    -0.025 A 
HETATM   32  N   UNL     1      28.747  44.108  53.618  1.00  0.00    -0.221 NA
HETATM   33  C   UNL     1      30.552  43.567  55.302  1.00  0.00     0.041 A 
HETATM   34  C   UNL     1      31.021  43.900  56.588  1.00  0.00    -0.059 A 
HETATM   35  C   UNL     1      30.391  44.915  57.331  1.00  0.00     0.016 A 
HETATM   36  C   UNL     1      32.216  43.181  57.147  1.00  0.00     0.048 C 
HETATM   37  C   UNL     1      28.600  46.674  57.665  1.00  0.00     0.051 C 
ENDBRANCH   4  27
TORSDOF 9
ENDMDL
MODEL 7
REMARK VINA RESULT:      -9.4      1.617      2.942
REMARK  9 active torsions:
REMARK  status: ('A' for Active; 'I' for Inactive)
REMARK    1  A    between atoms: C_2  and  C_3 
REMARK    2  A    between atoms: C_3  and  O_4 
REMARK    3  A    between atoms: O_4  and  C_5 
REMARK    4  A    between atoms: C_7  and  C_8 
REMARK       I    between atoms: C_8  and  N_9 
REMARK    5  A    between atoms: N_9  and  C_10 
REMARK    6  A    between atoms: C_10  and  N_11 
REMARK    7  A    between atoms: N_11  and  C_12 
REMARK    8  A    between atoms: C_14  and  O_15 
REMARK    9  A    between atoms: C_16  and  C_17 
ROOT
HETATM    1  C   UNL     1      24.357  47.001  50.241  1.00  0.00     0.036 A 
HETATM    2  C   UNL     1      24.516  45.616  50.267  1.00  0.00     0.067 A 
HETATM    3  C   UNL     1      25.386  45.011  51.182  1.00  0.00     0.082 A 
HETATM    4  C   UNL     1      26.114  45.776  52.104  1.00  0.00     0.050 A 
HETATM    5  C   UNL     1      25.891  47.166  52.111  1.00  0.00     0.021 A 
HETATM    6  C   UNL     1      25.006  47.770  51.205  1.00  0.00     0.030 A 
ENDROOT
BRANCH   1   7
HETATM    7  N   UNL     1      23.529  47.652  49.303  1.00  0.00    -0.333 N 
HETATM    8  H   UNL     1      22.608  47.239  49.147  1.00  0.00     0.168 HD
BRANCH   7   9
HETATM    9  C   UNL     1      23.688  48.892  48.727  1.00  0.00     0.179 C 
HETATM   10  S   UNL     1      25.097  49.640  48.214  1.00  0.00    -0.040 SA
BRANCH   9  11
HETATM   11  N   UNL     1      22.533  49.627  48.564  1.00  0.00    -0.299 N 
HETATM   12  C   UNL     1      21.860  50.426  49.477  1.00  0.00     0.257 C 
HETATM   13  O   UNL     1      22.381  50.918  50.472  1.00  0.00    -0.267 OA
HETATM   14  H   UNL     1      22.095  49.457  47.669  1.00  0.00     0.171 HD
BRANCH  12  15
HETATM   15  C   UNL     1      20.454  50.743  49.101  1.00  0.00     0.035 A 
HETATM   16  C   UNL     1      19.445  49.778  49.216  1.00  0.00     0.053 A 
HETATM   17  C   UNL     1      18.142  50.058  48.802  1.00  0.00     0.069 A 
HETATM   18  C   UNL     1      17.833  51.328  48.317  1.00  0.00     0.037 A 
HETATM   19  C   UNL     1      18.830  52.309  48.239  1.00  0.00     0.004 A 
HETATM   20  C   UNL     1      20.139  52.020  48.630  1.00  0.00     0.017 A 
BRANCH  17  21
HETATM   21  O   UNL     1      17.271  49.016  48.942  1.00  0.00    -0.351 OA
BRANCH  21  22
HETATM   22  C   UNL     1      17.837  47.729  49.197  1.00  0.00     0.175 C 
BRANCH  22  23
HETATM   23  C   UNL     1      17.014  46.709  48.415  1.00  0.00     0.022 C 
HETATM   24  C   UNL     1      16.968  47.027  46.932  1.00  0.00     0.007 C 
ENDBRANCH  22  23
ENDBRANCH  21  22
ENDBRANCH  17  21
ENDBRANCH  12  15
ENDBRANCH   9  11
ENDBRANCH   7   9
ENDBRANCH   1   7
BRANCH   3  25
HETATM   25  O   UNL     1      25.516  43.648  51.137  1.00  0.00    -0.360 OA
HETATM   26  H   UNL     1      24.743  43.260  50.698  1.00  0.00     0.217 HD
ENDBRANCH   3  25
BRANCH   4  27
HETATM   27  C   UNL     1      27.119  45.222  53.015  1.00  0.00     0.183 A 
HETATM   28  O   UNL     1      27.697  44.029  52.663  1.00  0.00    -0.288 OA
HETATM   29  C   UNL     1      28.645  43.811  53.615  1.00  0.00     0.112 A 
HETATM   30  C   UNL     1      28.580  44.861  54.513  1.00  0.00     0.094 A 
HETATM   31  C   UNL     1      29.537  42.742  53.683  1.00  0.00    -0.025 A 
HETATM   32  N   UNL     1      27.590  45.739  54.140  1.00  0.00    -0.221 NA
HETATM   33  C   UNL     1      29.478  44.888  55.588  1.00  0.00     0.041 A 
HETATM   34  C   UNL     1      30.424  43.850  55.701  1.00  0.00    -0.059 A 
HETATM   35  C   UNL     1      30.435  42.798  54.767  1.00  0.00     0.016 A 
HETATM   36  C   UNL     1      31.402  43.863  56.841  1.00  0.00     0.048 C 
HETATM   37  C   UNL     1      29.585  41.629  52.688  1.00  0.00     0.051 C 
ENDBRANCH   4  27
TORSDOF 9
ENDMDL
MODEL 8
REMARK VINA RESULT:      -9.3      1.880      3.185
REMARK  9 active torsions:
REMARK  status: ('A' for Active; 'I' for Inactive)
REMARK    1  A    between atoms: C_2  and  C_3 
REMARK    2  A    between atoms: C_3  and  O_4 
REMARK    3  A    between atoms: O_4  and  C_5 
REMARK    4  A    between atoms: C_7  and  C_8 
REMARK       I    between atoms: C_8  and  N_9 
REMARK    5  A    between atoms: N_9  and  C_10 
REMARK    6  A    between atoms: C_10  and  N_11 
REMARK    7  A    between atoms: N_11  and  C_12 
REMARK    8  A    between atoms: C_14  and  O_15 
REMARK    9  A    between atoms: C_16  and  C_17 
ROOT
HETATM    1  C   UNL     1      24.116  44.671  50.860  1.00  0.00     0.036 A 
HETATM    2  C   UNL     1      24.701  45.863  51.285  1.00  0.00     0.067 A 
HETATM    3  C   UNL     1      25.852  45.853  52.082  1.00  0.00     0.082 A 
HETATM    4  C   UNL     1      26.455  44.647  52.469  1.00  0.00     0.050 A 
HETATM    5  C   UNL     1      25.892  43.455  51.976  1.00  0.00     0.021 A 
HETATM    6  C   UNL     1      24.749  43.466  51.162  1.00  0.00     0.030 A 
ENDROOT
BRANCH   1   7
HETATM    7  N   UNL     1      22.930  44.637  50.097  1.00  0.00    -0.333 N 
HETATM    8  H   UNL     1      22.078  44.373  50.593  1.00  0.00     0.168 HD
BRANCH   7   9
HETATM    9  C   UNL     1      22.708  45.122  48.828  1.00  0.00     0.179 C 
HETATM   10  S   UNL     1      23.141  44.451  47.355  1.00  0.00    -0.040 SA
BRANCH   9  11
HETATM   11  N   UNL     1      22.054  46.333  48.758  1.00  0.00    -0.299 N 
HETATM   12  C   UNL     1      22.567  47.619  48.839  1.00  0.00     0.257 C 
HETATM   13  O   UNL     1      23.737  47.905  48.607  1.00  0.00    -0.267 OA
HETATM   14  H   UNL     1      21.048  46.224  48.740  1.00  0.00     0.171 HD
BRANCH  12  15
HETATM   15  C   UNL     1      21.554  48.672  49.129  1.00  0.00     0.035 A 
HETATM   16  C   UNL     1      20.187  48.370  49.139  1.00  0.00     0.053 A 
HETATM   17  C   UNL     1      19.237  49.371  49.346  1.00  0.00     0.069 A 
HETATM   18  C   UNL     1      19.659  50.676  49.595  1.00  0.00     0.037 A 
HETATM   19  C   UNL     1      21.027  50.976  49.627  1.00  0.00     0.004 A 
HETATM   20  C   UNL     1      21.975  49.977  49.394  1.00  0.00     0.017 A 
BRANCH  17  21
HETATM   21  O   UNL     1      17.944  48.938  49.299  1.00  0.00    -0.351 OA
BRANCH  21  22
HETATM   22  C   UNL     1      17.116  49.479  48.267  1.00  0.00     0.175 C 
BRANCH  22  23
HETATM   23  C   UNL     1      15.911  48.555  48.122  1.00  0.00     0.022 C 
HETATM   24  C   UNL     1      14.985  48.994  47.003  1.00  0.00     0.007 C 
ENDBRANCH  22  23
ENDBRANCH  21  22
ENDBRANCH  17  21
ENDBRANCH  12  15
ENDBRANCH   9  11
ENDBRANCH   7   9
ENDBRANCH   1   7
BRANCH   3  25
HETATM   25  O   UNL     1      26.361  47.058  52.487  1.00  0.00    -0.360 OA
HETATM   26  H   UNL     1      26.830  47.480  51.750  1.00  0.00     0.217 HD
ENDBRANCH   3  25
BRANCH   4  27
HETATM   27  C   UNL     1      27.593  44.560  53.388  1.00  0.00     0.183 A 
HETATM   28  O   UNL     1      27.606  45.418  54.457  1.00  0.00    -0.288 OA
HETATM   29  C   UNL     1      28.698  45.051  55.181  1.00  0.00     0.112 A 
HETATM   30  C   UNL     1      29.312  44.010  54.506  1.00  0.00     0.094 A 
HETATM   31  C   UNL     1      29.128  45.597  56.388  1.00  0.00    -0.025 A 
HETATM   32  N   UNL     1      28.619  43.722  53.355  1.00  0.00    -0.221 NA
HETATM   33  C   UNL     1      30.460  43.429  55.061  1.00  0.00     0.041 A 
HETATM   34  C   UNL     1      30.933  43.918  56.295  1.00  0.00    -0.059 A 
HETATM   35  C   UNL     1      30.278  44.989  56.930  1.00  0.00     0.016 A 
HETATM   36  C   UNL     1      32.157  43.304  56.911  1.00  0.00     0.048 C 
HETATM   37  C   UNL     1      28.433  46.715  57.095  1.00  0.00     0.051 C 
ENDBRANCH   4  27
TORSDOF 9
ENDMDL
MODEL 9
REMARK VINA RESULT:      -9.3      1.867      2.551
REMARK  9 active torsions:
REMARK  status: ('A' for Active; 'I' for Inactive)
REMARK    1  A    between atoms: C_2  and  C_3 
REMARK    2  A    between atoms: C_3  and  O_4 
REMARK    3  A    between atoms: O_4  and  C_5 
REMARK    4  A    between atoms: C_7  and  C_8 
REMARK       I    between atoms: C_8  and  N_9 
REMARK    5  A    between atoms: N_9  and  C_10 
REMARK    6  A    between atoms: C_10  and  N_11 
REMARK    7  A    between atoms: N_11  and  C_12 
REMARK    8  A    between atoms: C_14  and  O_15 
REMARK    9  A    between atoms: C_16  and  C_17 
ROOT
HETATM    1  C   UNL     1      23.493  44.020  50.076  1.00  0.00     0.036 A 
HETATM    2  C   UNL     1      24.134  45.238  50.297  1.00  0.00     0.067 A 
HETATM    3  C   UNL     1      25.292  45.308  51.080  1.00  0.00     0.082 A 
HETATM    4  C   UNL     1      25.848  44.156  51.655  1.00  0.00     0.050 A 
HETATM    5  C   UNL     1      25.229  42.925  51.367  1.00  0.00     0.021 A 
HETATM    6  C   UNL     1      24.078  42.854  50.568  1.00  0.00     0.030 A 
ENDROOT
BRANCH   1   7
HETATM    7  N   UNL     1      22.298  43.914  49.334  1.00  0.00    -0.333 N 
HETATM    8  H   UNL     1      21.604  43.250  49.683  1.00  0.00     0.168 HD
BRANCH   7   9
HETATM    9  C   UNL     1      21.830  44.733  48.331  1.00  0.00     0.179 C 
HETATM   10  S   UNL     1      22.467  44.992  46.803  1.00  0.00    -0.040 SA
BRANCH   9  11
HETATM   11  N   UNL     1      20.692  45.450  48.630  1.00  0.00    -0.299 N 
HETATM   12  C   UNL     1      19.392  45.267  48.182  1.00  0.00     0.257 C 
HETATM   13  O   UNL     1      18.961  44.207  47.741  1.00  0.00    -0.267 OA
HETATM   14  H   UNL     1      20.893  46.273  49.181  1.00  0.00     0.171 HD
BRANCH  12  15
HETATM   15  C   UNL     1      18.500  46.444  48.378  1.00  0.00     0.035 A 
HETATM   16  C   UNL     1      18.890  47.513  49.195  1.00  0.00     0.053 A 
HETATM   17  C   UNL     1      18.026  48.584  49.428  1.00  0.00     0.069 A 
HETATM   18  C   UNL     1      16.782  48.612  48.800  1.00  0.00     0.037 A 
HETATM   19  C   UNL     1      16.404  47.565  47.949  1.00  0.00     0.004 A 
HETATM   20  C   UNL     1      17.260  46.482  47.737  1.00  0.00     0.017 A 
BRANCH  17  21
HETATM   21  O   UNL     1      18.525  49.537  50.268  1.00  0.00    -0.351 OA
BRANCH  21  22
HETATM   22  C   UNL     1      18.170  50.893  49.993  1.00  0.00     0.175 C 
BRANCH  22  23
HETATM   23  C   UNL     1      19.451  51.628  49.610  1.00  0.00     0.022 C 
HETATM   24  C   UNL     1      19.298  52.409  48.317  1.00  0.00     0.007 C 
ENDBRANCH  22  23
ENDBRANCH  21  22
ENDBRANCH  17  21
ENDBRANCH  12  15
ENDBRANCH   9  11
ENDBRANCH   7   9
ENDBRANCH   1   7
BRANCH   3  25
HETATM   25  O   UNL     1      25.857  46.539  51.280  1.00  0.00    -0.360 OA
HETATM   26  H   UNL     1      26.069  46.653  52.220  1.00  0.00     0.217 HD
ENDBRANCH   3  25
BRANCH   4  27
HETATM   27  C   UNL     1      26.992  44.170  52.571  1.00  0.00     0.183 A 
HETATM   28  O   UNL     1      27.105  45.239  53.420  1.00  0.00    -0.288 OA
HETATM   29  C   UNL     1      28.175  44.942  54.208  1.00  0.00     0.112 A 
HETATM   30  C   UNL     1      28.677  43.725  53.784  1.00  0.00     0.094 A 
HETATM   31  C   UNL     1      28.677  45.702  55.263  1.00  0.00    -0.025 A 
HETATM   32  N   UNL     1      27.937  43.254  52.726  1.00  0.00    -0.221 NA
HETATM   33  C   UNL     1      29.779  43.178  54.454  1.00  0.00     0.041 A 
HETATM   34  C   UNL     1      30.320  43.883  55.548  1.00  0.00    -0.059 A 
HETATM   35  C   UNL     1      29.778  45.125  55.927  1.00  0.00     0.016 A 
HETATM   36  C   UNL     1      31.496  43.310  56.286  1.00  0.00     0.048 C 
HETATM   37  C   UNL     1      28.102  47.009  55.702  1.00  0.00     0.051 C 
ENDBRANCH   4  27
TORSDOF 9
ENDMDL
MODEL 10
REMARK VINA RESULT:      -9.1      2.071     11.500
REMARK  9 active torsions:
REMARK  status: ('A' for Active; 'I' for Inactive)
REMARK    1  A    between atoms: C_2  and  C_3 
REMARK    2  A    between atoms: C_3  and  O_4 
REMARK    3  A    between atoms: O_4  and  C_5 
REMARK    4  A    between atoms: C_7  and  C_8 
REMARK       I    between atoms: C_8  and  N_9 
REMARK    5  A    between atoms: N_9  and  C_10 
REMARK    6  A    between atoms: C_10  and  N_11 
REMARK    7  A    between atoms: N_11  and  C_12 
REMARK    8  A    between atoms: C_14  and  O_15 
REMARK    9  A    between atoms: C_16  and  C_17 
ROOT
HETATM    1  C   UNL     1      23.419  47.575  49.183  1.00  0.00     0.036 A 
HETATM    2  C   UNL     1      22.213  47.014  48.767  1.00  0.00     0.067 A 
HETATM    3  C   UNL     1      21.051  47.791  48.685  1.00  0.00     0.082 A 
HETATM    4  C   UNL     1      21.067  49.155  49.009  1.00  0.00     0.050 A 
HETATM    5  C   UNL     1      22.306  49.722  49.361  1.00  0.00     0.021 A 
HETATM    6  C   UNL     1      23.474  48.947  49.426  1.00  0.00     0.030 A 
ENDROOT
BRANCH   1   7
HETATM    7  N   UNL     1      24.600  46.817  49.325  1.00  0.00    -0.333 N 
HETATM    8  H   UNL     1      24.643  45.941  48.802  1.00  0.00     0.168 HD
BRANCH   7   9
HETATM    9  C   UNL     1      25.799  47.187  49.891  1.00  0.00     0.179 C 
HETATM   10  S   UNL     1      26.882  48.362  49.385  1.00  0.00    -0.040 SA
BRANCH   9  11
HETATM   11  N   UNL     1      26.169  46.485  51.017  1.00  0.00    -0.299 N 
HETATM   12  C   UNL     1      26.043  46.833  52.354  1.00  0.00     0.257 C 
HETATM   13  O   UNL     1      25.238  47.656  52.775  1.00  0.00    -0.267 OA
HETATM   14  H   UNL     1      26.687  45.646  50.792  1.00  0.00     0.171 HD
BRANCH  12  15
HETATM   15  C   UNL     1      26.898  46.041  53.282  1.00  0.00     0.035 A 
HETATM   16  C   UNL     1      27.472  46.635  54.414  1.00  0.00     0.053 A 
HETATM   17  C   UNL     1      28.325  45.908  55.244  1.00  0.00     0.069 A 
HETATM   18  C   UNL     1      28.566  44.562  54.973  1.00  0.00     0.037 A 
HETATM   19  C   UNL     1      27.961  43.952  53.866  1.00  0.00     0.004 A 
HETATM   20  C   UNL     1      27.128  44.688  53.021  1.00  0.00     0.017 A 
BRANCH  17  21
HETATM   21  O   UNL     1      28.836  46.622  56.289  1.00  0.00    -0.351 OA
BRANCH  21  22
HETATM   22  C   UNL     1      28.843  45.985  57.568  1.00  0.00     0.175 C 
BRANCH  22  23
HETATM   23  C   UNL     1      30.280  46.016  58.082  1.00  0.00     0.022 C 
HETATM   24  C   UNL     1      30.966  44.670  57.944  1.00  0.00     0.007 C 
ENDBRANCH  22  23
ENDBRANCH  21  22
ENDBRANCH  17  21
ENDBRANCH  12  15
ENDBRANCH   9  11
ENDBRANCH   7   9
ENDBRANCH   1   7
BRANCH   3  25
HETATM   25  O   UNL     1      19.893  47.172  48.295  1.00  0.00    -0.360 OA
HETATM   26  H   UNL     1      19.262  47.164  49.032  1.00  0.00     0.217 HD
ENDBRANCH   3  25
BRANCH   4  27
HETATM   27  C   UNL     1      19.871  50.001  49.050  1.00  0.00     0.183 A 
HETATM   28  O   UNL     1      18.724  49.494  48.497  1.00  0.00    -0.288 OA
HETATM   29  C   UNL     1      17.770  50.429  48.765  1.00  0.00     0.112 A 
HETATM   30  C   UNL     1      18.386  51.468  49.439  1.00  0.00     0.094 A 
HETATM   31  C   UNL     1      16.416  50.363  48.442  1.00  0.00    -0.025 A 
HETATM   32  N   UNL     1      19.726  51.201  49.592  1.00  0.00    -0.221 NA
HETATM   33  C   UNL     1      17.611  52.558  49.854  1.00  0.00     0.041 A 
HETATM   34  C   UNL     1      16.228  52.542  49.583  1.00  0.00    -0.059 A 
HETATM   35  C   UNL     1      15.656  51.466  48.880  1.00  0.00     0.016 A 
HETATM   36  C   UNL     1      15.376  53.698  50.026  1.00  0.00     0.048 C 
HETATM   37  C   UNL     1      15.782  49.218  47.722  1.00  0.00     0.051 C 
ENDBRANCH   4  27
TORSDOF 9
ENDMDL
