MODEL 1
REMARK VINA RESULT:      -9.8      0.000      0.000
REMARK  5 active torsions:
REMARK  status: ('A' for Active; 'I' for Inactive)
REMARK    1  A    between atoms: C_2  and  C_3 
REMARK    2  A    between atoms: C_8  and  N_9 
REMARK       I    between atoms: N_9  and  C_10 
REMARK       I    between atoms: C_10  and  N_11 
REMARK    3  A    between atoms: N_11  and  C_12 
REMARK    4  A    between atoms: C_12  and  C_13 
REMARK    5  A    between atoms: C_13  and  C_14 
ROOT
HETATM    1  N   UNL     1      24.769  48.030  50.234  1.00  0.00    -0.305 N 
HETATM    2  C   UNL     1      25.573  46.947  50.492  1.00  0.00     0.320 C 
HETATM    3  N   UNL     1      25.240  46.355  51.694  1.00  0.00    -0.343 N 
HETATM    4  O   UNL     1      26.455  46.500  49.773  1.00  0.00    -0.247 OA
HETATM    5  H   UNL     1      23.997  48.166  50.865  1.00  0.00     0.171 HD
HETATM    6  H   UNL     1      24.823  46.934  52.408  1.00  0.00     0.164 HD
ENDROOT
BRANCH   3   7
HETATM    7  C   UNL     1      25.955  45.177  52.162  1.00  0.00     0.129 C 
BRANCH   7   8
HETATM    8  C   UNL     1      26.824  45.454  53.394  1.00  0.00     0.059 C 
BRANCH   8   9
HETATM    9  C   UNL     1      27.988  44.484  53.512  1.00  0.00    -0.045 A 
HETATM   10  C   UNL     1      28.921  44.537  54.587  1.00  0.00    -0.020 A 
HETATM   11  C   UNL     1      29.994  43.609  54.604  1.00  0.00    -0.025 A 
HETATM   12  C   UNL     1      28.845  45.462  55.656  1.00  0.00     0.013 A 
HETATM   13  C   UNL     1      30.931  43.633  55.651  1.00  0.00     0.012 A 
HETATM   14  C   UNL     1      30.117  42.663  53.577  1.00  0.00     0.012 A 
HETATM   15  C   UNL     1      30.829  44.560  56.686  1.00  0.00     0.001 A 
HETATM   16  C   UNL     1      29.786  45.474  56.689  1.00  0.00     0.001 A 
HETATM   17  C   UNL     1      29.198  42.617  52.532  1.00  0.00     0.001 A 
HETATM   18  C   UNL     1      28.142  43.521  52.498  1.00  0.00     0.008 A 
ENDBRANCH   8   9
ENDBRANCH   7   8
ENDBRANCH   3   7
BRANCH   1  19
HETATM   19  C   UNL     1      24.800  48.844  49.109  1.00  0.00     0.095 A 
HETATM   20  C   UNL     1      23.673  49.117  48.354  1.00  0.00     0.107 A 
HETATM   21  O   UNL     1      24.004  49.923  47.314  1.00  0.00    -0.215 OA
HETATM   22  N   UNL     1      25.346  50.213  47.363  1.00  0.00    -0.131 NA
HETATM   23  C   UNL     1      25.829  49.572  48.438  1.00  0.00     0.087 A 
HETATM   24  C   UNL     1      27.273  49.726  48.737  1.00  0.00     0.075 C 
BRANCH  20  25
HETATM   25  C   UNL     1      22.243  48.732  48.422  1.00  0.00     0.065 C 
HETATM   26  C   UNL     1      21.383  49.865  48.956  1.00  0.00     0.012 C 
ENDBRANCH  20  25
ENDBRANCH   1  19
TORSDOF 5
ENDMDL
MODEL 2
REMARK VINA RESULT:      -9.8      0.933      2.178
REMARK  5 active torsions:
REMARK  status: ('A' for Active; 'I' for Inactive)
REMARK    1  A    between atoms: C_2  and  C_3 
REMARK    2  A    between atoms: C_8  and  N_9 
REMARK       I    between atoms: N_9  and  C_10 
REMARK       I    between atoms: C_10  and  N_11 
REMARK    3  A    between atoms: N_11  and  C_12 
REMARK    4  A    between atoms: C_12  and  C_13 
REMARK    5  A    between atoms: C_13  and  C_14 
ROOT
HETATM    1  N   UNL     1      24.762  47.963  50.026  1.00  0.00    -0.305 N 
HETATM    2  C   UNL     1      25.393  46.758  50.214  1.00  0.00     0.320 C 
HETATM    3  N   UNL     1      24.892  46.099  51.319  1.00  0.00    -0.343 N 
HETATM    4  O   UNL     1      26.262  46.268  49.507  1.00  0.00    -0.247 OA
HETATM    5  H   UNL     1      23.967  48.140  50.618  1.00  0.00     0.171 HD
HETATM    6  H   UNL     1      24.500  46.656  52.064  1.00  0.00     0.164 HD
ENDROOT
BRANCH   3   7
HETATM    7  C   UNL     1      25.407  44.792  51.697  1.00  0.00     0.129 C 
BRANCH   7   8
HETATM    8  C   UNL     1      25.346  44.539  53.208  1.00  0.00     0.059 C 
BRANCH   8   9
HETATM    9  C   UNL     1      26.500  45.191  53.951  1.00  0.00    -0.045 A 
HETATM   10  C   UNL     1      27.701  44.490  54.265  1.00  0.00    -0.020 A 
HETATM   11  C   UNL     1      28.717  45.169  54.985  1.00  0.00    -0.025 A 
HETATM   12  C   UNL     1      27.952  43.146  53.896  1.00  0.00     0.013 A 
HETATM   13  C   UNL     1      29.914  44.507  55.309  1.00  0.00     0.012 A 
HETATM   14  C   UNL     1      28.529  46.503  55.371  1.00  0.00     0.012 A 
HETATM   15  C   UNL     1      30.127  43.183  54.933  1.00  0.00     0.001 A 
HETATM   16  C   UNL     1      29.147  42.502  54.226  1.00  0.00     0.001 A 
HETATM   17  C   UNL     1      27.353  47.180  55.057  1.00  0.00     0.001 A 
HETATM   18  C   UNL     1      26.346  46.530  54.354  1.00  0.00     0.008 A 
ENDBRANCH   8   9
ENDBRANCH   7   8
ENDBRANCH   3   7
BRANCH   1  19
HETATM   19  C   UNL     1      24.988  48.875  49.003  1.00  0.00     0.095 A 
HETATM   20  C   UNL     1      23.972  49.362  48.201  1.00  0.00     0.107 A 
HETATM   21  O   UNL     1      24.486  50.220  47.283  1.00  0.00    -0.215 OA
HETATM   22  N   UNL     1      25.843  50.330  47.463  1.00  0.00    -0.131 NA
HETATM   23  C   UNL     1      26.151  49.528  48.494  1.00  0.00     0.087 A 
HETATM   24  C   UNL     1      27.570  49.466  48.915  1.00  0.00     0.075 C 
BRANCH  20  25
HETATM   25  C   UNL     1      22.505  49.158  48.120  1.00  0.00     0.065 C 
HETATM   26  C   UNL     1      21.742  50.369  48.631  1.00  0.00     0.012 C 
ENDBRANCH  20  25
ENDBRANCH   1  19
TORSDOF 5
ENDMDL
MODEL 3
REMARK VINA RESULT:      -9.4      1.312      2.185
REMARK  5 active torsions:
REMARK  status: ('A' for Active; 'I' for Inactive)
REMARK    1  A    between atoms: C_2  and  C_3 
REMARK    2  A    between atoms: C_8  and  N_9 
REMARK       I    between atoms: N_9  and  C_10 
REMARK       I    between atoms: C_10  and  N_11 
REMARK    3  A    between atoms: N_11  and  C_12 
REMARK    4  A    between atoms: C_12  and  C_13 
REMARK    5  A    between atoms: C_13  and  C_14 
ROOT
HETATM    1  N   UNL     1      24.662  47.722  49.953  1.00  0.00    -0.305 N 
HETATM    2  C   UNL     1      25.214  46.466  50.017  1.00  0.00     0.320 C 
HETATM    3  N   UNL     1      24.688  45.744  51.071  1.00  0.00    -0.343 N 
HETATM    4  O   UNL     1      26.035  45.985  49.250  1.00  0.00    -0.247 OA
HETATM    5  H   UNL     1      23.891  47.897  50.577  1.00  0.00     0.171 HD
HETATM    6  H   UNL     1      24.348  46.256  51.872  1.00  0.00     0.164 HD
ENDROOT
BRANCH   3   7
HETATM    7  C   UNL     1      25.120  44.377  51.319  1.00  0.00     0.129 C 
BRANCH   7   8
HETATM    8  C   UNL     1      25.084  43.997  52.804  1.00  0.00     0.059 C 
BRANCH   8   9
HETATM    9  C   UNL     1      26.420  44.222  53.491  1.00  0.00    -0.045 A 
HETATM   10  C   UNL     1      26.778  45.470  54.078  1.00  0.00    -0.020 A 
HETATM   11  C   UNL     1      28.058  45.599  54.676  1.00  0.00    -0.025 A 
HETATM   12  C   UNL     1      25.930  46.603  54.107  1.00  0.00     0.013 A 
HETATM   13  C   UNL     1      28.442  46.817  55.264  1.00  0.00     0.012 A 
HETATM   14  C   UNL     1      28.940  44.509  54.684  1.00  0.00     0.012 A 
HETATM   15  C   UNL     1      27.583  47.913  55.274  1.00  0.00     0.001 A 
HETATM   16  C   UNL     1      26.327  47.807  54.696  1.00  0.00     0.001 A 
HETATM   17  C   UNL     1      28.579  43.292  54.111  1.00  0.00     0.001 A 
HETATM   18  C   UNL     1      27.330  43.149  53.518  1.00  0.00     0.008 A 
ENDBRANCH   8   9
ENDBRANCH   7   8
ENDBRANCH   3   7
BRANCH   1  19
HETATM   19  C   UNL     1      24.931  48.705  49.010  1.00  0.00     0.095 A 
HETATM   20  C   UNL     1      23.944  49.283  48.232  1.00  0.00     0.107 A 
HETATM   21  O   UNL     1      24.498  50.196  47.395  1.00  0.00    -0.215 OA
HETATM   22  N   UNL     1      25.854  50.255  47.607  1.00  0.00    -0.131 NA
HETATM   23  C   UNL     1      26.121  49.365  48.576  1.00  0.00     0.087 A 
HETATM   24  C   UNL     1      27.530  49.231  49.016  1.00  0.00     0.075 C 
BRANCH  20  25
HETATM   25  C   UNL     1      22.475  49.126  48.109  1.00  0.00     0.065 C 
HETATM   26  C   UNL     1      21.794  50.450  47.808  1.00  0.00     0.012 C 
ENDBRANCH  20  25
ENDBRANCH   1  19
TORSDOF 5
ENDMDL
MODEL 4
REMARK VINA RESULT:      -9.1      1.181      2.382
REMARK  5 active torsions:
REMARK  status: ('A' for Active; 'I' for Inactive)
REMARK    1  A    between atoms: C_2  and  C_3 
REMARK    2  A    between atoms: C_8  and  N_9 
REMARK       I    between atoms: N_9  and  C_10 
REMARK       I    between atoms: C_10  and  N_11 
REMARK    3  A    between atoms: N_11  and  C_12 
REMARK    4  A    between atoms: C_12  and  C_13 
REMARK    5  A    between atoms: C_13  and  C_14 
ROOT
HETATM    1  N   UNL     1      24.689  46.777  50.288  1.00  0.00    -0.305 N 
HETATM    2  C   UNL     1      24.988  46.717  51.627  1.00  0.00     0.320 C 
HETATM    3  N   UNL     1      25.027  45.410  52.071  1.00  0.00    -0.343 N 
HETATM    4  O   UNL     1      25.233  47.659  52.367  1.00  0.00    -0.247 OA
HETATM    5  H   UNL     1      24.664  45.895  49.803  1.00  0.00     0.171 HD
HETATM    6  H   UNL     1      24.464  44.728  51.585  1.00  0.00     0.164 HD
ENDROOT
BRANCH   3   7
HETATM    7  C   UNL     1      25.342  45.110  53.460  1.00  0.00     0.129 C 
BRANCH   7   8
HETATM    8  C   UNL     1      26.760  45.534  53.858  1.00  0.00     0.059 C 
BRANCH   8   9
HETATM    9  C   UNL     1      27.710  44.353  53.960  1.00  0.00    -0.045 A 
HETATM   10  C   UNL     1      28.863  44.370  54.798  1.00  0.00    -0.020 A 
HETATM   11  C   UNL     1      29.711  43.232  54.813  1.00  0.00    -0.025 A 
HETATM   12  C   UNL     1      29.221  45.457  55.630  1.00  0.00     0.013 A 
HETATM   13  C   UNL     1      30.855  43.215  55.629  1.00  0.00     0.012 A 
HETATM   14  C   UNL     1      29.404  42.121  54.014  1.00  0.00     0.012 A 
HETATM   15  C   UNL     1      31.179  44.305  56.434  1.00  0.00     0.001 A 
HETATM   16  C   UNL     1      30.362  45.426  56.436  1.00  0.00     0.001 A 
HETATM   17  C   UNL     1      28.274  42.113  53.201  1.00  0.00     0.001 A 
HETATM   18  C   UNL     1      27.434  43.220  53.173  1.00  0.00     0.008 A 
ENDBRANCH   8   9
ENDBRANCH   7   8
ENDBRANCH   3   7
BRANCH   1  19
HETATM   19  C   UNL     1      24.594  47.919  49.503  1.00  0.00     0.095 A 
HETATM   20  C   UNL     1      25.704  48.608  49.052  1.00  0.00     0.107 A 
HETATM   21  O   UNL     1      25.310  49.684  48.324  1.00  0.00    -0.215 OA
HETATM   22  N   UNL     1      23.938  49.724  48.265  1.00  0.00    -0.131 NA
HETATM   23  C   UNL     1      23.502  48.668  48.968  1.00  0.00     0.087 A 
HETATM   24  C   UNL     1      22.037  48.461  49.058  1.00  0.00     0.075 C 
BRANCH  20  25
HETATM   25  C   UNL     1      27.172  48.444  49.188  1.00  0.00     0.065 C 
HETATM   26  C   UNL     1      27.898  49.772  49.055  1.00  0.00     0.012 C 
ENDBRANCH  20  25
ENDBRANCH   1  19
TORSDOF 5
ENDMDL
MODEL 5
REMARK VINA RESULT:      -9.1      5.734      7.645
REMARK  5 active torsions:
REMARK  status: ('A' for Active; 'I' for Inactive)
REMARK    1  A    between atoms: C_2  and  C_3 
REMARK    2  A    between atoms: C_8  and  N_9 
REMARK       I    between atoms: N_9  and  C_10 
REMARK       I    between atoms: C_10  and  N_11 
REMARK    3  A    between atoms: N_11  and  C_12 
REMARK    4  A    between atoms: C_12  and  C_13 
REMARK    5  A    between atoms: C_13  and  C_14 
ROOT
HETATM    1  N   UNL     1      27.783  39.747  50.877  1.00  0.00    -0.305 N 
HETATM    2  C   UNL     1      27.705  41.015  51.399  1.00  0.00     0.320 C 
HETATM    3  N   UNL     1      27.766  40.990  52.779  1.00  0.00    -0.343 N 
HETATM    4  O   UNL     1      27.629  42.062  50.774  1.00  0.00    -0.247 OA
HETATM    5  H   UNL     1      27.992  39.012  51.533  1.00  0.00     0.171 HD
HETATM    6  H   UNL     1      27.438  40.161  53.252  1.00  0.00     0.164 HD
ENDROOT
BRANCH   3   7
HETATM    7  C   UNL     1      27.716  42.227  53.543  1.00  0.00     0.129 C 
BRANCH   7   8
HETATM    8  C   UNL     1      29.067  42.948  53.605  1.00  0.00     0.059 C 
BRANCH   8   9
HETATM    9  C   UNL     1      29.049  44.131  54.558  1.00  0.00    -0.045 A 
HETATM   10  C   UNL     1      29.909  44.213  55.692  1.00  0.00    -0.020 A 
HETATM   11  C   UNL     1      29.807  45.343  56.544  1.00  0.00    -0.025 A 
HETATM   12  C   UNL     1      30.873  43.232  56.026  1.00  0.00     0.013 A 
HETATM   13  C   UNL     1      30.640  45.455  57.670  1.00  0.00     0.012 A 
HETATM   14  C   UNL     1      28.874  46.351  56.260  1.00  0.00     0.012 A 
HETATM   15  C   UNL     1      31.577  44.469  57.971  1.00  0.00     0.001 A 
HETATM   16  C   UNL     1      31.694  43.358  57.150  1.00  0.00     0.001 A 
HETATM   17  C   UNL     1      28.041  46.263  55.148  1.00  0.00     0.001 A 
HETATM   18  C   UNL     1      28.127  45.162  54.304  1.00  0.00     0.008 A 
ENDBRANCH   8   9
ENDBRANCH   7   8
ENDBRANCH   3   7
BRANCH   1  19
HETATM   19  C   UNL     1      27.781  39.395  49.534  1.00  0.00     0.095 A 
HETATM   20  C   UNL     1      28.813  38.684  48.948  1.00  0.00     0.107 A 
HETATM   21  O   UNL     1      28.549  38.498  47.629  1.00  0.00    -0.215 OA
HETATM   22  N   UNL     1      27.337  39.065  47.317  1.00  0.00    -0.131 NA
HETATM   23  C   UNL     1      26.870  39.603  48.454  1.00  0.00     0.087 A 
HETATM   24  C   UNL     1      25.552  40.279  48.403  1.00  0.00     0.075 C 
BRANCH  20  25
HETATM   25  C   UNL     1      30.096  38.110  49.419  1.00  0.00     0.065 C 
HETATM   26  C   UNL     1      29.955  37.477  50.793  1.00  0.00     0.012 C 
ENDBRANCH  20  25
ENDBRANCH   1  19
TORSDOF 5
ENDMDL
MODEL 6
REMARK VINA RESULT:      -9.0      1.526      2.081
REMARK  5 active torsions:
REMARK  status: ('A' for Active; 'I' for Inactive)
REMARK    1  A    between atoms: C_2  and  C_3 
REMARK    2  A    between atoms: C_8  and  N_9 
REMARK       I    between atoms: N_9  and  C_10 
REMARK       I    between atoms: C_10  and  N_11 
REMARK    3  A    between atoms: N_11  and  C_12 
REMARK    4  A    between atoms: C_12  and  C_13 
REMARK    5  A    between atoms: C_13  and  C_14 
ROOT
HETATM    1  N   UNL     1      23.925  47.517  50.405  1.00  0.00    -0.305 N 
HETATM    2  C   UNL     1      25.142  46.935  50.662  1.00  0.00     0.320 C 
HETATM    3  N   UNL     1      25.478  47.051  51.996  1.00  0.00    -0.343 N 
HETATM    4  O   UNL     1      25.857  46.347  49.863  1.00  0.00    -0.247 OA
HETATM    5  H   UNL     1      23.405  47.824  51.210  1.00  0.00     0.171 HD
HETATM    6  H   UNL     1      25.103  47.834  52.512  1.00  0.00     0.164 HD
ENDROOT
BRANCH   3   7
HETATM    7  C   UNL     1      26.725  46.491  52.496  1.00  0.00     0.129 C 
BRANCH   7   8
HETATM    8  C   UNL     1      26.517  45.226  53.337  1.00  0.00     0.059 C 
BRANCH   8   9
HETATM    9  C   UNL     1      27.796  44.422  53.497  1.00  0.00    -0.045 A 
HETATM   10  C   UNL     1      28.692  44.619  54.588  1.00  0.00    -0.020 A 
HETATM   11  C   UNL     1      29.877  43.841  54.645  1.00  0.00    -0.025 A 
HETATM   12  C   UNL     1      28.473  45.548  55.633  1.00  0.00     0.013 A 
HETATM   13  C   UNL     1      30.781  44.010  55.707  1.00  0.00     0.012 A 
HETATM   14  C   UNL     1      30.145  42.900  53.641  1.00  0.00     0.012 A 
HETATM   15  C   UNL     1      30.536  44.936  56.719  1.00  0.00     0.001 A 
HETATM   16  C   UNL     1      29.383  45.704  56.683  1.00  0.00     0.001 A 
HETATM   17  C   UNL     1      29.261  42.712  52.581  1.00  0.00     0.001 A 
HETATM   18  C   UNL     1      28.097  43.467  52.509  1.00  0.00     0.008 A 
ENDBRANCH   8   9
ENDBRANCH   7   8
ENDBRANCH   3   7
BRANCH   1  19
HETATM   19  C   UNL     1      23.262  47.564  49.185  1.00  0.00     0.095 A 
HETATM   20  C   UNL     1      23.082  48.740  48.480  1.00  0.00     0.107 A 
HETATM   21  O   UNL     1      22.392  48.488  47.338  1.00  0.00    -0.215 OA
HETATM   22  N   UNL     1      22.115  47.145  47.254  1.00  0.00    -0.131 NA
HETATM   23  C   UNL     1      22.636  46.584  48.356  1.00  0.00     0.087 A 
HETATM   24  C   UNL     1      22.489  45.118  48.516  1.00  0.00     0.075 C 
BRANCH  20  25
HETATM   25  C   UNL     1      23.451  50.161  48.690  1.00  0.00     0.065 C 
HETATM   26  C   UNL     1      22.310  50.950  49.309  1.00  0.00     0.012 C 
ENDBRANCH  20  25
ENDBRANCH   1  19
TORSDOF 5
ENDMDL
MODEL 7
REMARK VINA RESULT:      -8.8      1.906      3.116
REMARK  5 active torsions:
REMARK  status: ('A' for Active; 'I' for Inactive)
REMARK    1  A    between atoms: C_2  and  C_3 
REMARK    2  A    between atoms: C_8  and  N_9 
REMARK       I    between atoms: N_9  and  C_10 
REMARK       I    between atoms: C_10  and  N_11 
REMARK    3  A    between atoms: N_11  and  C_12 
REMARK    4  A    between atoms: C_12  and  C_13 
REMARK    5  A    between atoms: C_13  and  C_14 
ROOT
HETATM    1  N   UNL     1      23.689  46.264  49.934  1.00  0.00    -0.305 N 
HETATM    2  C   UNL     1      24.910  45.637  49.999  1.00  0.00     0.320 C 
HETATM    3  N   UNL     1      25.250  45.342  51.305  1.00  0.00    -0.343 N 
HETATM    4  O   UNL     1      25.624  45.324  49.058  1.00  0.00    -0.247 OA
HETATM    5  H   UNL     1      23.171  46.309  50.796  1.00  0.00     0.171 HD
HETATM    6  H   UNL     1      24.873  45.928  52.036  1.00  0.00     0.164 HD
ENDROOT
BRANCH   3   7
HETATM    7  C   UNL     1      26.499  44.661  51.608  1.00  0.00     0.129 C 
BRANCH   7   8
HETATM    8  C   UNL     1      26.530  44.068  53.021  1.00  0.00     0.059 C 
BRANCH   8   9
HETATM    9  C   UNL     1      27.304  44.938  53.997  1.00  0.00    -0.045 A 
HETATM   10  C   UNL     1      28.530  44.517  54.590  1.00  0.00    -0.020 A 
HETATM   11  C   UNL     1      29.172  45.383  55.512  1.00  0.00    -0.025 A 
HETATM   12  C   UNL     1      29.159  43.280  54.313  1.00  0.00     0.013 A 
HETATM   13  C   UNL     1      30.383  44.999  56.114  1.00  0.00     0.012 A 
HETATM   14  C   UNL     1      28.601  46.626  55.820  1.00  0.00     0.012 A 
HETATM   15  C   UNL     1      30.974  43.773  55.821  1.00  0.00     0.001 A 
HETATM   16  C   UNL     1      30.363  42.912  54.921  1.00  0.00     0.001 A 
HETATM   17  C   UNL     1      27.404  47.029  55.233  1.00  0.00     0.001 A 
HETATM   18  C   UNL     1      26.760  46.192  54.329  1.00  0.00     0.008 A 
ENDBRANCH   8   9
ENDBRANCH   7   8
ENDBRANCH   3   7
BRANCH   1  19
HETATM   19  C   UNL     1      23.023  46.679  48.788  1.00  0.00     0.095 A 
HETATM   20  C   UNL     1      22.892  48.012  48.443  1.00  0.00     0.107 A 
HETATM   21  O   UNL     1      22.186  48.118  47.289  1.00  0.00    -0.215 OA
HETATM   22  N   UNL     1      21.847  46.865  46.838  1.00  0.00    -0.131 NA
HETATM   23  C   UNL     1      22.348  45.997  47.731  1.00  0.00     0.087 A 
HETATM   24  C   UNL     1      22.136  44.553  47.477  1.00  0.00     0.075 C 
BRANCH  20  25
HETATM   25  C   UNL     1      23.327  49.300  49.036  1.00  0.00     0.065 C 
HETATM   26  C   UNL     1      23.532  50.365  47.971  1.00  0.00     0.012 C 
ENDBRANCH  20  25
ENDBRANCH   1  19
TORSDOF 5
ENDMDL
MODEL 8
REMARK VINA RESULT:      -8.4      5.648      7.254
REMARK  5 active torsions:
REMARK  status: ('A' for Active; 'I' for Inactive)
REMARK    1  A    between atoms: C_2  and  C_3 
REMARK    2  A    between atoms: C_8  and  N_9 
REMARK       I    between atoms: N_9  and  C_10 
REMARK       I    between atoms: C_10  and  N_11 
REMARK    3  A    between atoms: N_11  and  C_12 
REMARK    4  A    between atoms: C_12  and  C_13 
REMARK    5  A    between atoms: C_13  and  C_14 
ROOT
HETATM    1  N   UNL     1      28.406  40.931  49.690  1.00  0.00    -0.305 N 
HETATM    2  C   UNL     1      28.072  41.219  50.991  1.00  0.00     0.320 C 
HETATM    3  N   UNL     1      28.366  42.532  51.302  1.00  0.00    -0.343 N 
HETATM    4  O   UNL     1      27.549  40.464  51.798  1.00  0.00    -0.247 OA
HETATM    5  H   UNL     1      28.690  41.714  49.125  1.00  0.00     0.171 HD
HETATM    6  H   UNL     1      29.114  42.982  50.795  1.00  0.00     0.164 HD
ENDROOT
BRANCH   3   7
HETATM    7  C   UNL     1      28.080  43.059  52.628  1.00  0.00     0.129 C 
BRANCH   7   8
HETATM    8  C   UNL     1      29.332  43.192  53.502  1.00  0.00     0.059 C 
BRANCH   8   9
HETATM    9  C   UNL     1      29.183  44.264  54.568  1.00  0.00    -0.045 A 
HETATM   10  C   UNL     1      30.001  44.302  55.734  1.00  0.00    -0.020 A 
HETATM   11  C   UNL     1      29.776  45.325  56.691  1.00  0.00    -0.025 A 
HETATM   12  C   UNL     1      31.041  43.380  56.001  1.00  0.00     0.013 A 
HETATM   13  C   UNL     1      30.566  45.392  57.851  1.00  0.00     0.012 A 
HETATM   14  C   UNL     1      28.764  46.272  56.478  1.00  0.00     0.012 A 
HETATM   15  C   UNL     1      31.580  44.466  58.085  1.00  0.00     0.001 A 
HETATM   16  C   UNL     1      31.818  43.460  57.160  1.00  0.00     0.001 A 
HETATM   17  C   UNL     1      27.972  46.228  55.333  1.00  0.00     0.001 A 
HETATM   18  C   UNL     1      28.178  45.232  54.387  1.00  0.00     0.008 A 
ENDBRANCH   8   9
ENDBRANCH   7   8
ENDBRANCH   3   7
BRANCH   1  19
HETATM   19  C   UNL     1      28.226  39.723  49.029  1.00  0.00     0.095 A 
HETATM   20  C   UNL     1      27.285  39.552  48.030  1.00  0.00     0.107 A 
HETATM   21  O   UNL     1      27.324  38.273  47.579  1.00  0.00    -0.215 OA
HETATM   22  N   UNL     1      28.296  37.575  48.253  1.00  0.00    -0.131 NA
HETATM   23  C   UNL     1      28.843  38.438  49.123  1.00  0.00     0.087 A 
HETATM   24  C   UNL     1      29.944  37.942  49.983  1.00  0.00     0.075 C 
BRANCH  20  25
HETATM   25  C   UNL     1      26.276  40.419  47.376  1.00  0.00     0.065 C 
HETATM   26  C   UNL     1      25.170  40.817  48.339  1.00  0.00     0.012 C 
ENDBRANCH  20  25
ENDBRANCH   1  19
TORSDOF 5
ENDMDL
MODEL 9
REMARK VINA RESULT:      -8.4      4.539      9.830
REMARK  5 active torsions:
REMARK  status: ('A' for Active; 'I' for Inactive)
REMARK    1  A    between atoms: C_2  and  C_3 
REMARK    2  A    between atoms: C_8  and  N_9 
REMARK       I    between atoms: N_9  and  C_10 
REMARK       I    between atoms: C_10  and  N_11 
REMARK    3  A    between atoms: N_11  and  C_12 
REMARK    4  A    between atoms: C_12  and  C_13 
REMARK    5  A    between atoms: C_13  and  C_14 
ROOT
HETATM    1  N   UNL     1      22.844  47.827  49.474  1.00  0.00    -0.305 N 
HETATM    2  C   UNL     1      21.985  47.299  48.542  1.00  0.00     0.320 C 
HETATM    3  N   UNL     1      20.821  46.850  49.134  1.00  0.00    -0.343 N 
HETATM    4  O   UNL     1      22.159  47.241  47.333  1.00  0.00    -0.247 OA
HETATM    5  H   UNL     1      22.476  47.928  50.405  1.00  0.00     0.171 HD
HETATM    6  H   UNL     1      20.865  46.553  50.098  1.00  0.00     0.164 HD
ENDROOT
BRANCH   3   7
HETATM    7  C   UNL     1      19.760  46.264  48.330  1.00  0.00     0.129 C 
BRANCH   7   8
HETATM    8  C   UNL     1      18.456  47.069  48.381  1.00  0.00     0.059 C 
BRANCH   8   9
HETATM    9  C   UNL     1      18.523  48.335  47.545  1.00  0.00    -0.045 A 
HETATM   10  C   UNL     1      18.651  49.630  48.126  1.00  0.00    -0.020 A 
HETATM   11  C   UNL     1      18.680  50.761  47.270  1.00  0.00    -0.025 A 
HETATM   12  C   UNL     1      18.757  49.865  49.518  1.00  0.00     0.013 A 
HETATM   13  C   UNL     1      18.807  52.052  47.811  1.00  0.00     0.012 A 
HETATM   14  C   UNL     1      18.586  50.590  45.882  1.00  0.00     0.012 A 
HETATM   15  C   UNL     1      18.906  52.248  49.187  1.00  0.00     0.001 A 
HETATM   16  C   UNL     1      18.881  51.155  50.040  1.00  0.00     0.001 A 
HETATM   17  C   UNL     1      18.465  49.320  45.323  1.00  0.00     0.001 A 
HETATM   18  C   UNL     1      18.433  48.202  46.147  1.00  0.00     0.008 A 
ENDBRANCH   8   9
ENDBRANCH   7   8
ENDBRANCH   3   7
BRANCH   1  19
HETATM   19  C   UNL     1      24.089  48.394  49.235  1.00  0.00     0.095 A 
HETATM   20  C   UNL     1      24.254  49.540  48.478  1.00  0.00     0.107 A 
HETATM   21  O   UNL     1      25.573  49.853  48.403  1.00  0.00    -0.215 OA
HETATM   22  N   UNL     1      26.306  48.936  49.117  1.00  0.00    -0.131 NA
HETATM   23  C   UNL     1      25.423  48.060  49.620  1.00  0.00     0.087 A 
HETATM   24  C   UNL     1      25.952  46.956  50.456  1.00  0.00     0.075 C 
BRANCH  20  25
HETATM   25  C   UNL     1      23.347  50.460  47.751  1.00  0.00     0.065 C 
HETATM   26  C   UNL     1      22.375  51.149  48.694  1.00  0.00     0.012 C 
ENDBRANCH  20  25
ENDBRANCH   1  19
TORSDOF 5
ENDMDL
MODEL 10
REMARK VINA RESULT:      -8.4      5.308      7.222
REMARK  5 active torsions:
REMARK  status: ('A' for Active; 'I' for Inactive)
REMARK    1  A    between atoms: C_2  and  C_3 
REMARK    2  A    between atoms: C_8  and  N_9 
REMARK       I    between atoms: N_9  and  C_10 
REMARK       I    between atoms: C_10  and  N_11 
REMARK    3  A    between atoms: N_11  and  C_12 
REMARK    4  A    between atoms: C_12  and  C_13 
REMARK    5  A    between atoms: C_13  and  C_14 
ROOT
HETATM    1  N   UNL     1      26.480  40.231  51.004  1.00  0.00    -0.305 N 
HETATM    2  C   UNL     1      27.649  40.723  51.530  1.00  0.00     0.320 C 
HETATM    3  N   UNL     1      27.589  40.784  52.908  1.00  0.00    -0.343 N 
HETATM    4  O   UNL     1      28.654  41.044  50.911  1.00  0.00    -0.247 OA
HETATM    5  H   UNL     1      25.812  39.878  51.670  1.00  0.00     0.171 HD
HETATM    6  H   UNL     1      26.683  40.896  53.338  1.00  0.00     0.164 HD
ENDROOT
BRANCH   3   7
HETATM    7  C   UNL     1      28.728  41.262  53.678  1.00  0.00     0.129 C 
BRANCH   7   8
HETATM    8  C   UNL     1      29.242  42.626  53.201  1.00  0.00     0.059 C 
BRANCH   8   9
HETATM    9  C   UNL     1      29.537  43.568  54.356  1.00  0.00    -0.045 A 
HETATM   10  C   UNL     1      28.773  44.747  54.595  1.00  0.00    -0.020 A 
HETATM   11  C   UNL     1      29.135  45.584  55.682  1.00  0.00    -0.025 A 
HETATM   12  C   UNL     1      27.659  45.140  53.815  1.00  0.00     0.013 A 
HETATM   13  C   UNL     1      28.401  46.754  55.946  1.00  0.00     0.012 A 
HETATM   14  C   UNL     1      30.225  45.243  56.495  1.00  0.00     0.012 A 
HETATM   15  C   UNL     1      27.312  47.112  55.156  1.00  0.00     0.001 A 
HETATM   16  C   UNL     1      26.940  46.306  54.091  1.00  0.00     0.001 A 
HETATM   17  C   UNL     1      30.964  44.088  56.255  1.00  0.00     0.001 A 
HETATM   18  C   UNL     1      30.624  43.257  55.193  1.00  0.00     0.008 A 
ENDBRANCH   8   9
ENDBRANCH   7   8
ENDBRANCH   3   7
BRANCH   1  19
HETATM   19  C   UNL     1      26.195  40.007  49.663  1.00  0.00     0.095 A 
HETATM   20  C   UNL     1      26.709  38.932  48.961  1.00  0.00     0.107 A 
HETATM   21  O   UNL     1      26.276  38.976  47.676  1.00  0.00    -0.215 OA
HETATM   22  N   UNL     1      25.459  40.067  47.501  1.00  0.00    -0.131 NA
HETATM   23  C   UNL     1      25.404  40.689  48.689  1.00  0.00     0.087 A 
HETATM   24  C   UNL     1      24.568  41.909  48.787  1.00  0.00     0.075 C 
BRANCH  20  25
HETATM   25  C   UNL     1      27.600  37.792  49.287  1.00  0.00     0.065 C 
HETATM   26  C   UNL     1      29.063  38.153  49.097  1.00  0.00     0.012 C 
ENDBRANCH  20  25
ENDBRANCH   1  19
TORSDOF 5
ENDMDL
