MODEL 1
REMARK VINA RESULT:     -10.1      0.000      0.000
REMARK  5 active torsions:
REMARK  status: ('A' for Active; 'I' for Inactive)
REMARK    1  A    between atoms: C_4  and  N_5 
REMARK       I    between atoms: C_6  and  N_7 
REMARK       I    between atoms: C_6  and  N_14 
REMARK       I    between atoms: N_7  and  C_8 
REMARK    2  A    between atoms: C_8  and  C_9 
REMARK    3  A    between atoms: N_14  and  C_15 
REMARK    4  A    between atoms: C_15  and  C_16 
REMARK    5  A    between atoms: C_16  and  C_17 
ROOT
HETATM    1  N   UNL     1      26.746  44.285  49.493  1.00  0.00     0.130 NA
HETATM    2  C   UNL     1      26.889  43.615  50.585  1.00  0.00     0.718 C 
HETATM    3  N   UNL     1      27.261  42.285  50.499  1.00  0.00    -0.157 N 
HETATM    4  C   UNL     1      27.550  41.522  49.366  1.00  0.00     0.243 C 
HETATM    5  O   UNL     1      27.626  41.951  48.219  1.00  0.00    -0.272 OA
HETATM    6  N   UNL     1      26.683  44.106  51.852  1.00  0.00    -0.223 N 
HETATM    7  H   UNL     1      27.271  41.801  51.377  1.00  0.00     0.187 HD
HETATM    8  H   UNL     1      26.640  45.128  51.825  1.00  0.00     0.177 HD
ENDROOT
BRANCH   1   9
HETATM    9  C   UNL     1      26.355  45.619  49.483  1.00  0.00     0.764 A 
HETATM   10  N   UNL     1      27.302  46.579  49.448  1.00  0.00    -0.065 NA
HETATM   11  C   UNL     1      26.864  47.854  49.404  1.00  0.00     0.051 A 
HETATM   12  C   UNL     1      27.901  48.935  49.345  1.00  0.00     0.071 C 
HETATM   13  C   UNL     1      25.522  48.177  49.411  1.00  0.00     0.054 A 
HETATM   14  C   UNL     1      24.631  47.123  49.460  1.00  0.00     0.051 A 
HETATM   15  N   UNL     1      25.033  45.839  49.493  1.00  0.00    -0.065 NA
HETATM   16  C   UNL     1      23.154  47.379  49.476  1.00  0.00     0.071 C 
ENDBRANCH   1   9
BRANCH   6  17
HETATM   17  C   UNL     1      27.210  43.579  53.097  1.00  0.00     0.142 C 
BRANCH  17  18
HETATM   18  C   UNL     1      28.679  43.981  53.264  1.00  0.00     0.061 C 
BRANCH  18  19
HETATM   19  C   UNL     1      28.917  44.761  54.516  1.00  0.00    -0.029 A 
HETATM   20  C   UNL     1      29.850  44.440  55.555  1.00  0.00    -0.002 A 
HETATM   21  C   UNL     1      29.739  45.424  56.536  1.00  0.00     0.042 A 
HETATM   22  C   UNL     1      30.778  43.395  55.752  1.00  0.00     0.014 A 
HETATM   23  C   UNL     1      30.509  45.419  57.706  1.00  0.00     0.030 A 
HETATM   24  N   UNL     1      28.779  46.312  56.112  1.00  0.00    -0.365 N 
HETATM   25  C   UNL     1      31.418  44.372  57.878  1.00  0.00     0.002 A 
HETATM   26  C   UNL     1      31.554  43.373  56.917  1.00  0.00     0.001 A 
HETATM   27  H   UNL     1      28.485  47.128  56.630  1.00  0.00     0.165 HD
HETATM   28  C   UNL     1      28.279  45.925  54.897  1.00  0.00     0.096 A 
ENDBRANCH  18  19
ENDBRANCH  17  18
ENDBRANCH   6  17
BRANCH   4  29
HETATM   29  C   UNL     1      27.854  40.038  49.684  1.00  0.00     0.031 C 
HETATM   30  C   UNL     1      28.768  39.426  48.610  1.00  0.00     0.025 C 
HETATM   31  C   UNL     1      28.576  39.944  51.041  1.00  0.00     0.025 C 
HETATM   32  C   UNL     1      26.539  39.250  49.773  1.00  0.00     0.025 C 
ENDBRANCH   4  29
TORSDOF 5
ENDMDL
MODEL 2
REMARK VINA RESULT:     -10.1      1.896      2.540
REMARK  5 active torsions:
REMARK  status: ('A' for Active; 'I' for Inactive)
REMARK    1  A    between atoms: C_4  and  N_5 
REMARK       I    between atoms: C_6  and  N_7 
REMARK       I    between atoms: C_6  and  N_14 
REMARK       I    between atoms: N_7  and  C_8 
REMARK    2  A    between atoms: C_8  and  C_9 
REMARK    3  A    between atoms: N_14  and  C_15 
REMARK    4  A    between atoms: C_15  and  C_16 
REMARK    5  A    between atoms: C_16  and  C_17 
ROOT
HETATM    1  N   UNL     1      26.667  41.797  50.411  1.00  0.00     0.130 NA
HETATM    2  C   UNL     1      27.371  41.286  51.363  1.00  0.00     0.718 C 
HETATM    3  N   UNL     1      28.108  40.145  51.099  1.00  0.00    -0.157 N 
HETATM    4  C   UNL     1      28.241  39.439  49.902  1.00  0.00     0.243 C 
HETATM    5  O   UNL     1      27.791  39.788  48.815  1.00  0.00    -0.272 OA
HETATM    6  N   UNL     1      27.444  41.771  52.647  1.00  0.00    -0.223 N 
HETATM    7  H   UNL     1      28.564  39.753  51.902  1.00  0.00     0.187 HD
HETATM    8  H   UNL     1      27.063  42.721  52.681  1.00  0.00     0.177 HD
ENDROOT
BRANCH   1   9
HETATM    9  C   UNL     1      25.880  42.928  50.591  1.00  0.00     0.764 A 
HETATM   10  N   UNL     1      26.433  44.030  51.141  1.00  0.00    -0.065 NA
HETATM   11  C   UNL     1      25.633  45.109  51.259  1.00  0.00     0.051 A 
HETATM   12  C   UNL     1      26.234  46.348  51.850  1.00  0.00     0.071 C 
HETATM   13  C   UNL     1      24.312  45.099  50.860  1.00  0.00     0.054 A 
HETATM   14  C   UNL     1      23.836  43.920  50.320  1.00  0.00     0.051 A 
HETATM   15  N   UNL     1      24.610  42.828  50.177  1.00  0.00    -0.065 NA
HETATM   16  C   UNL     1      22.413  43.815  49.863  1.00  0.00     0.071 C 
ENDBRANCH   1   9
BRANCH   6  17
HETATM   17  C   UNL     1      28.493  41.531  53.621  1.00  0.00     0.142 C 
BRANCH  17  18
HETATM   18  C   UNL     1      29.616  42.562  53.457  1.00  0.00     0.061 C 
BRANCH  18  19
HETATM   19  C   UNL     1      29.466  43.719  54.391  1.00  0.00    -0.029 A 
HETATM   20  C   UNL     1      30.190  43.929  55.608  1.00  0.00    -0.002 A 
HETATM   21  C   UNL     1      29.733  45.122  56.167  1.00  0.00     0.042 A 
HETATM   22  C   UNL     1      31.193  43.208  56.291  1.00  0.00     0.014 A 
HETATM   23  C   UNL     1      30.227  45.633  57.374  1.00  0.00     0.030 A 
HETATM   24  N   UNL     1      28.769  45.621  55.322  1.00  0.00    -0.365 N 
HETATM   25  C   UNL     1      31.217  44.898  58.031  1.00  0.00     0.002 A 
HETATM   26  C   UNL     1      31.697  43.703  57.499  1.00  0.00     0.001 A 
HETATM   27  H   UNL     1      28.258  46.478  55.480  1.00  0.00     0.165 HD
HETATM   28  C   UNL     1      28.602  44.787  54.249  1.00  0.00     0.096 A 
ENDBRANCH  18  19
ENDBRANCH  17  18
ENDBRANCH   6  17
BRANCH   4  29
HETATM   29  C   UNL     1      29.101  38.158  50.034  1.00  0.00     0.031 C 
HETATM   30  C   UNL     1      29.845  38.137  51.379  1.00  0.00     0.025 C 
HETATM   31  C   UNL     1      28.187  36.920  49.969  1.00  0.00     0.025 C 
HETATM   32  C   UNL     1      30.103  38.089  48.872  1.00  0.00     0.025 C 
ENDBRANCH   4  29
TORSDOF 5
ENDMDL
MODEL 3
REMARK VINA RESULT:     -10.1      1.095      2.340
REMARK  5 active torsions:
REMARK  status: ('A' for Active; 'I' for Inactive)
REMARK    1  A    between atoms: C_4  and  N_5 
REMARK       I    between atoms: C_6  and  N_7 
REMARK       I    between atoms: C_6  and  N_14 
REMARK       I    between atoms: N_7  and  C_8 
REMARK    2  A    between atoms: C_8  and  C_9 
REMARK    3  A    between atoms: N_14  and  C_15 
REMARK    4  A    between atoms: C_15  and  C_16 
REMARK    5  A    between atoms: C_16  and  C_17 
ROOT
HETATM    1  N   UNL     1      26.423  44.935  49.746  1.00  0.00     0.130 NA
HETATM    2  C   UNL     1      26.452  44.387  50.913  1.00  0.00     0.718 C 
HETATM    3  N   UNL     1      26.821  43.057  51.010  1.00  0.00    -0.157 N 
HETATM    4  C   UNL     1      27.216  42.177  50.000  1.00  0.00     0.243 C 
HETATM    5  O   UNL     1      27.410  42.479  48.827  1.00  0.00    -0.272 OA
HETATM    6  N   UNL     1      26.123  45.011  52.092  1.00  0.00    -0.223 N 
HETATM    7  H   UNL     1      26.740  42.672  51.931  1.00  0.00     0.187 HD
HETATM    8  H   UNL     1      26.090  46.025  51.951  1.00  0.00     0.177 HD
ENDROOT
BRANCH   1   9
HETATM    9  C   UNL     1      26.044  46.257  49.553  1.00  0.00     0.764 A 
HETATM   10  N   UNL     1      24.730  46.566  49.534  1.00  0.00    -0.065 NA
HETATM   11  C   UNL     1      24.421  47.869  49.378  1.00  0.00     0.051 A 
HETATM   12  C   UNL     1      22.967  48.234  49.373  1.00  0.00     0.071 C 
HETATM   13  C   UNL     1      25.384  48.846  49.228  1.00  0.00     0.054 A 
HETATM   14  C   UNL     1      26.700  48.429  49.250  1.00  0.00     0.051 A 
HETATM   15  N   UNL     1      27.044  47.138  49.415  1.00  0.00    -0.065 NA
HETATM   16  C   UNL     1      27.813  49.419  49.090  1.00  0.00     0.071 C 
ENDBRANCH   1   9
BRANCH   6  17
HETATM   17  C   UNL     1      26.520  44.625  53.434  1.00  0.00     0.142 C 
BRANCH  17  18
HETATM   18  C   UNL     1      27.699  45.483  53.907  1.00  0.00     0.061 C 
BRANCH  18  19
HETATM   19  C   UNL     1      28.835  44.657  54.416  1.00  0.00    -0.029 A 
HETATM   20  C   UNL     1      29.517  44.824  55.664  1.00  0.00    -0.002 A 
HETATM   21  C   UNL     1      30.512  43.850  55.732  1.00  0.00     0.042 A 
HETATM   22  C   UNL     1      29.382  45.723  56.744  1.00  0.00     0.014 A 
HETATM   23  C   UNL     1      31.380  43.726  56.824  1.00  0.00     0.030 A 
HETATM   24  N   UNL     1      30.439  43.115  54.571  1.00  0.00    -0.365 N 
HETATM   25  C   UNL     1      31.226  44.630  57.879  1.00  0.00     0.002 A 
HETATM   26  C   UNL     1      30.241  45.615  57.843  1.00  0.00     0.001 A 
HETATM   27  H   UNL     1      31.048  42.341  54.345  1.00  0.00     0.165 HD
HETATM   28  C   UNL     1      29.432  43.590  53.773  1.00  0.00     0.096 A 
ENDBRANCH  18  19
ENDBRANCH  17  18
ENDBRANCH   6  17
BRANCH   4  29
HETATM   29  C   UNL     1      27.478  40.737  50.506  1.00  0.00     0.031 C 
HETATM   30  C   UNL     1      26.166  39.941  50.586  1.00  0.00     0.025 C 
HETATM   31  C   UNL     1      28.421  40.015  49.525  1.00  0.00     0.025 C 
HETATM   32  C   UNL     1      28.153  40.790  51.885  1.00  0.00     0.025 C 
ENDBRANCH   4  29
TORSDOF 5
ENDMDL
MODEL 4
REMARK VINA RESULT:      -9.5      1.845      3.016
REMARK  5 active torsions:
REMARK  status: ('A' for Active; 'I' for Inactive)
REMARK    1  A    between atoms: C_4  and  N_5 
REMARK       I    between atoms: C_6  and  N_7 
REMARK       I    between atoms: C_6  and  N_14 
REMARK       I    between atoms: N_7  and  C_8 
REMARK    2  A    between atoms: C_8  and  C_9 
REMARK    3  A    between atoms: N_14  and  C_15 
REMARK    4  A    between atoms: C_15  and  C_16 
REMARK    5  A    between atoms: C_16  and  C_17 
ROOT
HETATM    1  N   UNL     1      26.770  41.904  49.965  1.00  0.00     0.130 NA
HETATM    2  C   UNL     1      27.270  41.349  51.017  1.00  0.00     0.718 C 
HETATM    3  N   UNL     1      27.993  40.178  50.865  1.00  0.00    -0.157 N 
HETATM    4  C   UNL     1      28.308  39.483  49.696  1.00  0.00     0.243 C 
HETATM    5  O   UNL     1      28.076  39.867  48.554  1.00  0.00    -0.272 OA
HETATM    6  N   UNL     1      27.132  41.813  52.303  1.00  0.00    -0.223 N 
HETATM    7  H   UNL     1      28.279  39.755  51.728  1.00  0.00     0.187 HD
HETATM    8  H   UNL     1      26.792  42.779  52.288  1.00  0.00     0.177 HD
ENDROOT
BRANCH   1   9
HETATM    9  C   UNL     1      26.014  43.068  50.026  1.00  0.00     0.764 A 
HETATM   10  N   UNL     1      26.646  44.259  50.064  1.00  0.00    -0.065 NA
HETATM   11  C   UNL     1      25.862  45.356  50.086  1.00  0.00     0.051 A 
HETATM   12  C   UNL     1      26.546  46.689  50.109  1.00  0.00     0.071 C 
HETATM   13  C   UNL     1      24.484  45.281  50.088  1.00  0.00     0.054 A 
HETATM   14  C   UNL     1      23.931  44.016  50.058  1.00  0.00     0.051 A 
HETATM   15  N   UNL     1      24.684  42.901  50.025  1.00  0.00    -0.065 NA
HETATM   16  C   UNL     1      22.444  43.837  50.063  1.00  0.00     0.071 C 
ENDBRANCH   1   9
BRANCH   6  17
HETATM   17  C   UNL     1      27.977  41.512  53.443  1.00  0.00     0.142 C 
BRANCH  17  18
HETATM   18  C   UNL     1      29.331  42.217  53.302  1.00  0.00     0.061 C 
BRANCH  18  19
HETATM   19  C   UNL     1      29.505  43.320  54.295  1.00  0.00    -0.029 A 
HETATM   20  C   UNL     1      28.703  44.501  54.406  1.00  0.00    -0.002 A 
HETATM   21  C   UNL     1      29.217  45.260  55.456  1.00  0.00     0.042 A 
HETATM   22  C   UNL     1      27.586  44.999  53.701  1.00  0.00     0.014 A 
HETATM   23  C   UNL     1      28.672  46.492  55.840  1.00  0.00     0.030 A 
HETATM   24  N   UNL     1      30.289  44.568  55.969  1.00  0.00    -0.365 N 
HETATM   25  C   UNL     1      27.568  46.963  55.124  1.00  0.00     0.002 A 
HETATM   26  C   UNL     1      27.029  46.228  54.070  1.00  0.00     0.001 A 
HETATM   27  H   UNL     1      30.860  44.886  56.739  1.00  0.00     0.165 HD
HETATM   28  C   UNL     1      30.471  43.399  55.280  1.00  0.00     0.096 A 
ENDBRANCH  18  19
ENDBRANCH  17  18
ENDBRANCH   6  17
BRANCH   4  29
HETATM   29  C   UNL     1      29.075  38.162  49.953  1.00  0.00     0.031 C 
HETATM   30  C   UNL     1      28.116  36.961  49.928  1.00  0.00     0.025 C 
HETATM   31  C   UNL     1      30.129  37.961  48.849  1.00  0.00     0.025 C 
HETATM   32  C   UNL     1      29.794  38.240  51.308  1.00  0.00     0.025 C 
ENDBRANCH   4  29
TORSDOF 5
ENDMDL
MODEL 5
REMARK VINA RESULT:      -9.4      1.833      2.892
REMARK  5 active torsions:
REMARK  status: ('A' for Active; 'I' for Inactive)
REMARK    1  A    between atoms: C_4  and  N_5 
REMARK       I    between atoms: C_6  and  N_7 
REMARK       I    between atoms: C_6  and  N_14 
REMARK       I    between atoms: N_7  and  C_8 
REMARK    2  A    between atoms: C_8  and  C_9 
REMARK    3  A    between atoms: N_14  and  C_15 
REMARK    4  A    between atoms: C_15  and  C_16 
REMARK    5  A    between atoms: C_16  and  C_17 
ROOT
HETATM    1  N   UNL     1      26.249  45.884  50.562  1.00  0.00     0.130 NA
HETATM    2  C   UNL     1      26.432  45.815  51.837  1.00  0.00     0.718 C 
HETATM    3  N   UNL     1      27.017  44.676  52.360  1.00  0.00    -0.157 N 
HETATM    4  C   UNL     1      27.492  43.544  51.694  1.00  0.00     0.243 C 
HETATM    5  O   UNL     1      27.567  43.413  50.476  1.00  0.00    -0.272 OA
HETATM    6  N   UNL     1      26.073  46.783  52.744  1.00  0.00    -0.223 N 
HETATM    7  H   UNL     1      27.051  44.652  53.362  1.00  0.00     0.187 HD
HETATM    8  H   UNL     1      25.869  47.659  52.255  1.00  0.00     0.177 HD
ENDROOT
BRANCH   1   9
HETATM    9  C   UNL     1      25.650  46.979  49.953  1.00  0.00     0.764 A 
HETATM   10  N   UNL     1      24.306  47.008  49.833  1.00  0.00    -0.065 NA
HETATM   11  C   UNL     1      23.777  48.111  49.266  1.00  0.00     0.051 A 
HETATM   12  C   UNL     1      22.285  48.170  49.140  1.00  0.00     0.071 C 
HETATM   13  C   UNL     1      24.555  49.157  48.812  1.00  0.00     0.054 A 
HETATM   14  C   UNL     1      25.921  49.028  48.970  1.00  0.00     0.051 A 
HETATM   15  N   UNL     1      26.482  47.946  49.542  1.00  0.00    -0.065 NA
HETATM   16  C   UNL     1      26.844  50.112  48.503  1.00  0.00     0.071 C 
ENDBRANCH   1   9
BRANCH   6  17
HETATM   17  C   UNL     1      26.602  46.976  54.082  1.00  0.00     0.142 C 
BRANCH  17  18
HETATM   18  C   UNL     1      27.921  46.213  54.246  1.00  0.00     0.061 C 
BRANCH  18  19
HETATM   19  C   UNL     1      28.405  46.210  55.660  1.00  0.00    -0.029 A 
HETATM   20  C   UNL     1      29.478  45.424  56.191  1.00  0.00    -0.002 A 
HETATM   21  C   UNL     1      29.584  45.723  57.549  1.00  0.00     0.042 A 
HETATM   22  C   UNL     1      30.368  44.478  55.640  1.00  0.00     0.014 A 
HETATM   23  C   UNL     1      30.535  45.125  58.386  1.00  0.00     0.030 A 
HETATM   24  N   UNL     1      28.616  46.657  57.835  1.00  0.00    -0.365 N 
HETATM   25  C   UNL     1      31.402  44.190  57.815  1.00  0.00     0.002 A 
HETATM   26  C   UNL     1      31.323  43.869  56.462  1.00  0.00     0.001 A 
HETATM   27  H   UNL     1      28.456  47.054  58.750  1.00  0.00     0.165 HD
HETATM   28  C   UNL     1      27.902  46.959  56.706  1.00  0.00     0.096 A 
ENDBRANCH  18  19
ENDBRANCH  17  18
ENDBRANCH   6  17
BRANCH   4  29
HETATM   29  C   UNL     1      28.011  42.441  52.648  1.00  0.00     0.031 C 
HETATM   30  C   UNL     1      27.650  41.045  52.116  1.00  0.00     0.025 C 
HETATM   31  C   UNL     1      29.545  42.536  52.752  1.00  0.00     0.025 C 
HETATM   32  C   UNL     1      27.413  42.647  54.048  1.00  0.00     0.025 C 
ENDBRANCH   4  29
TORSDOF 5
ENDMDL
MODEL 6
REMARK VINA RESULT:      -9.2      1.767      7.058
REMARK  5 active torsions:
REMARK  status: ('A' for Active; 'I' for Inactive)
REMARK    1  A    between atoms: C_4  and  N_5 
REMARK       I    between atoms: C_6  and  N_7 
REMARK       I    between atoms: C_6  and  N_14 
REMARK       I    between atoms: N_7  and  C_8 
REMARK    2  A    between atoms: C_8  and  C_9 
REMARK    3  A    between atoms: N_14  and  C_15 
REMARK    4  A    between atoms: C_15  and  C_16 
REMARK    5  A    between atoms: C_16  and  C_17 
ROOT
HETATM    1  N   UNL     1      29.130  42.551  53.369  1.00  0.00     0.130 NA
HETATM    2  C   UNL     1      28.337  42.895  52.411  1.00  0.00     0.718 C 
HETATM    3  N   UNL     1      28.044  41.964  51.430  1.00  0.00    -0.157 N 
HETATM    4  C   UNL     1      28.466  40.637  51.321  1.00  0.00     0.243 C 
HETATM    5  O   UNL     1      29.108  40.021  52.167  1.00  0.00    -0.272 OA
HETATM    6  N   UNL     1      27.760  44.133  52.262  1.00  0.00    -0.223 N 
HETATM    7  H   UNL     1      27.493  42.321  50.673  1.00  0.00     0.187 HD
HETATM    8  H   UNL     1      27.847  44.663  53.134  1.00  0.00     0.177 HD
ENDROOT
BRANCH   1   9
HETATM    9  C   UNL     1      29.496  43.427  54.384  1.00  0.00     0.764 A 
HETATM   10  N   UNL     1      28.826  44.592  54.517  1.00  0.00    -0.065 NA
HETATM   11  C   UNL     1      29.200  45.386  55.540  1.00  0.00     0.051 A 
HETATM   12  C   UNL     1      28.457  46.675  55.716  1.00  0.00     0.071 C 
HETATM   13  C   UNL     1      30.223  45.050  56.404  1.00  0.00     0.054 A 
HETATM   14  C   UNL     1      30.854  43.842  56.178  1.00  0.00     0.051 A 
HETATM   15  N   UNL     1      30.499  43.020  55.173  1.00  0.00    -0.065 NA
HETATM   16  C   UNL     1      31.979  43.397  57.062  1.00  0.00     0.071 C 
ENDBRANCH   1   9
BRANCH   6  17
HETATM   17  C   UNL     1      26.574  44.466  51.496  1.00  0.00     0.142 C 
BRANCH  17  18
HETATM   18  C   UNL     1      26.923  45.462  50.384  1.00  0.00     0.061 C 
BRANCH  18  19
HETATM   19  C   UNL     1      25.781  46.367  50.051  1.00  0.00    -0.029 A 
HETATM   20  C   UNL     1      25.870  47.671  49.467  1.00  0.00    -0.002 A 
HETATM   21  C   UNL     1      24.572  48.162  49.338  1.00  0.00     0.042 A 
HETATM   22  C   UNL     1      26.942  48.484  49.039  1.00  0.00     0.014 A 
HETATM   23  C   UNL     1      24.288  49.425  48.804  1.00  0.00     0.030 A 
HETATM   24  N   UNL     1      23.723  47.195  49.823  1.00  0.00    -0.365 N 
HETATM   25  C   UNL     1      25.368  50.211  48.390  1.00  0.00     0.002 A 
HETATM   26  C   UNL     1      26.677  49.749  48.504  1.00  0.00     0.001 A 
HETATM   27  H   UNL     1      22.717  47.282  49.859  1.00  0.00     0.165 HD
HETATM   28  C   UNL     1      24.439  46.109  50.253  1.00  0.00     0.096 A 
ENDBRANCH  18  19
ENDBRANCH  17  18
ENDBRANCH   6  17
BRANCH   4  29
HETATM   29  C   UNL     1      27.979  39.941  50.026  1.00  0.00     0.031 C 
HETATM   30  C   UNL     1      28.313  40.792  48.791  1.00  0.00     0.025 C 
HETATM   31  C   UNL     1      28.688  38.581  49.881  1.00  0.00     0.025 C 
HETATM   32  C   UNL     1      26.465  39.698  50.111  1.00  0.00     0.025 C 
ENDBRANCH   4  29
TORSDOF 5
ENDMDL
MODEL 7
REMARK VINA RESULT:      -9.0      5.519     11.468
REMARK  5 active torsions:
REMARK  status: ('A' for Active; 'I' for Inactive)
REMARK    1  A    between atoms: C_4  and  N_5 
REMARK       I    between atoms: C_6  and  N_7 
REMARK       I    between atoms: C_6  and  N_14 
REMARK       I    between atoms: N_7  and  C_8 
REMARK    2  A    between atoms: C_8  and  C_9 
REMARK    3  A    between atoms: N_14  and  C_15 
REMARK    4  A    between atoms: C_15  and  C_16 
REMARK    5  A    between atoms: C_16  and  C_17 
ROOT
HETATM    1  N   UNL     1      22.558  47.373  49.062  1.00  0.00     0.130 NA
HETATM    2  C   UNL     1      21.684  48.321  49.063  1.00  0.00     0.718 C 
HETATM    3  N   UNL     1      20.387  48.024  48.682  1.00  0.00    -0.157 N 
HETATM    4  C   UNL     1      19.839  46.796  48.307  1.00  0.00     0.243 C 
HETATM    5  O   UNL     1      20.415  45.713  48.355  1.00  0.00    -0.272 OA
HETATM    6  N   UNL     1      21.932  49.631  49.396  1.00  0.00    -0.223 N 
HETATM    7  H   UNL     1      19.781  48.820  48.624  1.00  0.00     0.187 HD
HETATM    8  H   UNL     1      22.835  49.702  49.874  1.00  0.00     0.177 HD
ENDROOT
BRANCH   1   9
HETATM    9  C   UNL     1      23.887  47.585  49.408  1.00  0.00     0.764 A 
HETATM   10  N   UNL     1      24.585  48.548  48.769  1.00  0.00    -0.065 NA
HETATM   11  C   UNL     1      25.858  48.734  49.170  1.00  0.00     0.051 A 
HETATM   12  C   UNL     1      26.644  49.811  48.486  1.00  0.00     0.071 C 
HETATM   13  C   UNL     1      26.439  47.976  50.168  1.00  0.00     0.054 A 
HETATM   14  C   UNL     1      25.646  47.008  50.753  1.00  0.00     0.051 A 
HETATM   15  N   UNL     1      24.368  46.804  50.384  1.00  0.00    -0.065 NA
HETATM   16  C   UNL     1      26.193  46.135  51.840  1.00  0.00     0.071 C 
ENDBRANCH   1   9
BRANCH   6  17
HETATM   17  C   UNL     1      20.968  50.629  49.823  1.00  0.00     0.142 C 
BRANCH  17  18
HETATM   18  C   UNL     1      20.715  51.638  48.697  1.00  0.00     0.061 C 
BRANCH  18  19
HETATM   19  C   UNL     1      19.373  51.460  48.065  1.00  0.00    -0.029 A 
HETATM   20  C   UNL     1      18.115  51.876  48.607  1.00  0.00    -0.002 A 
HETATM   21  C   UNL     1      17.124  51.507  47.698  1.00  0.00     0.042 A 
HETATM   22  C   UNL     1      17.726  52.531  49.795  1.00  0.00     0.014 A 
HETATM   23  C   UNL     1      15.763  51.759  47.914  1.00  0.00     0.030 A 
HETATM   24  N   UNL     1      17.753  50.892  46.641  1.00  0.00    -0.365 N 
HETATM   25  C   UNL     1      15.406  52.407  49.100  1.00  0.00     0.002 A 
HETATM   26  C   UNL     1      16.371  52.790  50.029  1.00  0.00     0.001 A 
HETATM   27  H   UNL     1      17.279  50.515  45.833  1.00  0.00     0.165 HD
HETATM   28  C   UNL     1      19.106  50.860  46.850  1.00  0.00     0.096 A 
ENDBRANCH  18  19
ENDBRANCH  17  18
ENDBRANCH   6  17
BRANCH   4  29
HETATM   29  C   UNL     1      18.355  46.890  47.874  1.00  0.00     0.031 C 
HETATM   30  C   UNL     1      17.606  47.933  48.718  1.00  0.00     0.025 C 
HETATM   31  C   UNL     1      18.281  47.321  46.397  1.00  0.00     0.025 C 
HETATM   32  C   UNL     1      17.689  45.513  48.016  1.00  0.00     0.025 C 
ENDBRANCH   4  29
TORSDOF 5
ENDMDL
MODEL 8
REMARK VINA RESULT:      -8.9      5.680     11.740
REMARK  5 active torsions:
REMARK  status: ('A' for Active; 'I' for Inactive)
REMARK    1  A    between atoms: C_4  and  N_5 
REMARK       I    between atoms: C_6  and  N_7 
REMARK       I    between atoms: C_6  and  N_14 
REMARK       I    between atoms: N_7  and  C_8 
REMARK    2  A    between atoms: C_8  and  C_9 
REMARK    3  A    between atoms: N_14  and  C_15 
REMARK    4  A    between atoms: C_15  and  C_16 
REMARK    5  A    between atoms: C_16  and  C_17 
ROOT
HETATM    1  N   UNL     1      22.506  47.586  49.138  1.00  0.00     0.130 NA
HETATM    2  C   UNL     1      21.673  48.570  49.154  1.00  0.00     0.718 C 
HETATM    3  N   UNL     1      20.364  48.333  48.774  1.00  0.00    -0.157 N 
HETATM    4  C   UNL     1      19.763  47.135  48.384  1.00  0.00     0.243 C 
HETATM    5  O   UNL     1      20.292  46.028  48.417  1.00  0.00    -0.272 OA
HETATM    6  N   UNL     1      21.978  49.864  49.503  1.00  0.00    -0.223 N 
HETATM    7  H   UNL     1      19.792  49.155  48.727  1.00  0.00     0.187 HD
HETATM    8  H   UNL     1      22.884  49.890  49.979  1.00  0.00     0.177 HD
ENDROOT
BRANCH   1   9
HETATM    9  C   UNL     1      23.844  47.736  49.483  1.00  0.00     0.764 A 
HETATM   10  N   UNL     1      24.365  46.946  50.446  1.00  0.00    -0.065 NA
HETATM   11  C   UNL     1      25.676  47.111  50.714  1.00  0.00     0.051 A 
HETATM   12  C   UNL     1      26.277  46.231  51.767  1.00  0.00     0.071 C 
HETATM   13  C   UNL     1      26.454  48.046  50.061  1.00  0.00     0.054 A 
HETATM   14  C   UNL     1      25.826  48.813  49.099  1.00  0.00     0.051 A 
HETATM   15  N   UNL     1      24.522  48.667  48.799  1.00  0.00    -0.065 NA
HETATM   16  C   UNL     1      26.591  49.856  48.343  1.00  0.00     0.071 C 
ENDBRANCH   1   9
BRANCH   6  17
HETATM   17  C   UNL     1      21.059  50.896  49.946  1.00  0.00     0.142 C 
BRANCH  17  18
HETATM   18  C   UNL     1      20.494  51.655  48.740  1.00  0.00     0.061 C 
BRANCH  18  19
HETATM   19  C   UNL     1      19.016  51.859  48.839  1.00  0.00    -0.029 A 
HETATM   20  C   UNL     1      18.072  51.777  47.765  1.00  0.00    -0.002 A 
HETATM   21  C   UNL     1      16.810  52.044  48.295  1.00  0.00     0.042 A 
HETATM   22  C   UNL     1      18.177  51.505  46.384  1.00  0.00     0.014 A 
HETATM   23  C   UNL     1      15.647  52.053  47.517  1.00  0.00     0.030 A 
HETATM   24  N   UNL     1      16.978  52.278  49.640  1.00  0.00    -0.365 N 
HETATM   25  C   UNL     1      15.779  51.783  46.152  1.00  0.00     0.002 A 
HETATM   26  C   UNL     1      17.024  51.511  45.591  1.00  0.00     0.001 A 
HETATM   27  H   UNL     1      16.229  52.504  50.279  1.00  0.00     0.165 HD
HETATM   28  C   UNL     1      18.300  52.167  49.979  1.00  0.00     0.096 A 
ENDBRANCH  18  19
ENDBRANCH  17  18
ENDBRANCH   6  17
BRANCH   4  29
HETATM   29  C   UNL     1      18.284  47.298  47.957  1.00  0.00     0.031 C 
HETATM   30  C   UNL     1      17.536  45.959  48.056  1.00  0.00     0.025 C 
HETATM   31  C   UNL     1      17.590  48.307  48.892  1.00  0.00     0.025 C 
HETATM   32  C   UNL     1      18.220  47.838  46.520  1.00  0.00     0.025 C 
ENDBRANCH   4  29
TORSDOF 5
ENDMDL
MODEL 9
REMARK VINA RESULT:      -8.8      3.048      5.683
REMARK  5 active torsions:
REMARK  status: ('A' for Active; 'I' for Inactive)
REMARK    1  A    between atoms: C_4  and  N_5 
REMARK       I    between atoms: C_6  and  N_7 
REMARK       I    between atoms: C_6  and  N_14 
REMARK       I    between atoms: N_7  and  C_8 
REMARK    2  A    between atoms: C_8  and  C_9 
REMARK    3  A    between atoms: N_14  and  C_15 
REMARK    4  A    between atoms: C_15  and  C_16 
REMARK    5  A    between atoms: C_16  and  C_17 
ROOT
HETATM    1  N   UNL     1      24.720  47.665  51.141  1.00  0.00     0.130 NA
HETATM    2  C   UNL     1      25.778  46.927  51.161  1.00  0.00     0.718 C 
HETATM    3  N   UNL     1      26.473  46.800  52.351  1.00  0.00    -0.157 N 
HETATM    4  C   UNL     1      26.183  47.346  53.603  1.00  0.00     0.243 C 
HETATM    5  O   UNL     1      25.165  47.968  53.890  1.00  0.00    -0.272 OA
HETATM    6  N   UNL     1      26.299  46.256  50.081  1.00  0.00    -0.223 N 
HETATM    7  H   UNL     1      27.329  46.284  52.276  1.00  0.00     0.187 HD
HETATM    8  H   UNL     1      25.607  46.222  49.327  1.00  0.00     0.177 HD
ENDROOT
BRANCH   1   9
HETATM    9  C   UNL     1      23.974  47.866  49.987  1.00  0.00     0.764 A 
HETATM   10  N   UNL     1      23.859  49.116  49.490  1.00  0.00    -0.065 NA
HETATM   11  C   UNL     1      23.153  49.247  48.349  1.00  0.00     0.051 A 
HETATM   12  C   UNL     1      23.030  50.624  47.772  1.00  0.00     0.071 C 
HETATM   13  C   UNL     1      22.557  48.172  47.719  1.00  0.00     0.054 A 
HETATM   14  C   UNL     1      22.723  46.936  48.311  1.00  0.00     0.051 A 
HETATM   15  N   UNL     1      23.431  46.768  49.444  1.00  0.00    -0.065 NA
HETATM   16  C   UNL     1      22.108  45.714  47.700  1.00  0.00     0.071 C 
ENDBRANCH   1   9
BRANCH   6  17
HETATM   17  C   UNL     1      27.192  45.112  50.102  1.00  0.00     0.142 C 
BRANCH  17  18
HETATM   18  C   UNL     1      26.431  43.838  49.717  1.00  0.00     0.061 C 
BRANCH  18  19
HETATM   19  C   UNL     1      26.708  42.706  50.653  1.00  0.00    -0.029 A 
HETATM   20  C   UNL     1      27.723  42.664  51.662  1.00  0.00    -0.002 A 
HETATM   21  C   UNL     1      27.636  41.424  52.294  1.00  0.00     0.042 A 
HETATM   22  C   UNL     1      28.716  43.570  52.094  1.00  0.00     0.014 A 
HETATM   23  C   UNL     1      28.490  41.041  53.335  1.00  0.00     0.030 A 
HETATM   24  N   UNL     1      26.606  40.737  51.695  1.00  0.00    -0.365 N 
HETATM   25  C   UNL     1      29.465  41.956  53.742  1.00  0.00     0.002 A 
HETATM   26  C   UNL     1      29.579  43.203  53.133  1.00  0.00     0.001 A 
HETATM   27  H   UNL     1      26.318  39.802  51.948  1.00  0.00     0.165 HD
HETATM   28  C   UNL     1      26.039  41.499  50.708  1.00  0.00     0.096 A 
ENDBRANCH  18  19
ENDBRANCH  17  18
ENDBRANCH   6  17
BRANCH   4  29
HETATM   29  C   UNL     1      27.255  47.033  54.675  1.00  0.00     0.031 C 
HETATM   30  C   UNL     1      28.624  47.593  54.258  1.00  0.00     0.025 C 
HETATM   31  C   UNL     1      26.851  47.689  56.008  1.00  0.00     0.025 C 
HETATM   32  C   UNL     1      27.344  45.514  54.884  1.00  0.00     0.025 C 
ENDBRANCH   4  29
TORSDOF 5
ENDMDL
MODEL 10
REMARK VINA RESULT:      -8.8     12.280     15.341
REMARK  5 active torsions:
REMARK  status: ('A' for Active; 'I' for Inactive)
REMARK    1  A    between atoms: C_4  and  N_5 
REMARK       I    between atoms: C_6  and  N_7 
REMARK       I    between atoms: C_6  and  N_14 
REMARK       I    between atoms: N_7  and  C_8 
REMARK    2  A    between atoms: C_8  and  C_9 
REMARK    3  A    between atoms: N_14  and  C_15 
REMARK    4  A    between atoms: C_15  and  C_16 
REMARK    5  A    between atoms: C_16  and  C_17 
ROOT
HETATM    1  N   UNL     1      33.326  52.119  39.479  1.00  0.00     0.130 NA
HETATM    2  C   UNL     1      32.438  52.109  40.414  1.00  0.00     0.718 C 
HETATM    3  N   UNL     1      31.106  51.995  40.059  1.00  0.00    -0.157 N 
HETATM    4  C   UNL     1      30.542  51.853  38.790  1.00  0.00     0.243 C 
HETATM    5  O   UNL     1      31.166  51.694  37.746  1.00  0.00    -0.272 OA
HETATM    6  N   UNL     1      32.699  52.223  41.759  1.00  0.00    -0.223 N 
HETATM    7  H   UNL     1      30.465  52.080  40.826  1.00  0.00     0.187 HD
HETATM    8  H   UNL     1      33.697  52.071  41.932  1.00  0.00     0.177 HD
ENDROOT
BRANCH   1   9
HETATM    9  C   UNL     1      34.684  52.252  39.741  1.00  0.00     0.764 A 
HETATM   10  N   UNL     1      35.256  51.441  40.656  1.00  0.00    -0.065 NA
HETATM   11  C   UNL     1      36.583  51.590  40.845  1.00  0.00     0.051 A 
HETATM   12  C   UNL     1      37.240  50.686  41.843  1.00  0.00     0.071 C 
HETATM   13  C   UNL     1      37.328  52.528  40.160  1.00  0.00     0.054 A 
HETATM   14  C   UNL     1      36.649  53.317  39.252  1.00  0.00     0.051 A 
HETATM   15  N   UNL     1      35.328  53.188  39.031  1.00  0.00    -0.065 NA
HETATM   16  C   UNL     1      37.375  54.366  38.466  1.00  0.00     0.071 C 
ENDBRANCH   1   9
BRANCH   6  17
HETATM   17  C   UNL     1      31.848  51.808  42.859  1.00  0.00     0.142 C 
BRANCH  17  18
HETATM   18  C   UNL     1      32.215  50.389  43.308  1.00  0.00     0.061 C 
BRANCH  18  19
HETATM   19  C   UNL     1      32.010  49.380  42.226  1.00  0.00    -0.029 A 
HETATM   20  C   UNL     1      30.754  48.864  41.770  1.00  0.00    -0.002 A 
HETATM   21  C   UNL     1      31.022  47.942  40.758  1.00  0.00     0.042 A 
HETATM   22  C   UNL     1      29.409  49.094  42.130  1.00  0.00     0.014 A 
HETATM   23  C   UNL     1      30.015  47.238  40.087  1.00  0.00     0.030 A 
HETATM   24  N   UNL     1      32.388  47.899  40.602  1.00  0.00    -0.365 N 
HETATM   25  C   UNL     1      28.692  47.483  40.465  1.00  0.00     0.002 A 
HETATM   26  C   UNL     1      28.390  48.398  41.471  1.00  0.00     0.001 A 
HETATM   27  H   UNL     1      32.870  47.309  39.938  1.00  0.00     0.165 HD
HETATM   28  C   UNL     1      32.993  48.761  41.478  1.00  0.00     0.096 A 
ENDBRANCH  18  19
ENDBRANCH  17  18
ENDBRANCH   6  17
BRANCH   4  29
HETATM   29  C   UNL     1      28.993  51.835  38.803  1.00  0.00     0.031 C 
HETATM   30  C   UNL     1      28.459  50.472  38.335  1.00  0.00     0.025 C 
HETATM   31  C   UNL     1      28.492  52.083  40.238  1.00  0.00     0.025 C 
HETATM   32  C   UNL     1      28.458  52.955  37.897  1.00  0.00     0.025 C 
ENDBRANCH   4  29
TORSDOF 5
ENDMDL
