MODEL 1
REMARK VINA RESULT:      -8.4      0.000      0.000
REMARK  5 active torsions:
REMARK  status: ('A' for Active; 'I' for Inactive)
REMARK    1  A    between atoms: C_2  and  N_3 
REMARK    2  A    between atoms: C_11  and  C_12 
REMARK    3  A    between atoms: C_14  and  C_15 
REMARK    4  A    between atoms: C_15  and  O_16 
REMARK    5  A    between atoms: O_16  and  C_17 
ROOT
HETATM    1  N   UNL     1      29.252  45.222  37.258  1.00  0.00    -0.067 N 
HETATM    2  H   UNL     1      30.037  45.860  37.069  1.00  0.00     0.280 HD
HETATM    3  C   UNL     1      27.983  46.013  36.940  1.00  0.00     0.281 C 
HETATM    4  C   UNL     1      27.739  47.065  37.964  1.00  0.00     0.018 A 
HETATM    5  C   UNL     1      28.359  47.140  39.198  1.00  0.00    -0.023 A 
HETATM    6  C   UNL     1      27.879  48.256  39.953  1.00  0.00     0.073 A 
HETATM    7  C   UNL     1      26.914  48.956  39.267  1.00  0.00     0.088 A 
HETATM    8  N   UNL     1      26.290  50.045  39.773  1.00  0.00    -0.357 N 
HETATM    9  C   UNL     1      26.972  50.768  40.838  1.00  0.00     0.243 C 
HETATM   10  N   UNL     1      27.603  49.822  41.727  1.00  0.00    -0.330 N 
HETATM   11  C   UNL     1      28.248  48.699  41.284  1.00  0.00     0.256 C 
HETATM   12  O   UNL     1      29.054  48.099  41.987  1.00  0.00    -0.267 OA
HETATM   13  S   UNL     1      26.599  48.308  37.729  1.00  0.00    -0.074 SA
HETATM   14  C   UNL     1      29.398  46.144  39.610  1.00  0.00     0.068 C 
HETATM   15  C   UNL     1      29.327  44.872  38.748  1.00  0.00     0.240 C 
HETATM   16  H   UNL     1      25.866  50.680  39.099  1.00  0.00     0.162 HD
HETATM   17  H   UNL     1      27.901  50.147  42.633  1.00  0.00     0.165 HD
ENDROOT
BRANCH   9  18
HETATM   18  C   UNL     1      27.978  51.788  40.388  1.00  0.00     0.095 A 
HETATM   19  O   UNL     1      28.886  52.211  41.322  1.00  0.00    -0.313 OA
HETATM   20  C   UNL     1      29.699  53.125  40.718  1.00  0.00     0.077 A 
HETATM   21  C   UNL     1      29.340  53.271  39.395  1.00  0.00     0.037 A 
HETATM   22  C   UNL     1      28.239  52.407  39.180  1.00  0.00     0.039 A 
BRANCH  20  23
HETATM   23  C   UNL     1      30.776  53.722  41.551  1.00  0.00     0.240 C 
BRANCH  23  24
HETATM   24  O   UNL     1      32.025  53.206  41.066  1.00  0.00    -0.341 OA
BRANCH  24  25
HETATM   25  C   UNL     1      32.130  51.845  41.214  1.00  0.00     0.112 A 
HETATM   26  C   UNL     1      32.165  51.218  42.467  1.00  0.00     0.070 A 
HETATM   27 CL   UNL     1      32.082  52.106  43.946  1.00  0.00    -0.081 Cl
HETATM   28  C   UNL     1      32.311  49.830  42.559  1.00  0.00     0.050 A 
HETATM   29  C   UNL     1      32.448  49.072  41.401  1.00  0.00     0.037 A 
HETATM   30 CL   UNL     1      32.640  47.367  41.517  1.00  0.00    -0.084 Cl
HETATM   31  C   UNL     1      32.451  49.682  40.149  1.00  0.00     0.050 A 
HETATM   32  C   UNL     1      32.301  51.067  40.059  1.00  0.00     0.070 A 
HETATM   33 CL   UNL     1      32.335  51.790  38.489  1.00  0.00    -0.081 Cl
ENDBRANCH  24  25
ENDBRANCH  23  24
ENDBRANCH  20  23
ENDBRANCH   9  18
BRANCH   1  34
HETATM   34  C   UNL     1      29.422  43.996  36.397  1.00  0.00     0.231 C 
HETATM   35  C   UNL     1      29.524  42.740  37.244  1.00  0.00     0.034 C 
ENDBRANCH   1  34
TORSDOF 5
ENDMDL
MODEL 2
REMARK VINA RESULT:      -8.3     11.340     13.385
REMARK  5 active torsions:
REMARK  status: ('A' for Active; 'I' for Inactive)
REMARK    1  A    between atoms: C_2  and  N_3 
REMARK    2  A    between atoms: C_11  and  C_12 
REMARK    3  A    between atoms: C_14  and  C_15 
REMARK    4  A    between atoms: C_15  and  O_16 
REMARK    5  A    between atoms: O_16  and  C_17 
ROOT
HETATM    1  N   UNL     1      15.861  48.809  45.598  1.00  0.00    -0.067 N 
HETATM    2  H   UNL     1      16.679  48.383  45.143  1.00  0.00     0.280 HD
HETATM    3  C   UNL     1      16.231  50.272  45.841  1.00  0.00     0.281 C 
HETATM    4  C   UNL     1      17.247  50.393  46.923  1.00  0.00     0.018 A 
HETATM    5  C   UNL     1      17.590  49.393  47.814  1.00  0.00    -0.023 A 
HETATM    6  C   UNL     1      18.579  49.844  48.744  1.00  0.00     0.073 A 
HETATM    7  C   UNL     1      18.921  51.159  48.525  1.00  0.00     0.088 A 
HETATM    8  N   UNL     1      19.823  51.825  49.283  1.00  0.00    -0.357 N 
HETATM    9  C   UNL     1      20.790  51.025  50.022  1.00  0.00     0.243 C 
HETATM   10  N   UNL     1      20.135  49.852  50.548  1.00  0.00    -0.330 N 
HETATM   11  C   UNL     1      19.211  49.132  49.839  1.00  0.00     0.256 C 
HETATM   12  O   UNL     1      18.922  47.979  50.140  1.00  0.00    -0.267 OA
HETATM   13  S   UNL     1      18.091  51.844  47.210  1.00  0.00    -0.074 SA
HETATM   14  C   UNL     1      16.966  48.035  47.739  1.00  0.00     0.068 C 
HETATM   15  C   UNL     1      15.664  48.061  46.922  1.00  0.00     0.240 C 
HETATM   16  H   UNL     1      20.255  52.643  48.859  1.00  0.00     0.162 HD
HETATM   17  H   UNL     1      20.601  49.333  51.276  1.00  0.00     0.165 HD
ENDROOT
BRANCH   9  18
HETATM   18  C   UNL     1      22.016  50.619  49.256  1.00  0.00     0.095 A 
HETATM   19  O   UNL     1      22.837  49.698  49.850  1.00  0.00    -0.313 OA
HETATM   20  C   UNL     1      23.879  49.470  49.000  1.00  0.00     0.077 A 
HETATM   21  C   UNL     1      23.719  50.215  47.851  1.00  0.00     0.037 A 
HETATM   22  C   UNL     1      22.519  50.948  48.011  1.00  0.00     0.039 A 
BRANCH  20  23
HETATM   23  C   UNL     1      24.905  48.487  49.440  1.00  0.00     0.240 C 
BRANCH  23  24
HETATM   24  O   UNL     1      24.372  47.798  50.581  1.00  0.00    -0.341 OA
BRANCH  24  25
HETATM   25  C   UNL     1      24.738  46.475  50.620  1.00  0.00     0.112 A 
HETATM   26  C   UNL     1      24.135  45.496  49.817  1.00  0.00     0.070 A 
HETATM   27 CL   UNL     1      22.869  45.869  48.704  1.00  0.00    -0.081 Cl
HETATM   28  C   UNL     1      24.521  44.157  49.926  1.00  0.00     0.050 A 
HETATM   29  C   UNL     1      25.491  43.791  50.853  1.00  0.00     0.037 A 
HETATM   30 CL   UNL     1      25.956  42.141  50.994  1.00  0.00    -0.084 Cl
HETATM   31  C   UNL     1      26.075  44.744  51.684  1.00  0.00     0.050 A 
HETATM   32  C   UNL     1      25.691  46.082  51.572  1.00  0.00     0.070 A 
HETATM   33 CL   UNL     1      26.421  47.231  52.637  1.00  0.00    -0.081 Cl
ENDBRANCH  24  25
ENDBRANCH  23  24
ENDBRANCH  20  23
ENDBRANCH   9  18
BRANCH   1  34
HETATM   34  C   UNL     1      14.671  48.637  44.689  1.00  0.00     0.231 C 
HETATM   35  C   UNL     1      13.423  48.286  45.478  1.00  0.00     0.034 C 
ENDBRANCH   1  34
TORSDOF 5
ENDMDL
MODEL 3
REMARK VINA RESULT:      -8.1     12.061     13.635
REMARK  5 active torsions:
REMARK  status: ('A' for Active; 'I' for Inactive)
REMARK    1  A    between atoms: C_2  and  N_3 
REMARK    2  A    between atoms: C_11  and  C_12 
REMARK    3  A    between atoms: C_14  and  C_15 
REMARK    4  A    between atoms: C_15  and  O_16 
REMARK    5  A    between atoms: O_16  and  C_17 
ROOT
HETATM    1  N   UNL     1      28.810  38.541  44.487  1.00  0.00    -0.067 N 
HETATM    2  H   UNL     1      29.479  39.252  44.809  1.00  0.00     0.280 HD
HETATM    3  C   UNL     1      27.440  39.219  44.495  1.00  0.00     0.281 C 
HETATM    4  C   UNL     1      26.962  39.441  45.887  1.00  0.00     0.018 A 
HETATM    5  C   UNL     1      27.495  38.852  47.019  1.00  0.00    -0.023 A 
HETATM    6  C   UNL     1      26.787  39.256  48.196  1.00  0.00     0.073 A 
HETATM    7  C   UNL     1      25.751  40.111  47.897  1.00  0.00     0.088 A 
HETATM    8  N   UNL     1      24.920  40.622  48.835  1.00  0.00    -0.357 N 
HETATM    9  C   UNL     1      25.408  40.660  50.207  1.00  0.00     0.243 C 
HETATM   10  N   UNL     1      26.148  39.452  50.482  1.00  0.00    -0.330 N 
HETATM   11  C   UNL     1      27.003  38.879  49.580  1.00  0.00     0.256 C 
HETATM   12  O   UNL     1      27.865  38.078  49.925  1.00  0.00    -0.267 OA
HETATM   13  S   UNL     1      25.635  40.449  46.236  1.00  0.00    -0.074 SA
HETATM   14  C   UNL     1      28.669  37.928  46.939  1.00  0.00     0.068 C 
HETATM   15  C   UNL     1      28.867  37.399  45.508  1.00  0.00     0.240 C 
HETATM   16  H   UNL     1      24.426  41.477  48.587  1.00  0.00     0.162 HD
HETATM   17  H   UNL     1      26.337  39.219  51.445  1.00  0.00     0.165 HD
ENDROOT
BRANCH   9  18
HETATM   18  C   UNL     1      26.242  41.856  50.566  1.00  0.00     0.095 A 
HETATM   19  O   UNL     1      26.197  42.270  51.870  1.00  0.00    -0.313 OA
HETATM   20  C   UNL     1      27.013  43.357  51.983  1.00  0.00     0.077 A 
HETATM   21  C   UNL     1      27.605  43.627  50.768  1.00  0.00     0.037 A 
HETATM   22  C   UNL     1      27.117  42.660  49.858  1.00  0.00     0.039 A 
BRANCH  20  23
HETATM   23  C   UNL     1      27.125  43.978  53.330  1.00  0.00     0.240 C 
BRANCH  23  24
HETATM   24  O   UNL     1      28.277  44.833  53.310  1.00  0.00    -0.341 OA
BRANCH  24  25
HETATM   25  C   UNL     1      29.004  44.772  54.473  1.00  0.00     0.112 A 
HETATM   26  C   UNL     1      28.861  45.706  55.508  1.00  0.00     0.070 A 
HETATM   27 CL   UNL     1      27.753  47.027  55.411  1.00  0.00    -0.081 Cl
HETATM   28  C   UNL     1      29.654  45.616  56.656  1.00  0.00     0.050 A 
HETATM   29  C   UNL     1      30.609  44.610  56.759  1.00  0.00     0.037 A 
HETATM   30 CL   UNL     1      31.593  44.509  58.166  1.00  0.00    -0.084 Cl
HETATM   31  C   UNL     1      30.790  43.695  55.725  1.00  0.00     0.050 A 
HETATM   32  C   UNL     1      29.994  43.782  54.582  1.00  0.00     0.070 A 
HETATM   33 CL   UNL     1      30.265  42.643  53.310  1.00  0.00    -0.081 Cl
ENDBRANCH  24  25
ENDBRANCH  23  24
ENDBRANCH  20  23
ENDBRANCH   9  18
BRANCH   1  34
HETATM   34  C   UNL     1      29.238  38.075  43.118  1.00  0.00     0.231 C 
HETATM   35  C   UNL     1      30.689  38.427  42.847  1.00  0.00     0.034 C 
ENDBRANCH   1  34
TORSDOF 5
ENDMDL
MODEL 4
REMARK VINA RESULT:      -7.8     13.032     15.126
REMARK  5 active torsions:
REMARK  status: ('A' for Active; 'I' for Inactive)
REMARK    1  A    between atoms: C_2  and  N_3 
REMARK    2  A    between atoms: C_11  and  C_12 
REMARK    3  A    between atoms: C_14  and  C_15 
REMARK    4  A    between atoms: C_15  and  O_16 
REMARK    5  A    between atoms: O_16  and  C_17 
ROOT
HETATM    1  N   UNL     1      18.406  45.380  44.415  1.00  0.00    -0.067 N 
HETATM    2  H   UNL     1      18.283  46.326  44.030  1.00  0.00     0.280 HD
HETATM    3  C   UNL     1      17.524  45.317  45.662  1.00  0.00     0.281 C 
HETATM    4  C   UNL     1      18.095  46.141  46.762  1.00  0.00     0.018 A 
HETATM    5  C   UNL     1      19.383  46.643  46.800  1.00  0.00    -0.023 A 
HETATM    6  C   UNL     1      19.621  47.370  48.010  1.00  0.00     0.073 A 
HETATM    7  C   UNL     1      18.516  47.368  48.829  1.00  0.00     0.088 A 
HETATM    8  N   UNL     1      18.492  47.972  50.040  1.00  0.00    -0.357 N 
HETATM    9  C   UNL     1      19.462  49.034  50.273  1.00  0.00     0.243 C 
HETATM   10  N   UNL     1      20.724  48.664  49.678  1.00  0.00    -0.330 N 
HETATM   11  C   UNL     1      20.822  48.048  48.459  1.00  0.00     0.256 C 
HETATM   12  O   UNL     1      21.867  48.048  47.818  1.00  0.00    -0.267 OA
HETATM   13  S   UNL     1      17.200  46.531  48.157  1.00  0.00    -0.074 SA
HETATM   14  C   UNL     1      20.342  46.417  45.673  1.00  0.00     0.068 C 
HETATM   15  C   UNL     1      19.889  45.250  44.779  1.00  0.00     0.240 C 
HETATM   16  H   UNL     1      17.575  48.213  50.409  1.00  0.00     0.162 HD
HETATM   17  H   UNL     1      21.549  49.172  49.958  1.00  0.00     0.165 HD
ENDROOT
BRANCH   9  18
HETATM   18  C   UNL     1      19.058  50.398  49.794  1.00  0.00     0.095 A 
HETATM   19  O   UNL     1      17.854  50.876  50.238  1.00  0.00    -0.313 OA
HETATM   20  C   UNL     1      17.679  52.114  49.692  1.00  0.00     0.077 A 
HETATM   21  C   UNL     1      18.773  52.447  48.923  1.00  0.00     0.037 A 
HETATM   22  C   UNL     1      19.663  51.349  48.993  1.00  0.00     0.039 A 
BRANCH  20  23
HETATM   23  C   UNL     1      16.426  52.834  50.046  1.00  0.00     0.240 C 
BRANCH  23  24
HETATM   24  O   UNL     1      15.366  52.248  49.276  1.00  0.00    -0.341 OA
BRANCH  24  25
HETATM   25  C   UNL     1      14.984  53.031  48.216  1.00  0.00     0.112 A 
HETATM   26  C   UNL     1      14.214  54.193  48.368  1.00  0.00     0.070 A 
HETATM   27 CL   UNL     1      13.672  54.744  49.912  1.00  0.00    -0.081 Cl
HETATM   28  C   UNL     1      13.822  54.933  47.249  1.00  0.00     0.050 A 
HETATM   29  C   UNL     1      14.176  54.499  45.975  1.00  0.00     0.037 A 
HETATM   30 CL   UNL     1      13.682  55.403  44.598  1.00  0.00    -0.084 Cl
HETATM   31  C   UNL     1      14.910  53.328  45.803  1.00  0.00     0.050 A 
HETATM   32  C   UNL     1      15.304  52.592  46.921  1.00  0.00     0.070 A 
HETATM   33 CL   UNL     1      16.192  51.132  46.665  1.00  0.00    -0.081 Cl
ENDBRANCH  24  25
ENDBRANCH  23  24
ENDBRANCH  20  23
ENDBRANCH   9  18
BRANCH   1  34
HETATM   34  C   UNL     1      18.012  44.384  43.354  1.00  0.00     0.231 C 
HETATM   35  C   UNL     1      17.288  43.195  43.960  1.00  0.00     0.034 C 
ENDBRANCH   1  34
TORSDOF 5
ENDMDL
MODEL 5
REMARK VINA RESULT:      -7.8      6.789      9.236
REMARK  5 active torsions:
REMARK  status: ('A' for Active; 'I' for Inactive)
REMARK    1  A    between atoms: C_2  and  N_3 
REMARK    2  A    between atoms: C_11  and  C_12 
REMARK    3  A    between atoms: C_14  and  C_15 
REMARK    4  A    between atoms: C_15  and  O_16 
REMARK    5  A    between atoms: O_16  and  C_17 
ROOT
HETATM    1  N   UNL     1      29.886  52.199  40.208  1.00  0.00    -0.067 N 
HETATM    2  H   UNL     1      30.200  53.154  40.429  1.00  0.00     0.280 HD
HETATM    3  C   UNL     1      30.324  51.332  41.389  1.00  0.00     0.281 C 
HETATM    4  C   UNL     1      31.801  51.146  41.397  1.00  0.00     0.018 A 
HETATM    5  C   UNL     1      32.648  51.427  40.340  1.00  0.00    -0.023 A 
HETATM    6  C   UNL     1      34.005  51.110  40.665  1.00  0.00     0.073 A 
HETATM    7  C   UNL     1      34.115  50.591  41.934  1.00  0.00     0.088 A 
HETATM    8  N   UNL     1      35.293  50.196  42.472  1.00  0.00    -0.357 N 
HETATM    9  C   UNL     1      36.508  50.762  41.902  1.00  0.00     0.243 C 
HETATM   10  N   UNL     1      36.365  50.850  40.468  1.00  0.00    -0.330 N 
HETATM   11  C   UNL     1      35.203  51.239  39.858  1.00  0.00     0.256 C 
HETATM   12  O   UNL     1      35.185  51.635  38.697  1.00  0.00    -0.267 OA
HETATM   13  S   UNL     1      32.624  50.505  42.743  1.00  0.00    -0.074 SA
HETATM   14  C   UNL     1      32.131  51.999  39.057  1.00  0.00     0.068 C 
HETATM   15  C   UNL     1      30.613  51.790  38.923  1.00  0.00     0.240 C 
HETATM   16  H   UNL     1      35.337  50.155  43.488  1.00  0.00     0.162 HD
HETATM   17  H   UNL     1      37.196  50.988  39.915  1.00  0.00     0.165 HD
ENDROOT
BRANCH   9  18
HETATM   18  C   UNL     1      36.922  52.096  42.451  1.00  0.00     0.095 A 
HETATM   19  O   UNL     1      37.032  52.195  43.812  1.00  0.00    -0.313 OA
HETATM   20  C   UNL     1      37.413  53.473  44.100  1.00  0.00     0.077 A 
HETATM   21  C   UNL     1      37.576  54.188  42.933  1.00  0.00     0.037 A 
HETATM   22  C   UNL     1      37.268  53.304  41.873  1.00  0.00     0.039 A 
BRANCH  20  23
HETATM   23  C   UNL     1      37.602  53.812  45.536  1.00  0.00     0.240 C 
BRANCH  23  24
HETATM   24  O   UNL     1      38.341  52.737  46.133  1.00  0.00    -0.341 OA
BRANCH  24  25
HETATM   25  C   UNL     1      39.564  53.135  46.615  1.00  0.00     0.112 A 
HETATM   26  C   UNL     1      40.759  52.937  45.910  1.00  0.00     0.070 A 
HETATM   27 CL   UNL     1      40.801  52.166  44.365  1.00  0.00    -0.081 Cl
HETATM   28  C   UNL     1      41.980  53.330  46.465  1.00  0.00     0.050 A 
HETATM   29  C   UNL     1      42.011  53.897  47.735  1.00  0.00     0.037 A 
HETATM   30 CL   UNL     1      43.516  54.367  48.422  1.00  0.00    -0.084 Cl
HETATM   31  C   UNL     1      40.837  54.068  48.465  1.00  0.00     0.050 A 
HETATM   32  C   UNL     1      39.618  53.680  47.908  1.00  0.00     0.070 A 
HETATM   33 CL   UNL     1      38.186  53.886  48.854  1.00  0.00    -0.081 Cl
ENDBRANCH  24  25
ENDBRANCH  23  24
ENDBRANCH  20  23
ENDBRANCH   9  18
BRANCH   1  34
HETATM   34  C   UNL     1      28.392  52.226  40.009  1.00  0.00     0.231 C 
HETATM   35  C   UNL     1      27.667  52.449  41.324  1.00  0.00     0.034 C 
ENDBRANCH   1  34
TORSDOF 5
ENDMDL
MODEL 6
REMARK VINA RESULT:      -7.8     11.629     13.067
REMARK  5 active torsions:
REMARK  status: ('A' for Active; 'I' for Inactive)
REMARK    1  A    between atoms: C_2  and  N_3 
REMARK    2  A    between atoms: C_11  and  C_12 
REMARK    3  A    between atoms: C_14  and  C_15 
REMARK    4  A    between atoms: C_15  and  O_16 
REMARK    5  A    between atoms: O_16  and  C_17 
ROOT
HETATM    1  N   UNL     1      27.803  39.715  45.239  1.00  0.00    -0.067 N 
HETATM    2  H   UNL     1      28.396  40.544  45.376  1.00  0.00     0.280 HD
HETATM    3  C   UNL     1      26.370  40.237  45.128  1.00  0.00     0.281 C 
HETATM    4  C   UNL     1      25.874  40.720  46.446  1.00  0.00     0.018 A 
HETATM    5  C   UNL     1      26.466  40.460  47.668  1.00  0.00    -0.023 A 
HETATM    6  C   UNL     1      25.723  41.047  48.740  1.00  0.00     0.073 A 
HETATM    7  C   UNL     1      24.604  41.704  48.282  1.00  0.00     0.088 A 
HETATM    8  N   UNL     1      23.726  42.329  49.101  1.00  0.00    -0.357 N 
HETATM    9  C   UNL     1      24.210  42.726  50.417  1.00  0.00     0.243 C 
HETATM   10  N   UNL     1      25.071  41.692  50.939  1.00  0.00    -0.330 N 
HETATM   11  C   UNL     1      25.979  41.017  50.168  1.00  0.00     0.256 C 
HETATM   12  O   UNL     1      26.918  40.405  50.664  1.00  0.00    -0.267 OA
HETATM   13  S   UNL     1      24.451  41.644  46.591  1.00  0.00    -0.074 SA
HETATM   14  C   UNL     1      27.729  39.663  47.768  1.00  0.00     0.068 C 
HETATM   15  C   UNL     1      27.978  38.846  46.490  1.00  0.00     0.240 C 
HETATM   16  H   UNL     1      23.147  43.052  48.679  1.00  0.00     0.162 HD
HETATM   17  H   UNL     1      25.284  41.703  51.924  1.00  0.00     0.165 HD
ENDROOT
BRANCH   9  18
HETATM   18  C   UNL     1      24.917  44.049  50.476  1.00  0.00     0.095 A 
HETATM   19  O   UNL     1      25.255  44.512  51.719  1.00  0.00    -0.313 OA
HETATM   20  C   UNL     1      25.880  45.713  51.553  1.00  0.00     0.077 A 
HETATM   21  C   UNL     1      25.972  46.012  50.210  1.00  0.00     0.037 A 
HETATM   22  C   UNL     1      25.360  44.941  49.517  1.00  0.00     0.039 A 
BRANCH  20  23
HETATM   23  C   UNL     1      26.346  46.406  52.783  1.00  0.00     0.240 C 
BRANCH  23  24
HETATM   24  O   UNL     1      26.261  45.463  53.861  1.00  0.00    -0.341 OA
BRANCH  24  25
HETATM   25  C   UNL     1      27.486  45.170  54.409  1.00  0.00     0.112 A 
HETATM   26  C   UNL     1      28.151  43.958  54.177  1.00  0.00     0.070 A 
HETATM   27 CL   UNL     1      27.483  42.716  53.179  1.00  0.00    -0.081 Cl
HETATM   28  C   UNL     1      29.380  43.698  54.790  1.00  0.00     0.050 A 
HETATM   29  C   UNL     1      29.932  44.637  55.655  1.00  0.00     0.037 A 
HETATM   30 CL   UNL     1      31.438  44.309  56.419  1.00  0.00    -0.084 Cl
HETATM   31  C   UNL     1      29.268  45.831  55.925  1.00  0.00     0.050 A 
HETATM   32  C   UNL     1      28.044  46.091  55.309  1.00  0.00     0.070 A 
HETATM   33 CL   UNL     1      27.239  47.573  55.688  1.00  0.00    -0.081 Cl
ENDBRANCH  24  25
ENDBRANCH  23  24
ENDBRANCH  20  23
ENDBRANCH   9  18
BRANCH   1  34
HETATM   34  C   UNL     1      28.274  38.995  44.001  1.00  0.00     0.231 C 
HETATM   35  C   UNL     1      29.262  39.840  43.218  1.00  0.00     0.034 C 
ENDBRANCH   1  34
TORSDOF 5
ENDMDL
MODEL 7
REMARK VINA RESULT:      -7.7     11.195     12.835
REMARK  5 active torsions:
REMARK  status: ('A' for Active; 'I' for Inactive)
REMARK    1  A    between atoms: C_2  and  N_3 
REMARK    2  A    between atoms: C_11  and  C_12 
REMARK    3  A    between atoms: C_14  and  C_15 
REMARK    4  A    between atoms: C_15  and  O_16 
REMARK    5  A    between atoms: O_16  and  C_17 
ROOT
HETATM    1  N   UNL     1      27.702  41.660  43.112  1.00  0.00    -0.067 N 
HETATM    2  H   UNL     1      27.820  42.611  43.485  1.00  0.00     0.280 HD
HETATM    3  C   UNL     1      26.304  41.212  43.540  1.00  0.00     0.281 C 
HETATM    4  C   UNL     1      26.254  40.946  45.004  1.00  0.00     0.018 A 
HETATM    5  C   UNL     1      27.353  40.803  45.830  1.00  0.00    -0.023 A 
HETATM    6  C   UNL     1      26.958  40.527  47.177  1.00  0.00     0.073 A 
HETATM    7  C   UNL     1      25.590  40.458  47.301  1.00  0.00     0.088 A 
HETATM    8  N   UNL     1      24.966  40.192  48.472  1.00  0.00    -0.357 N 
HETATM    9  C   UNL     1      25.708  40.456  49.697  1.00  0.00     0.243 C 
HETATM   10  N   UNL     1      27.086  40.068  49.511  1.00  0.00    -0.330 N 
HETATM   11  C   UNL     1      27.777  40.303  48.353  1.00  0.00     0.256 C 
HETATM   12  O   UNL     1      29.003  40.288  48.319  1.00  0.00    -0.267 OA
HETATM   13  S   UNL     1      24.781  40.742  45.835  1.00  0.00    -0.074 SA
HETATM   14  C   UNL     1      28.747  40.944  45.303  1.00  0.00     0.068 C 
HETATM   15  C   UNL     1      28.784  40.798  43.772  1.00  0.00     0.240 C 
HETATM   16  H   UNL     1      23.996  40.491  48.548  1.00  0.00     0.162 HD
HETATM   17  H   UNL     1      27.664  39.960  50.330  1.00  0.00     0.165 HD
ENDROOT
BRANCH   9  18
HETATM   18  C   UNL     1      25.645  41.868  50.202  1.00  0.00     0.095 A 
HETATM   19  O   UNL     1      26.165  42.102  51.447  1.00  0.00    -0.313 OA
HETATM   20  C   UNL     1      26.009  43.430  51.713  1.00  0.00     0.077 A 
HETATM   21  C   UNL     1      25.420  44.059  50.637  1.00  0.00     0.037 A 
HETATM   22  C   UNL     1      25.192  43.058  49.662  1.00  0.00     0.039 A 
BRANCH  20  23
HETATM   23  C   UNL     1      26.512  43.918  53.025  1.00  0.00     0.240 C 
BRANCH  23  24
HETATM   24  O   UNL     1      27.743  44.613  52.777  1.00  0.00    -0.341 OA
BRANCH  24  25
HETATM   25  C   UNL     1      28.700  44.355  53.728  1.00  0.00     0.112 A 
HETATM   26  C   UNL     1      29.495  43.200  53.711  1.00  0.00     0.070 A 
HETATM   27 CL   UNL     1      29.339  41.992  52.487  1.00  0.00    -0.081 Cl
HETATM   28  C   UNL     1      30.428  42.970  54.725  1.00  0.00     0.050 A 
HETATM   29  C   UNL     1      30.550  43.880  55.771  1.00  0.00     0.037 A 
HETATM   30 CL   UNL     1      31.691  43.588  57.025  1.00  0.00    -0.084 Cl
HETATM   31  C   UNL     1      29.743  45.013  55.823  1.00  0.00     0.050 A 
HETATM   32  C   UNL     1      28.815  45.244  54.808  1.00  0.00     0.070 A 
HETATM   33 CL   UNL     1      27.815  46.650  54.921  1.00  0.00    -0.081 Cl
ENDBRANCH  24  25
ENDBRANCH  23  24
ENDBRANCH  20  23
ENDBRANCH   9  18
BRANCH   1  34
HETATM   34  C   UNL     1      27.880  41.713  41.616  1.00  0.00     0.231 C 
HETATM   35  C   UNL     1      26.875  40.818  40.912  1.00  0.00     0.034 C 
ENDBRANCH   1  34
TORSDOF 5
ENDMDL
MODEL 8
REMARK VINA RESULT:      -7.7     11.343     12.861
REMARK  5 active torsions:
REMARK  status: ('A' for Active; 'I' for Inactive)
REMARK    1  A    between atoms: C_2  and  N_3 
REMARK    2  A    between atoms: C_11  and  C_12 
REMARK    3  A    between atoms: C_14  and  C_15 
REMARK    4  A    between atoms: C_15  and  O_16 
REMARK    5  A    between atoms: O_16  and  C_17 
ROOT
HETATM    1  N   UNL     1      23.191  44.340  43.396  1.00  0.00    -0.067 N 
HETATM    2  H   UNL     1      24.178  44.528  43.617  1.00  0.00     0.280 HD
HETATM    3  C   UNL     1      22.375  45.230  44.335  1.00  0.00     0.281 C 
HETATM    4  C   UNL     1      22.448  44.734  45.737  1.00  0.00     0.018 A 
HETATM    5  C   UNL     1      22.905  43.488  46.123  1.00  0.00    -0.023 A 
HETATM    6  C   UNL     1      22.816  43.318  47.541  1.00  0.00     0.073 A 
HETATM    7  C   UNL     1      22.285  44.430  48.153  1.00  0.00     0.088 A 
HETATM    8  N   UNL     1      22.082  44.513  49.488  1.00  0.00    -0.357 N 
HETATM    9  C   UNL     1      22.868  43.628  50.337  1.00  0.00     0.243 C 
HETATM   10  N   UNL     1      22.975  42.335  49.704  1.00  0.00    -0.330 N 
HETATM   11  C   UNL     1      23.177  42.177  48.360  1.00  0.00     0.256 C 
HETATM   12  O   UNL     1      23.601  41.126  47.890  1.00  0.00    -0.267 OA
HETATM   13  S   UNL     1      21.917  45.673  47.055  1.00  0.00    -0.074 SA
HETATM   14  C   UNL     1      23.419  42.501  45.121  1.00  0.00     0.068 C 
HETATM   15  C   UNL     1      22.955  42.856  43.698  1.00  0.00     0.240 C 
HETATM   16  H   UNL     1      22.017  45.450  49.880  1.00  0.00     0.162 HD
HETATM   17  H   UNL     1      23.273  41.553  50.268  1.00  0.00     0.165 HD
ENDROOT
BRANCH   9  18
HETATM   18  C   UNL     1      24.235  44.126  50.704  1.00  0.00     0.095 A 
HETATM   19  O   UNL     1      24.647  43.904  51.991  1.00  0.00    -0.313 OA
HETATM   20  C   UNL     1      25.900  44.429  52.116  1.00  0.00     0.077 A 
HETATM   21  C   UNL     1      26.309  44.959  50.911  1.00  0.00     0.037 A 
HETATM   22  C   UNL     1      25.244  44.759  50.001  1.00  0.00     0.039 A 
BRANCH  20  23
HETATM   23  C   UNL     1      26.556  44.297  53.444  1.00  0.00     0.240 C 
BRANCH  23  24
HETATM   24  O   UNL     1      27.726  45.128  53.426  1.00  0.00    -0.341 OA
BRANCH  24  25
HETATM   25  C   UNL     1      28.682  44.719  54.322  1.00  0.00     0.112 A 
HETATM   26  C   UNL     1      28.932  45.394  55.526  1.00  0.00     0.070 A 
HETATM   27 CL   UNL     1      28.057  46.808  55.989  1.00  0.00    -0.081 Cl
HETATM   28  C   UNL     1      29.944  44.954  56.385  1.00  0.00     0.050 A 
HETATM   29  C   UNL     1      30.723  43.858  56.030  1.00  0.00     0.037 A 
HETATM   30 CL   UNL     1      31.976  43.327  57.082  1.00  0.00    -0.084 Cl
HETATM   31  C   UNL     1      30.512  43.198  54.822  1.00  0.00     0.050 A 
HETATM   32  C   UNL     1      29.499  43.635  53.967  1.00  0.00     0.070 A 
HETATM   33 CL   UNL     1      29.285  42.806  52.466  1.00  0.00    -0.081 Cl
ENDBRANCH  24  25
ENDBRANCH  23  24
ENDBRANCH  20  23
ENDBRANCH   9  18
BRANCH   1  34
HETATM   34  C   UNL     1      22.965  44.646  41.938  1.00  0.00     0.231 C 
HETATM   35  C   UNL     1      23.724  45.890  41.514  1.00  0.00     0.034 C 
ENDBRANCH   1  34
TORSDOF 5
ENDMDL
MODEL 9
REMARK VINA RESULT:      -7.5     12.241     14.318
REMARK  5 active torsions:
REMARK  status: ('A' for Active; 'I' for Inactive)
REMARK    1  A    between atoms: C_2  and  N_3 
REMARK    2  A    between atoms: C_11  and  C_12 
REMARK    3  A    between atoms: C_14  and  C_15 
REMARK    4  A    between atoms: C_15  and  O_16 
REMARK    5  A    between atoms: O_16  and  C_17 
ROOT
HETATM    1  N   UNL     1      19.469  45.493  44.568  1.00  0.00    -0.067 N 
HETATM    2  H   UNL     1      19.383  46.436  44.166  1.00  0.00     0.280 HD
HETATM    3  C   UNL     1      18.318  45.355  45.565  1.00  0.00     0.281 C 
HETATM    4  C   UNL     1      18.554  46.194  46.772  1.00  0.00     0.018 A 
HETATM    5  C   UNL     1      19.761  46.772  47.121  1.00  0.00    -0.023 A 
HETATM    6  C   UNL     1      19.654  47.492  48.353  1.00  0.00     0.073 A 
HETATM    7  C   UNL     1      18.387  47.409  48.881  1.00  0.00     0.088 A 
HETATM    8  N   UNL     1      18.034  47.990  50.051  1.00  0.00    -0.357 N 
HETATM    9  C   UNL     1      18.850  49.105  50.513  1.00  0.00     0.243 C 
HETATM   10  N   UNL     1      20.239  48.823  50.240  1.00  0.00    -0.330 N 
HETATM   11  C   UNL     1      20.666  48.234  49.080  1.00  0.00     0.256 C 
HETATM   12  O   UNL     1      21.833  48.308  48.711  1.00  0.00    -0.267 OA
HETATM   13  S   UNL     1      17.327  46.504  47.910  1.00  0.00    -0.074 SA
HETATM   14  C   UNL     1      20.975  46.624  46.258  1.00  0.00     0.068 C 
HETATM   15  C   UNL     1      20.826  45.447  45.279  1.00  0.00     0.240 C 
HETATM   16  H   UNL     1      17.041  48.168  50.189  1.00  0.00     0.162 HD
HETATM   17  H   UNL     1      20.938  49.375  50.712  1.00  0.00     0.165 HD
ENDROOT
BRANCH   9  18
HETATM   18  C   UNL     1      18.488  50.450  49.953  1.00  0.00     0.095 A 
HETATM   19  O   UNL     1      17.184  50.630  49.575  1.00  0.00    -0.313 OA
HETATM   20  C   UNL     1      17.068  51.902  49.099  1.00  0.00     0.077 A 
HETATM   21  C   UNL     1      18.280  52.552  49.193  1.00  0.00     0.037 A 
HETATM   22  C   UNL     1      19.191  51.623  49.748  1.00  0.00     0.039 A 
BRANCH  20  23
HETATM   23  C   UNL     1      15.721  52.326  48.632  1.00  0.00     0.240 C 
BRANCH  23  24
HETATM   24  O   UNL     1      15.407  51.545  47.469  1.00  0.00    -0.341 OA
BRANCH  24  25
HETATM   25  C   UNL     1      15.845  52.126  46.305  1.00  0.00     0.112 A 
HETATM   26  C   UNL     1      15.222  53.246  45.735  1.00  0.00     0.070 A 
HETATM   27 CL   UNL     1      13.841  53.996  46.449  1.00  0.00    -0.081 Cl
HETATM   28  C   UNL     1      15.688  53.774  44.527  1.00  0.00     0.050 A 
HETATM   29  C   UNL     1      16.757  53.169  43.875  1.00  0.00     0.037 A 
HETATM   30 CL   UNL     1      17.320  53.813  42.383  1.00  0.00    -0.084 Cl
HETATM   31  C   UNL     1      17.364  52.035  44.408  1.00  0.00     0.050 A 
HETATM   32  C   UNL     1      16.902  51.511  45.616  1.00  0.00     0.070 A 
HETATM   33 CL   UNL     1      17.665  50.088  46.233  1.00  0.00    -0.081 Cl
ENDBRANCH  24  25
ENDBRANCH  23  24
ENDBRANCH  20  23
ENDBRANCH   9  18
BRANCH   1  34
HETATM   34  C   UNL     1      19.406  44.492  43.442  1.00  0.00     0.231 C 
HETATM   35  C   UNL     1      18.136  43.664  43.514  1.00  0.00     0.034 C 
ENDBRANCH   1  34
TORSDOF 5
ENDMDL
MODEL 10
REMARK VINA RESULT:      -7.4     25.706     28.314
REMARK  5 active torsions:
REMARK  status: ('A' for Active; 'I' for Inactive)
REMARK    1  A    between atoms: C_2  and  N_3 
REMARK    2  A    between atoms: C_11  and  C_12 
REMARK    3  A    between atoms: C_14  and  C_15 
REMARK    4  A    between atoms: C_15  and  O_16 
REMARK    5  A    between atoms: O_16  and  C_17 
ROOT
HETATM    1  N   UNL     1      40.415  38.288  66.967  1.00  0.00    -0.067 N 
HETATM    2  H   UNL     1      39.466  38.555  67.260  1.00  0.00     0.280 HD
HETATM    3  C   UNL     1      41.280  39.534  67.164  1.00  0.00     0.281 C 
HETATM    4  C   UNL     1      40.956  40.574  66.150  1.00  0.00     0.018 A 
HETATM    5  C   UNL     1      40.224  40.366  64.996  1.00  0.00    -0.023 A 
HETATM    6  C   UNL     1      40.119  41.567  64.224  1.00  0.00     0.073 A 
HETATM    7  C   UNL     1      40.786  42.612  64.819  1.00  0.00     0.088 A 
HETATM    8  N   UNL     1      40.852  43.851  64.278  1.00  0.00    -0.357 N 
HETATM    9  C   UNL     1      39.819  44.213  63.317  1.00  0.00     0.243 C 
HETATM   10  N   UNL     1      39.531  43.075  62.477  1.00  0.00    -0.330 N 
HETATM   11  C   UNL     1      39.453  41.795  62.956  1.00  0.00     0.256 C 
HETATM   12  O   UNL     1      38.887  40.905  62.330  1.00  0.00    -0.267 OA
HETATM   13  S   UNL     1      41.511  42.178  66.292  1.00  0.00    -0.074 SA
HETATM   14  C   UNL     1      39.641  39.026  64.673  1.00  0.00     0.068 C 
HETATM   15  C   UNL     1      40.321  37.910  65.485  1.00  0.00     0.240 C 
HETATM   16  H   UNL     1      41.055  44.616  64.918  1.00  0.00     0.162 HD
HETATM   17  H   UNL     1      39.025  43.233  61.619  1.00  0.00     0.165 HD
ENDROOT
BRANCH   9  18
HETATM   18  C   UNL     1      38.543  44.742  63.905  1.00  0.00     0.095 A 
HETATM   19  O   UNL     1      38.638  45.377  65.114  1.00  0.00    -0.313 OA
HETATM   20  C   UNL     1      37.382  45.776  65.467  1.00  0.00     0.077 A 
HETATM   21  C   UNL     1      36.485  45.428  64.481  1.00  0.00     0.037 A 
HETATM   22  C   UNL     1      37.229  44.770  63.473  1.00  0.00     0.039 A 
BRANCH  20  23
HETATM   23  C   UNL     1      37.244  46.501  66.759  1.00  0.00     0.240 C 
BRANCH  23  24
HETATM   24  O   UNL     1      38.416  47.314  66.918  1.00  0.00    -0.341 OA
BRANCH  24  25
HETATM   25  C   UNL     1      38.124  48.651  67.028  1.00  0.00     0.112 A 
HETATM   26  C   UNL     1      38.176  49.531  65.938  1.00  0.00     0.070 A 
HETATM   27 CL   UNL     1      38.618  49.010  64.352  1.00  0.00    -0.081 Cl
HETATM   28  C   UNL     1      37.905  50.891  66.115  1.00  0.00     0.050 A 
HETATM   29  C   UNL     1      37.607  51.376  67.384  1.00  0.00     0.037 A 
HETATM   30 CL   UNL     1      37.286  53.052  67.602  1.00  0.00    -0.084 Cl
HETATM   31  C   UNL     1      37.586  50.523  68.484  1.00  0.00     0.050 A 
HETATM   32  C   UNL     1      37.853  49.164  68.306  1.00  0.00     0.070 A 
HETATM   33 CL   UNL     1      37.842  48.141  69.699  1.00  0.00    -0.081 Cl
ENDBRANCH  24  25
ENDBRANCH  23  24
ENDBRANCH  20  23
ENDBRANCH   9  18
BRANCH   1  34
HETATM   34  C   UNL     1      40.857  37.116  67.805  1.00  0.00     0.231 C 
HETATM   35  C   UNL     1      40.321  35.810  67.249  1.00  0.00     0.034 C 
ENDBRANCH   1  34
TORSDOF 5
ENDMDL
