MODEL 1
REMARK VINA RESULT:      -7.9      0.000      0.000
REMARK  9 active torsions:
REMARK  status: ('A' for Active; 'I' for Inactive)
REMARK    1  A    between atoms: C_2  and  O_3 
REMARK    2  A    between atoms: O_3  and  C_4 
REMARK    3  A    between atoms: C_4  and  C_5 
REMARK    4  A    between atoms: C_7  and  C_8 
REMARK       I    between atoms: C_8  and  N_9 
REMARK    5  A    between atoms: N_9  and  N_10 
REMARK    6  A    between atoms: N_10  and  C_11 
REMARK    7  A    between atoms: C_11  and  N_12 
REMARK    8  A    between atoms: N_12  and  C_13 
REMARK    9  A    between atoms: C_13  and  C_14 
ROOT
HETATM    1  C   UNL     1      23.457  49.899  48.362  1.00  0.00     0.293 C 
HETATM    2  N   UNL     1      22.399  50.213  49.207  1.00  0.00    -0.262 N 
HETATM    3  O   UNL     1      23.448  50.268  47.187  1.00  0.00    -0.264 OA
HETATM    4  H   UNL     1      22.488  50.136  50.216  1.00  0.00     0.190 HD
ENDROOT
BRANCH   1   5
HETATM    5  C   UNL     1      24.525  49.137  48.980  1.00  0.00     0.145 A 
HETATM    6  O   UNL     1      24.187  48.201  49.924  1.00  0.00    -0.307 OA
HETATM    7  C   UNL     1      25.339  47.627  50.373  1.00  0.00     0.078 A 
HETATM    8  C   UNL     1      26.422  48.177  49.724  1.00  0.00     0.038 A 
HETATM    9  C   UNL     1      25.903  49.144  48.829  1.00  0.00     0.045 A 
BRANCH   7  10
HETATM   10  C   UNL     1      25.203  46.578  51.417  1.00  0.00     0.240 C 
BRANCH  10  11
HETATM   11  O   UNL     1      25.229  47.255  52.672  1.00  0.00    -0.345 OA
BRANCH  11  12
HETATM   12  C   UNL     1      26.269  46.968  53.511  1.00  0.00     0.069 A 
HETATM   13  C   UNL     1      26.848  47.842  54.433  1.00  0.00     0.038 A 
HETATM   14  C   UNL     1      27.900  47.407  55.247  1.00  0.00     0.022 A 
HETATM   15  C   UNL     1      28.373  46.101  55.136  1.00  0.00     0.011 A 
HETATM   16  C   UNL     1      27.803  45.223  54.220  1.00  0.00     0.022 A 
HETATM   17 BR   UNL     1      29.795  45.520  56.237  1.00  0.00    -0.051 Br
HETATM   18  C   UNL     1      26.750  45.658  53.412  1.00  0.00     0.038 A 
ENDBRANCH  11  12
ENDBRANCH  10  11
ENDBRANCH   7  10
ENDBRANCH   1   5
BRANCH   2  19
HETATM   19  N   UNL     1      21.429  51.127  48.741  1.00  0.00    -0.274 N 
HETATM   20  H   UNL     1      21.835  52.010  48.431  1.00  0.00     0.189 HD
BRANCH  19  21
HETATM   21  C   UNL     1      20.194  51.169  49.337  1.00  0.00     0.186 C 
HETATM   22  S   UNL     1      18.978  52.253  48.946  1.00  0.00    -0.040 SA
BRANCH  21  23
HETATM   23  N   UNL     1      19.976  50.293  50.353  1.00  0.00    -0.364 N 
HETATM   24  H   UNL     1      20.765  50.164  50.981  1.00  0.00     0.162 HD
BRANCH  23  25
HETATM   25  C   UNL     1      18.874  49.357  50.560  1.00  0.00     0.154 C 
BRANCH  25  26
HETATM   26  C   UNL     1      19.024  48.086  49.707  1.00  0.00     0.139 C 
HETATM   27  O   UNL     1      20.365  48.023  49.178  1.00  0.00    -0.384 OA
HETATM   28  C   UNL     1      20.283  47.791  47.766  1.00  0.00     0.168 C 
HETATM   29  C   UNL     1      18.938  48.321  47.333  1.00  0.00     0.029 C 
HETATM   30  C   UNL     1      18.068  47.998  48.523  1.00  0.00     0.035 C 
ENDBRANCH  25  26
ENDBRANCH  23  25
ENDBRANCH  21  23
ENDBRANCH  19  21
ENDBRANCH   2  19
TORSDOF 9
ENDMDL
MODEL 2
REMARK VINA RESULT:      -7.9      2.350      3.411
REMARK  9 active torsions:
REMARK  status: ('A' for Active; 'I' for Inactive)
REMARK    1  A    between atoms: C_2  and  O_3 
REMARK    2  A    between atoms: O_3  and  C_4 
REMARK    3  A    between atoms: C_4  and  C_5 
REMARK    4  A    between atoms: C_7  and  C_8 
REMARK       I    between atoms: C_8  and  N_9 
REMARK    5  A    between atoms: N_9  and  N_10 
REMARK    6  A    between atoms: N_10  and  C_11 
REMARK    7  A    between atoms: C_11  and  N_12 
REMARK    8  A    between atoms: N_12  and  C_13 
REMARK    9  A    between atoms: C_13  and  C_14 
ROOT
HETATM    1  C   UNL     1      24.298  47.874  49.773  1.00  0.00     0.293 C 
HETATM    2  N   UNL     1      22.912  47.838  49.682  1.00  0.00    -0.262 N 
HETATM    3  O   UNL     1      24.915  48.905  49.500  1.00  0.00    -0.264 OA
HETATM    4  H   UNL     1      22.372  47.098  50.123  1.00  0.00     0.190 HD
ENDROOT
BRANCH   1   5
HETATM    5  C   UNL     1      24.912  46.636  50.212  1.00  0.00     0.145 A 
HETATM    6  O   UNL     1      25.555  46.629  51.424  1.00  0.00    -0.307 OA
HETATM    7  C   UNL     1      26.063  45.379  51.619  1.00  0.00     0.078 A 
HETATM    8  C   UNL     1      25.749  44.571  50.549  1.00  0.00     0.038 A 
HETATM    9  C   UNL     1      25.009  45.374  49.646  1.00  0.00     0.045 A 
BRANCH   7  10
HETATM   10  C   UNL     1      26.813  45.149  52.881  1.00  0.00     0.240 C 
BRANCH  10  11
HETATM   11  O   UNL     1      27.875  44.252  52.558  1.00  0.00    -0.345 OA
BRANCH  11  12
HETATM   12  C   UNL     1      28.788  43.992  53.542  1.00  0.00     0.069 A 
HETATM   13  C   UNL     1      29.760  42.991  53.516  1.00  0.00     0.038 A 
HETATM   14  C   UNL     1      30.647  42.847  54.589  1.00  0.00     0.022 A 
HETATM   15  C   UNL     1      30.559  43.703  55.686  1.00  0.00     0.011 A 
HETATM   16  C   UNL     1      29.592  44.703  55.720  1.00  0.00     0.022 A 
HETATM   17 BR   UNL     1      31.759  43.504  57.132  1.00  0.00    -0.051 Br
HETATM   18  C   UNL     1      28.712  44.846  54.646  1.00  0.00     0.038 A 
ENDBRANCH  11  12
ENDBRANCH  10  11
ENDBRANCH   7  10
ENDBRANCH   1   5
BRANCH   2  19
HETATM   19  N   UNL     1      22.230  49.055  49.468  1.00  0.00    -0.274 N 
HETATM   20  H   UNL     1      22.602  49.820  50.032  1.00  0.00     0.189 HD
BRANCH  19  21
HETATM   21  C   UNL     1      20.880  49.045  49.222  1.00  0.00     0.186 C 
HETATM   22  S   UNL     1      20.153  48.315  47.902  1.00  0.00    -0.040 SA
BRANCH  21  23
HETATM   23  N   UNL     1      20.095  49.725  50.098  1.00  0.00    -0.364 N 
HETATM   24  H   UNL     1      20.600  50.324  50.746  1.00  0.00     0.162 HD
BRANCH  23  25
HETATM   25  C   UNL     1      18.673  49.571  50.394  1.00  0.00     0.154 C 
BRANCH  25  26
HETATM   26  C   UNL     1      17.835  50.732  49.834  1.00  0.00     0.139 C 
HETATM   27  O   UNL     1      17.554  50.487  48.439  1.00  0.00    -0.384 OA
HETATM   28  C   UNL     1      17.903  51.661  47.696  1.00  0.00     0.168 C 
HETATM   29  C   UNL     1      18.951  52.377  48.513  1.00  0.00     0.029 C 
HETATM   30  C   UNL     1      18.501  52.100  49.926  1.00  0.00     0.035 C 
ENDBRANCH  25  26
ENDBRANCH  23  25
ENDBRANCH  21  23
ENDBRANCH  19  21
ENDBRANCH   2  19
TORSDOF 9
ENDMDL
MODEL 3
REMARK VINA RESULT:      -7.8      1.962      2.629
REMARK  9 active torsions:
REMARK  status: ('A' for Active; 'I' for Inactive)
REMARK    1  A    between atoms: C_2  and  O_3 
REMARK    2  A    between atoms: O_3  and  C_4 
REMARK    3  A    between atoms: C_4  and  C_5 
REMARK    4  A    between atoms: C_7  and  C_8 
REMARK       I    between atoms: C_8  and  N_9 
REMARK    5  A    between atoms: N_9  and  N_10 
REMARK    6  A    between atoms: N_10  and  C_11 
REMARK    7  A    between atoms: C_11  and  N_12 
REMARK    8  A    between atoms: N_12  and  C_13 
REMARK    9  A    between atoms: C_13  and  C_14 
ROOT
HETATM    1  C   UNL     1      23.071  47.824  48.690  1.00  0.00     0.293 C 
HETATM    2  N   UNL     1      21.919  47.093  48.951  1.00  0.00    -0.262 N 
HETATM    3  O   UNL     1      23.089  48.658  47.782  1.00  0.00    -0.264 OA
HETATM    4  H   UNL     1      21.801  46.588  49.824  1.00  0.00     0.190 HD
ENDROOT
BRANCH   1   5
HETATM    5  C   UNL     1      24.192  47.529  49.561  1.00  0.00     0.145 A 
HETATM    6  O   UNL     1      24.079  46.463  50.417  1.00  0.00    -0.307 OA
HETATM    7  C   UNL     1      25.232  46.387  51.140  1.00  0.00     0.078 A 
HETATM    8  C   UNL     1      26.096  47.389  50.757  1.00  0.00     0.038 A 
HETATM    9  C   UNL     1      25.432  48.121  49.743  1.00  0.00     0.045 A 
BRANCH   7  10
HETATM   10  C   UNL     1      25.324  45.295  52.145  1.00  0.00     0.240 C 
BRANCH  10  11
HETATM   11  O   UNL     1      25.622  45.921  53.392  1.00  0.00    -0.345 OA
BRANCH  11  12
HETATM   12  C   UNL     1      26.817  45.605  53.975  1.00  0.00     0.069 A 
HETATM   13  C   UNL     1      27.648  46.482  54.673  1.00  0.00     0.038 A 
HETATM   14  C   UNL     1      28.841  46.018  55.238  1.00  0.00     0.022 A 
HETATM   15  C   UNL     1      29.202  44.679  55.102  1.00  0.00     0.011 A 
HETATM   16  C   UNL     1      28.380  43.798  54.407  1.00  0.00     0.022 A 
HETATM   17 BR   UNL     1      30.814  44.057  55.867  1.00  0.00    -0.051 Br
HETATM   18  C   UNL     1      27.188  44.263  53.848  1.00  0.00     0.038 A 
ENDBRANCH  11  12
ENDBRANCH  10  11
ENDBRANCH   7  10
ENDBRANCH   1   5
BRANCH   2  19
HETATM   19  N   UNL     1      20.730  47.470  48.290  1.00  0.00    -0.274 N 
HETATM   20  H   UNL     1      20.903  48.053  47.470  1.00  0.00     0.189 HD
BRANCH  19  21
HETATM   21  C   UNL     1      19.596  47.719  49.020  1.00  0.00     0.186 C 
HETATM   22  S   UNL     1      18.053  47.232  48.588  1.00  0.00    -0.040 SA
BRANCH  21  23
HETATM   23  N   UNL     1      19.747  48.461  50.148  1.00  0.00    -0.364 N 
HETATM   24  H   UNL     1      20.437  48.103  50.804  1.00  0.00     0.162 HD
BRANCH  23  25
HETATM   25  C   UNL     1      18.934  49.561  50.661  1.00  0.00     0.154 C 
BRANCH  25  26
HETATM   26  C   UNL     1      19.594  50.929  50.424  1.00  0.00     0.139 C 
HETATM   27  O   UNL     1      18.755  51.719  49.554  1.00  0.00    -0.384 OA
HETATM   28  C   UNL     1      19.565  52.231  48.489  1.00  0.00     0.168 C 
HETATM   29  C   UNL     1      20.728  51.277  48.352  1.00  0.00     0.029 C 
HETATM   30  C   UNL     1      20.976  50.867  49.784  1.00  0.00     0.035 C 
ENDBRANCH  25  26
ENDBRANCH  23  25
ENDBRANCH  21  23
ENDBRANCH  19  21
ENDBRANCH   2  19
TORSDOF 9
ENDMDL
MODEL 4
REMARK VINA RESULT:      -7.8      2.672      3.763
REMARK  9 active torsions:
REMARK  status: ('A' for Active; 'I' for Inactive)
REMARK    1  A    between atoms: C_2  and  O_3 
REMARK    2  A    between atoms: O_3  and  C_4 
REMARK    3  A    between atoms: C_4  and  C_5 
REMARK    4  A    between atoms: C_7  and  C_8 
REMARK       I    between atoms: C_8  and  N_9 
REMARK    5  A    between atoms: N_9  and  N_10 
REMARK    6  A    between atoms: N_10  and  C_11 
REMARK    7  A    between atoms: C_11  and  N_12 
REMARK    8  A    between atoms: N_12  and  C_13 
REMARK    9  A    between atoms: C_13  and  C_14 
ROOT
HETATM    1  C   UNL     1      23.924  45.734  49.247  1.00  0.00     0.293 C 
HETATM    2  N   UNL     1      23.292  46.871  49.732  1.00  0.00    -0.262 N 
HETATM    3  O   UNL     1      23.498  45.162  48.242  1.00  0.00    -0.264 OA
HETATM    4  H   UNL     1      23.750  47.488  50.397  1.00  0.00     0.190 HD
ENDROOT
BRANCH   1   5
HETATM    5  C   UNL     1      25.088  45.314  50.004  1.00  0.00     0.145 A 
HETATM    6  O   UNL     1      25.003  45.316  51.372  1.00  0.00    -0.307 OA
HETATM    7  C   UNL     1      26.206  44.906  51.865  1.00  0.00     0.078 A 
HETATM    8  C   UNL     1      27.070  44.630  50.829  1.00  0.00     0.038 A 
HETATM    9  C   UNL     1      26.355  44.889  49.634  1.00  0.00     0.045 A 
BRANCH   7  10
HETATM   10  C   UNL     1      26.338  44.840  53.344  1.00  0.00     0.240 C 
BRANCH  10  11
HETATM   11  O   UNL     1      27.460  45.654  53.683  1.00  0.00    -0.345 OA
BRANCH  11  12
HETATM   12  C   UNL     1      28.460  45.064  54.404  1.00  0.00     0.069 A 
HETATM   13  C   UNL     1      28.982  43.786  54.192  1.00  0.00     0.038 A 
HETATM   14  C   UNL     1      30.023  43.312  54.997  1.00  0.00     0.022 A 
HETATM   15  C   UNL     1      30.540  44.114  56.013  1.00  0.00     0.011 A 
HETATM   16  C   UNL     1      30.026  45.389  56.231  1.00  0.00     0.022 A 
HETATM   17 BR   UNL     1      31.947  43.469  57.097  1.00  0.00    -0.051 Br
HETATM   18  C   UNL     1      28.989  45.861  55.423  1.00  0.00     0.038 A 
ENDBRANCH  11  12
ENDBRANCH  10  11
ENDBRANCH   7  10
ENDBRANCH   1   5
BRANCH   2  19
HETATM   19  N   UNL     1      22.286  47.461  48.936  1.00  0.00    -0.274 N 
HETATM   20  H   UNL     1      22.142  46.968  48.054  1.00  0.00     0.189 HD
BRANCH  19  21
HETATM   21  C   UNL     1      22.131  48.824  48.934  1.00  0.00     0.186 C 
HETATM   22  S   UNL     1      22.999  49.885  47.972  1.00  0.00    -0.040 SA
BRANCH  21  23
HETATM   23  N   UNL     1      21.240  49.338  49.821  1.00  0.00    -0.364 N 
HETATM   24  H   UNL     1      21.534  49.297  50.794  1.00  0.00     0.162 HD
BRANCH  23  25
HETATM   25  C   UNL     1      19.849  49.740  49.623  1.00  0.00     0.154 C 
BRANCH  25  26
HETATM   26  C   UNL     1      19.650  51.252  49.820  1.00  0.00     0.139 C 
HETATM   27  O   UNL     1      18.301  51.500  50.270  1.00  0.00    -0.384 OA
HETATM   28  C   UNL     1      17.726  52.516  49.438  1.00  0.00     0.168 C 
HETATM   29  C   UNL     1      18.469  52.450  48.126  1.00  0.00     0.029 C 
HETATM   30  C   UNL     1      19.867  52.091  48.566  1.00  0.00     0.035 C 
ENDBRANCH  25  26
ENDBRANCH  23  25
ENDBRANCH  21  23
ENDBRANCH  19  21
ENDBRANCH   2  19
TORSDOF 9
ENDMDL
MODEL 5
REMARK VINA RESULT:      -7.7      4.597      8.984
REMARK  9 active torsions:
REMARK  status: ('A' for Active; 'I' for Inactive)
REMARK    1  A    between atoms: C_2  and  O_3 
REMARK    2  A    between atoms: O_3  and  C_4 
REMARK    3  A    between atoms: C_4  and  C_5 
REMARK    4  A    between atoms: C_7  and  C_8 
REMARK       I    between atoms: C_8  and  N_9 
REMARK    5  A    between atoms: N_9  and  N_10 
REMARK    6  A    between atoms: N_10  and  C_11 
REMARK    7  A    between atoms: C_11  and  N_12 
REMARK    8  A    between atoms: N_12  and  C_13 
REMARK    9  A    between atoms: C_13  and  C_14 
ROOT
HETATM    1  C   UNL     1      25.381  47.033  51.351  1.00  0.00     0.293 C 
HETATM    2  N   UNL     1      25.001  45.763  50.936  1.00  0.00    -0.262 N 
HETATM    3  O   UNL     1      25.412  47.315  52.550  1.00  0.00    -0.264 OA
HETATM    4  H   UNL     1      25.196  45.435  49.994  1.00  0.00     0.190 HD
ENDROOT
BRANCH   1   5
HETATM    5  C   UNL     1      25.731  47.945  50.280  1.00  0.00     0.145 A 
HETATM    6  O   UNL     1      24.722  48.659  49.686  1.00  0.00    -0.307 OA
HETATM    7  C   UNL     1      25.277  49.430  48.707  1.00  0.00     0.078 A 
HETATM    8  C   UNL     1      26.638  49.228  48.666  1.00  0.00     0.038 A 
HETATM    9  C   UNL     1      26.932  48.278  49.674  1.00  0.00     0.045 A 
BRANCH   7  10
HETATM   10  C   UNL     1      24.351  50.289  47.923  1.00  0.00     0.240 C 
BRANCH  10  11
HETATM   11  O   UNL     1      23.300  49.437  47.470  1.00  0.00    -0.345 OA
BRANCH  11  12
HETATM   12  C   UNL     1      22.040  49.714  47.918  1.00  0.00     0.069 A 
HETATM   13  C   UNL     1      20.955  48.836  47.918  1.00  0.00     0.038 A 
HETATM   14  C   UNL     1      19.718  49.248  48.427  1.00  0.00     0.022 A 
HETATM   15  C   UNL     1      19.567  50.538  48.933  1.00  0.00     0.011 A 
HETATM   16  C   UNL     1      20.643  51.420  48.936  1.00  0.00     0.022 A 
HETATM   17 BR   UNL     1      17.895  51.089  49.619  1.00  0.00    -0.051 Br
HETATM   18  C   UNL     1      21.877  51.005  48.432  1.00  0.00     0.038 A 
ENDBRANCH  11  12
ENDBRANCH  10  11
ENDBRANCH   7  10
ENDBRANCH   1   5
BRANCH   2  19
HETATM   19  N   UNL     1      24.851  44.761  51.920  1.00  0.00    -0.274 N 
HETATM   20  H   UNL     1      24.257  45.056  52.695  1.00  0.00     0.189 HD
BRANCH  19  21
HETATM   21  C   UNL     1      25.902  43.926  52.206  1.00  0.00     0.186 C 
HETATM   22  S   UNL     1      26.988  43.332  51.078  1.00  0.00    -0.040 SA
BRANCH  21  23
HETATM   23  N   UNL     1      26.025  43.521  53.497  1.00  0.00    -0.364 N 
HETATM   24  H   UNL     1      25.582  42.631  53.708  1.00  0.00     0.162 HD
BRANCH  23  25
HETATM   25  C   UNL     1      26.503  44.256  54.666  1.00  0.00     0.154 C 
BRANCH  25  26
HETATM   26  C   UNL     1      27.824  44.992  54.387  1.00  0.00     0.139 C 
HETATM   27  O   UNL     1      28.925  44.202  54.886  1.00  0.00    -0.384 OA
HETATM   28  C   UNL     1      29.752  45.043  55.698  1.00  0.00     0.168 C 
HETATM   29  C   UNL     1      28.858  46.150  56.201  1.00  0.00     0.029 C 
HETATM   30  C   UNL     1      27.931  46.370  55.030  1.00  0.00     0.035 C 
ENDBRANCH  25  26
ENDBRANCH  23  25
ENDBRANCH  21  23
ENDBRANCH  19  21
ENDBRANCH   2  19
TORSDOF 9
ENDMDL
MODEL 6
REMARK VINA RESULT:      -7.5      2.560      3.552
REMARK  9 active torsions:
REMARK  status: ('A' for Active; 'I' for Inactive)
REMARK    1  A    between atoms: C_2  and  O_3 
REMARK    2  A    between atoms: O_3  and  C_4 
REMARK    3  A    between atoms: C_4  and  C_5 
REMARK    4  A    between atoms: C_7  and  C_8 
REMARK       I    between atoms: C_8  and  N_9 
REMARK    5  A    between atoms: N_9  and  N_10 
REMARK    6  A    between atoms: N_10  and  C_11 
REMARK    7  A    between atoms: C_11  and  N_12 
REMARK    8  A    between atoms: N_12  and  C_13 
REMARK    9  A    between atoms: C_13  and  C_14 
ROOT
HETATM    1  C   UNL     1      24.088  46.979  49.940  1.00  0.00     0.293 C 
HETATM    2  N   UNL     1      22.884  47.224  49.291  1.00  0.00    -0.262 N 
HETATM    3  O   UNL     1      24.665  47.883  50.548  1.00  0.00    -0.264 OA
HETATM    4  H   UNL     1      22.279  46.464  48.996  1.00  0.00     0.190 HD
ENDROOT
BRANCH   1   5
HETATM    5  C   UNL     1      24.567  45.614  49.841  1.00  0.00     0.145 A 
HETATM    6  O   UNL     1      25.326  45.121  50.872  1.00  0.00    -0.307 OA
HETATM    7  C   UNL     1      25.673  43.840  50.558  1.00  0.00     0.078 A 
HETATM    8  C   UNL     1      25.139  43.494  49.337  1.00  0.00     0.038 A 
HETATM    9  C   UNL     1      24.428  44.629  48.876  1.00  0.00     0.045 A 
BRANCH   7  10
HETATM   10  C   UNL     1      26.511  43.111  51.545  1.00  0.00     0.240 C 
BRANCH  10  11
HETATM   11  O   UNL     1      27.794  43.737  51.521  1.00  0.00    -0.345 OA
BRANCH  11  12
HETATM   12  C   UNL     1      28.495  43.759  52.694  1.00  0.00     0.069 A 
HETATM   13  C   UNL     1      28.151  44.471  53.844  1.00  0.00     0.038 A 
HETATM   14  C   UNL     1      28.954  44.388  54.987  1.00  0.00     0.022 A 
HETATM   15  C   UNL     1      30.101  43.596  54.977  1.00  0.00     0.011 A 
HETATM   16  C   UNL     1      30.452  42.883  53.835  1.00  0.00     0.022 A 
HETATM   17 BR   UNL     1      31.182  43.488  56.523  1.00  0.00    -0.051 Br
HETATM   18  C   UNL     1      29.646  42.964  52.697  1.00  0.00     0.038 A 
ENDBRANCH  11  12
ENDBRANCH  10  11
ENDBRANCH   7  10
ENDBRANCH   1   5
BRANCH   2  19
HETATM   19  N   UNL     1      22.251  48.465  49.516  1.00  0.00    -0.274 N 
HETATM   20  H   UNL     1      21.462  48.394  50.160  1.00  0.00     0.189 HD
BRANCH  19  21
HETATM   21  C   UNL     1      22.157  49.377  48.495  1.00  0.00     0.186 C 
HETATM   22  S   UNL     1      23.328  50.514  48.117  1.00  0.00    -0.040 SA
BRANCH  21  23
HETATM   23  N   UNL     1      21.002  49.377  47.781  1.00  0.00    -0.364 N 
HETATM   24  H   UNL     1      20.754  50.274  47.372  1.00  0.00     0.162 HD
BRANCH  23  25
HETATM   25  C   UNL     1      19.962  48.355  47.685  1.00  0.00     0.154 C 
BRANCH  25  26
HETATM   26  C   UNL     1      18.686  48.754  48.446  1.00  0.00     0.139 C 
HETATM   27  O   UNL     1      18.657  50.188  48.610  1.00  0.00    -0.384 OA
HETATM   28  C   UNL     1      18.406  50.479  49.990  1.00  0.00     0.168 C 
HETATM   29  C   UNL     1      18.889  49.277  50.766  1.00  0.00     0.029 C 
HETATM   30  C   UNL     1      18.554  48.139  49.834  1.00  0.00     0.035 C 
ENDBRANCH  25  26
ENDBRANCH  23  25
ENDBRANCH  21  23
ENDBRANCH  19  21
ENDBRANCH   2  19
TORSDOF 9
ENDMDL
MODEL 7
REMARK VINA RESULT:      -7.2      2.159      2.806
REMARK  9 active torsions:
REMARK  status: ('A' for Active; 'I' for Inactive)
REMARK    1  A    between atoms: C_2  and  O_3 
REMARK    2  A    between atoms: O_3  and  C_4 
REMARK    3  A    between atoms: C_4  and  C_5 
REMARK    4  A    between atoms: C_7  and  C_8 
REMARK       I    between atoms: C_8  and  N_9 
REMARK    5  A    between atoms: N_9  and  N_10 
REMARK    6  A    between atoms: N_10  and  C_11 
REMARK    7  A    between atoms: C_11  and  N_12 
REMARK    8  A    between atoms: N_12  and  C_13 
REMARK    9  A    between atoms: C_13  and  C_14 
ROOT
HETATM    1  C   UNL     1      23.445  48.923  49.401  1.00  0.00     0.293 C 
HETATM    2  N   UNL     1      22.262  48.196  49.416  1.00  0.00    -0.262 N 
HETATM    3  O   UNL     1      23.456  50.091  49.008  1.00  0.00    -0.264 OA
HETATM    4  H   UNL     1      22.177  47.335  49.949  1.00  0.00     0.190 HD
ENDROOT
BRANCH   1   5
HETATM    5  C   UNL     1      24.609  48.203  49.881  1.00  0.00     0.145 A 
HETATM    6  O   UNL     1      24.495  47.502  51.054  1.00  0.00    -0.307 OA
HETATM    7  C   UNL     1      25.703  46.926  51.314  1.00  0.00     0.078 A 
HETATM    8  C   UNL     1      26.598  47.240  50.317  1.00  0.00     0.038 A 
HETATM    9  C   UNL     1      25.899  48.058  49.396  1.00  0.00     0.045 A 
BRANCH   7  10
HETATM   10  C   UNL     1      25.806  46.115  52.556  1.00  0.00     0.240 C 
BRANCH  10  11
HETATM   11  O   UNL     1      26.488  44.915  52.195  1.00  0.00    -0.345 OA
BRANCH  11  12
HETATM   12  C   UNL     1      27.528  44.528  52.993  1.00  0.00     0.069 A 
HETATM   13  C   UNL     1      28.487  43.562  52.684  1.00  0.00     0.038 A 
HETATM   14  C   UNL     1      29.514  43.277  53.591  1.00  0.00     0.022 A 
HETATM   15  C   UNL     1      29.580  43.957  54.805  1.00  0.00     0.011 A 
HETATM   16  C   UNL     1      28.628  44.922  55.122  1.00  0.00     0.022 A 
HETATM   17 BR   UNL     1      30.968  43.569  56.026  1.00  0.00    -0.051 Br
HETATM   18  C   UNL     1      27.607  45.207  54.213  1.00  0.00     0.038 A 
ENDBRANCH  11  12
ENDBRANCH  10  11
ENDBRANCH   7  10
ENDBRANCH   1   5
BRANCH   2  19
HETATM   19  N   UNL     1      21.056  48.887  49.167  1.00  0.00    -0.274 N 
HETATM   20  H   UNL     1      21.186  49.898  49.108  1.00  0.00     0.189 HD
BRANCH  19  21
HETATM   21  C   UNL     1      19.883  48.427  49.710  1.00  0.00     0.186 C 
HETATM   22  S   UNL     1      18.828  49.348  50.629  1.00  0.00    -0.040 SA
BRANCH  21  23
HETATM   23  N   UNL     1      19.597  47.113  49.520  1.00  0.00    -0.364 N 
HETATM   24  H   UNL     1      20.063  46.478  50.164  1.00  0.00     0.162 HD
BRANCH  23  25
HETATM   25  C   UNL     1      18.902  46.457  48.416  1.00  0.00     0.154 C 
BRANCH  25  26
HETATM   26  C   UNL     1      19.642  45.200  47.928  1.00  0.00     0.139 C 
HETATM   27  O   UNL     1      20.545  44.748  48.960  1.00  0.00    -0.384 OA
HETATM   28  C   UNL     1      21.838  44.555  48.375  1.00  0.00     0.168 C 
HETATM   29  C   UNL     1      21.889  45.457  47.166  1.00  0.00     0.029 C 
HETATM   30  C   UNL     1      20.468  45.400  46.663  1.00  0.00     0.035 C 
ENDBRANCH  25  26
ENDBRANCH  23  25
ENDBRANCH  21  23
ENDBRANCH  19  21
ENDBRANCH   2  19
TORSDOF 9
ENDMDL
MODEL 8
REMARK VINA RESULT:      -7.1      3.037      4.044
REMARK  9 active torsions:
REMARK  status: ('A' for Active; 'I' for Inactive)
REMARK    1  A    between atoms: C_2  and  O_3 
REMARK    2  A    between atoms: O_3  and  C_4 
REMARK    3  A    between atoms: C_4  and  C_5 
REMARK    4  A    between atoms: C_7  and  C_8 
REMARK       I    between atoms: C_8  and  N_9 
REMARK    5  A    between atoms: N_9  and  N_10 
REMARK    6  A    between atoms: N_10  and  C_11 
REMARK    7  A    between atoms: C_11  and  N_12 
REMARK    8  A    between atoms: N_12  and  C_13 
REMARK    9  A    between atoms: C_13  and  C_14 
ROOT
HETATM    1  C   UNL     1      23.011  45.241  48.809  1.00  0.00     0.293 C 
HETATM    2  N   UNL     1      21.823  45.261  49.528  1.00  0.00    -0.262 N 
HETATM    3  O   UNL     1      23.005  45.007  47.600  1.00  0.00    -0.264 OA
HETATM    4  H   UNL     1      21.771  45.680  50.452  1.00  0.00     0.190 HD
ENDROOT
BRANCH   1   5
HETATM    5  C   UNL     1      24.200  45.524  49.590  1.00  0.00     0.145 A 
HETATM    6  O   UNL     1      25.232  44.621  49.542  1.00  0.00    -0.307 OA
HETATM    7  C   UNL     1      26.225  45.080  50.356  1.00  0.00     0.078 A 
HETATM    8  C   UNL     1      25.851  46.277  50.926  1.00  0.00     0.038 A 
HETATM    9  C   UNL     1      24.554  46.564  50.435  1.00  0.00     0.045 A 
BRANCH   7  10
HETATM   10  C   UNL     1      27.449  44.244  50.459  1.00  0.00     0.240 C 
BRANCH  10  11
HETATM   11  O   UNL     1      27.232  43.350  51.551  1.00  0.00    -0.345 OA
BRANCH  11  12
HETATM   12  C   UNL     1      28.162  43.358  52.553  1.00  0.00     0.069 A 
HETATM   13  C   UNL     1      29.422  42.760  52.510  1.00  0.00     0.038 A 
HETATM   14  C   UNL     1      30.285  42.863  53.607  1.00  0.00     0.022 A 
HETATM   15  C   UNL     1      29.886  43.561  54.745  1.00  0.00     0.011 A 
HETATM   16  C   UNL     1      28.631  44.160  54.796  1.00  0.00     0.022 A 
HETATM   17 BR   UNL     1      31.055  43.697  56.223  1.00  0.00    -0.051 Br
HETATM   18  C   UNL     1      27.774  44.060  53.699  1.00  0.00     0.038 A 
ENDBRANCH  11  12
ENDBRANCH  10  11
ENDBRANCH   7  10
ENDBRANCH   1   5
BRANCH   2  19
HETATM   19  N   UNL     1      20.610  45.206  48.806  1.00  0.00    -0.274 N 
HETATM   20  H   UNL     1      20.651  44.561  48.017  1.00  0.00     0.189 HD
BRANCH  19  21
HETATM   21  C   UNL     1      19.852  46.340  48.663  1.00  0.00     0.186 C 
HETATM   22  S   UNL     1      18.355  46.403  47.914  1.00  0.00    -0.040 SA
BRANCH  21  23
HETATM   23  N   UNL     1      20.394  47.498  49.123  1.00  0.00    -0.364 N 
HETATM   24  H   UNL     1      20.224  47.686  50.107  1.00  0.00     0.162 HD
BRANCH  23  25
HETATM   25  C   UNL     1      20.993  48.608  48.386  1.00  0.00     0.154 C 
BRANCH  25  26
HETATM   26  C   UNL     1      21.162  49.861  49.261  1.00  0.00     0.139 C 
HETATM   27  O   UNL     1      20.019  49.991  50.133  1.00  0.00    -0.384 OA
HETATM   28  C   UNL     1      19.512  51.326  50.017  1.00  0.00     0.168 C 
HETATM   29  C   UNL     1      19.936  51.817  48.653  1.00  0.00     0.029 C 
HETATM   30  C   UNL     1      21.287  51.167  48.484  1.00  0.00     0.035 C 
ENDBRANCH  25  26
ENDBRANCH  23  25
ENDBRANCH  21  23
ENDBRANCH  19  21
ENDBRANCH   2  19
TORSDOF 9
ENDMDL
MODEL 9
REMARK VINA RESULT:      -7.1      2.688      3.700
REMARK  9 active torsions:
REMARK  status: ('A' for Active; 'I' for Inactive)
REMARK    1  A    between atoms: C_2  and  O_3 
REMARK    2  A    between atoms: O_3  and  C_4 
REMARK    3  A    between atoms: C_4  and  C_5 
REMARK    4  A    between atoms: C_7  and  C_8 
REMARK       I    between atoms: C_8  and  N_9 
REMARK    5  A    between atoms: N_9  and  N_10 
REMARK    6  A    between atoms: N_10  and  C_11 
REMARK    7  A    between atoms: C_11  and  N_12 
REMARK    8  A    between atoms: N_12  and  C_13 
REMARK    9  A    between atoms: C_13  and  C_14 
ROOT
HETATM    1  C   UNL     1      22.217  44.438  48.837  1.00  0.00     0.293 C 
HETATM    2  N   UNL     1      21.293  45.284  49.439  1.00  0.00    -0.262 N 
HETATM    3  O   UNL     1      21.845  43.561  48.057  1.00  0.00    -0.264 OA
HETATM    4  H   UNL     1      21.582  46.150  49.885  1.00  0.00     0.190 HD
ENDROOT
BRANCH   1   5
HETATM    5  C   UNL     1      23.599  44.691  49.197  1.00  0.00     0.145 A 
HETATM    6  O   UNL     1      23.867  45.755  50.020  1.00  0.00    -0.307 OA
HETATM    7  C   UNL     1      25.217  45.807  50.207  1.00  0.00     0.078 A 
HETATM    8  C   UNL     1      25.827  44.781  49.520  1.00  0.00     0.038 A 
HETATM    9  C   UNL     1      24.792  44.063  48.873  1.00  0.00     0.045 A 
BRANCH   7  10
HETATM   10  C   UNL     1      25.733  46.901  51.070  1.00  0.00     0.240 C 
BRANCH  10  11
HETATM   11  O   UNL     1      25.354  46.570  52.406  1.00  0.00    -0.345 OA
BRANCH  11  12
HETATM   12  C   UNL     1      26.360  46.255  53.276  1.00  0.00     0.069 A 
HETATM   13  C   UNL     1      26.897  44.983  53.485  1.00  0.00     0.038 A 
HETATM   14  C   UNL     1      27.943  44.805  54.398  1.00  0.00     0.022 A 
HETATM   15  C   UNL     1      28.449  45.898  55.100  1.00  0.00     0.011 A 
HETATM   16  C   UNL     1      27.919  47.168  54.898  1.00  0.00     0.022 A 
HETATM   17 BR   UNL     1      29.861  45.652  56.331  1.00  0.00    -0.051 Br
HETATM   18  C   UNL     1      26.878  47.343  53.984  1.00  0.00     0.038 A 
ENDBRANCH  11  12
ENDBRANCH  10  11
ENDBRANCH   7  10
ENDBRANCH   1   5
BRANCH   2  19
HETATM   19  N   UNL     1      19.959  45.241  48.981  1.00  0.00    -0.274 N 
HETATM   20  H   UNL     1      19.779  44.447  48.364  1.00  0.00     0.189 HD
BRANCH  19  21
HETATM   21  C   UNL     1      19.290  46.411  48.722  1.00  0.00     0.186 C 
HETATM   22  S   UNL     1      18.333  46.689  47.376  1.00  0.00    -0.040 SA
BRANCH  21  23
HETATM   23  N   UNL     1      19.469  47.424  49.609  1.00  0.00    -0.364 N 
HETATM   24  H   UNL     1      19.198  47.207  50.565  1.00  0.00     0.162 HD
BRANCH  23  25
HETATM   25  C   UNL     1      19.786  48.830  49.371  1.00  0.00     0.154 C 
BRANCH  25  26
HETATM   26  C   UNL     1      21.054  49.003  48.517  1.00  0.00     0.139 C 
HETATM   27  O   UNL     1      22.159  48.338  49.166  1.00  0.00    -0.384 OA
HETATM   28  C   UNL     1      23.257  49.256  49.240  1.00  0.00     0.168 C 
HETATM   29  C   UNL     1      22.649  50.638  49.209  1.00  0.00     0.029 C 
HETATM   30  C   UNL     1      21.472  50.450  48.284  1.00  0.00     0.035 C 
ENDBRANCH  25  26
ENDBRANCH  23  25
ENDBRANCH  21  23
ENDBRANCH  19  21
ENDBRANCH   2  19
TORSDOF 9
ENDMDL
MODEL 10
REMARK VINA RESULT:      -7.0     11.427     12.568
REMARK  9 active torsions:
REMARK  status: ('A' for Active; 'I' for Inactive)
REMARK    1  A    between atoms: C_2  and  O_3 
REMARK    2  A    between atoms: O_3  and  C_4 
REMARK    3  A    between atoms: C_4  and  C_5 
REMARK    4  A    between atoms: C_7  and  C_8 
REMARK       I    between atoms: C_8  and  N_9 
REMARK    5  A    between atoms: N_9  and  N_10 
REMARK    6  A    between atoms: N_10  and  C_11 
REMARK    7  A    between atoms: C_11  and  N_12 
REMARK    8  A    between atoms: N_12  and  C_13 
REMARK    9  A    between atoms: C_13  and  C_14 
ROOT
HETATM    1  C   UNL     1      27.909  51.525  39.355  1.00  0.00     0.293 C 
HETATM    2  N   UNL     1      26.982  50.904  40.182  1.00  0.00    -0.262 N 
HETATM    3  O   UNL     1      27.818  51.426  38.130  1.00  0.00    -0.264 OA
HETATM    4  H   UNL     1      26.891  51.161  41.160  1.00  0.00     0.190 HD
ENDROOT
BRANCH   1   5
HETATM    5  C   UNL     1      28.940  52.274  40.048  1.00  0.00     0.145 A 
HETATM    6  O   UNL     1      29.421  51.768  41.228  1.00  0.00    -0.307 OA
HETATM    7  C   UNL     1      30.357  52.638  41.702  1.00  0.00     0.078 A 
HETATM    8  C   UNL     1      30.495  53.700  40.837  1.00  0.00     0.038 A 
HETATM    9  C   UNL     1      29.588  53.468  39.774  1.00  0.00     0.045 A 
BRANCH   7  10
HETATM   10  C   UNL     1      31.010  52.284  42.990  1.00  0.00     0.240 C 
BRANCH  10  11
HETATM   11  O   UNL     1      31.516  50.959  42.833  1.00  0.00    -0.345 OA
BRANCH  11  12
HETATM   12  C   UNL     1      32.857  50.830  42.604  1.00  0.00     0.069 A 
HETATM   13  C   UNL     1      33.456  49.944  41.706  1.00  0.00     0.038 A 
HETATM   14  C   UNL     1      34.847  49.930  41.558  1.00  0.00     0.022 A 
HETATM   15  C   UNL     1      35.637  50.799  42.309  1.00  0.00     0.011 A 
HETATM   16  C   UNL     1      35.048  51.684  43.206  1.00  0.00     0.022 A 
HETATM   17 BR   UNL     1      37.516  50.776  42.105  1.00  0.00    -0.051 Br
HETATM   18  C   UNL     1      33.660  51.699  43.349  1.00  0.00     0.038 A 
ENDBRANCH  11  12
ENDBRANCH  10  11
ENDBRANCH   7  10
ENDBRANCH   1   5
BRANCH   2  19
HETATM   19  N   UNL     1      25.836  50.336  39.584  1.00  0.00    -0.274 N 
HETATM   20  H   UNL     1      25.041  50.976  39.570  1.00  0.00     0.189 HD
BRANCH  19  21
HETATM   21  C   UNL     1      25.574  49.000  39.750  1.00  0.00     0.186 C 
HETATM   22  S   UNL     1      24.508  48.110  38.813  1.00  0.00    -0.040 SA
BRANCH  21  23
HETATM   23  N   UNL     1      26.195  48.380  40.787  1.00  0.00    -0.364 N 
HETATM   24  H   UNL     1      26.456  48.993  41.555  1.00  0.00     0.162 HD
BRANCH  23  25
HETATM   25  C   UNL     1      26.732  47.024  40.880  1.00  0.00     0.154 C 
BRANCH  25  26
HETATM   26  C   UNL     1      28.263  46.996  40.734  1.00  0.00     0.139 C 
HETATM   27  O   UNL     1      28.763  48.349  40.693  1.00  0.00    -0.384 OA
HETATM   28  C   UNL     1      29.629  48.476  39.559  1.00  0.00     0.168 C 
HETATM   29  C   UNL     1      29.185  47.421  38.574  1.00  0.00     0.029 C 
HETATM   30  C   UNL     1      28.769  46.290  39.482  1.00  0.00     0.035 C 
ENDBRANCH  25  26
ENDBRANCH  23  25
ENDBRANCH  21  23
ENDBRANCH  19  21
ENDBRANCH   2  19
TORSDOF 9
ENDMDL
