MODEL 1
REMARK VINA RESULT:      -8.1      0.000      0.000
REMARK  2 active torsions:
REMARK  status: ('A' for Active; 'I' for Inactive)
REMARK    1  A    between atoms: N_8  and  C_9 
REMARK    2  A    between atoms: C_11  and  C_12 
ROOT
HETATM    1  C   UNL     1      26.072  43.127  49.186  1.00  0.00     0.269 C 
HETATM    2  N   UNL     1      26.502  42.803  50.591  1.00  0.00    -0.075 N 
HETATM    3  H   UNL     1      26.882  41.848  50.536  1.00  0.00     0.279 HD
HETATM    4  C   UNL     1      27.652  43.650  51.080  1.00  0.00     0.235 C 
HETATM    5  C   UNL     1      27.167  45.044  51.458  1.00  0.00     0.039 C 
HETATM    6  C   UNL     1      26.034  45.024  52.517  1.00  0.00    -0.021 C 
HETATM    7  C   UNL     1      26.552  44.496  53.880  1.00  0.00     0.151 C 
HETATM    8  N   UNL     1      27.576  45.407  54.348  1.00  0.00    -0.213 N 
HETATM    9  C   UNL     1      27.132  46.749  54.699  1.00  0.00     0.141 C 
HETATM   10  C   UNL     1      26.499  47.385  53.454  1.00  0.00     0.021 C 
HETATM   11  C   UNL     1      25.488  46.460  52.759  1.00  0.00     0.013 C 
HETATM   12  C   UNL     1      24.894  44.122  51.988  1.00  0.00     0.039 C 
HETATM   13  C   UNL     1      25.363  42.729  51.572  1.00  0.00     0.235 C 
ENDROOT
BRANCH   8  14
HETATM   14  C   UNL     1      28.738  44.899  54.877  1.00  0.00     0.724 A 
HETATM   15  N   UNL     1      29.133  45.371  56.070  1.00  0.00    -0.058 NA
HETATM   16  C   UNL     1      30.228  44.818  56.660  1.00  0.00     0.160 A 
HETATM   17  C   UNL     1      30.947  43.809  56.056  1.00  0.00     0.057 A 
HETATM   18  C   UNL     1      30.473  43.389  54.841  1.00  0.00     0.139 A 
HETATM   19  N   UNL     1      29.380  43.906  54.252  1.00  0.00    -0.075 NA
BRANCH  16  20
HETATM   20  C   UNL     1      30.653  45.334  58.021  1.00  0.00     0.435 C 
HETATM   21  F   UNL     1      30.957  46.669  58.017  1.00  0.00    -0.165 F 
HETATM   22  F   UNL     1      29.686  45.184  58.970  1.00  0.00    -0.165 F 
HETATM   23  F   UNL     1      31.757  44.703  58.506  1.00  0.00    -0.165 F 
ENDBRANCH  16  20
ENDBRANCH   8  14
TORSDOF 2
ENDMDL
MODEL 2
REMARK VINA RESULT:      -7.7      2.496      3.233
REMARK  2 active torsions:
REMARK  status: ('A' for Active; 'I' for Inactive)
REMARK    1  A    between atoms: N_8  and  C_9 
REMARK    2  A    between atoms: C_11  and  C_12 
ROOT
HETATM    1  C   UNL     1      25.314  41.798  48.549  1.00  0.00     0.269 C 
HETATM    2  N   UNL     1      25.406  42.043  50.031  1.00  0.00    -0.075 N 
HETATM    3  H   UNL     1      25.609  41.119  50.438  1.00  0.00     0.279 HD
HETATM    4  C   UNL     1      26.577  42.909  50.428  1.00  0.00     0.235 C 
HETATM    5  C   UNL     1      26.291  44.372  50.117  1.00  0.00     0.039 C 
HETATM    6  C   UNL     1      24.993  44.891  50.791  1.00  0.00    -0.021 C 
HETATM    7  C   UNL     1      25.140  44.926  52.334  1.00  0.00     0.151 C 
HETATM    8  N   UNL     1      26.206  45.853  52.658  1.00  0.00    -0.213 N 
HETATM    9  C   UNL     1      25.954  47.254  52.352  1.00  0.00     0.141 C 
HETATM   10  C   UNL     1      25.693  47.376  50.845  1.00  0.00     0.021 C 
HETATM   11  C   UNL     1      24.681  46.343  50.327  1.00  0.00     0.013 C 
HETATM   12  C   UNL     1      23.829  43.959  50.381  1.00  0.00     0.039 C 
HETATM   13  C   UNL     1      24.107  42.482  50.654  1.00  0.00     0.235 C 
ENDROOT
BRANCH   8  14
HETATM   14  C   UNL     1      27.134  45.503  53.608  1.00  0.00     0.724 A 
HETATM   15  N   UNL     1      27.953  44.477  53.324  1.00  0.00    -0.058 NA
HETATM   16  C   UNL     1      28.943  44.170  54.205  1.00  0.00     0.160 A 
HETATM   17  C   UNL     1      29.109  44.867  55.384  1.00  0.00     0.057 A 
HETATM   18  C   UNL     1      28.230  45.896  55.592  1.00  0.00     0.139 A 
HETATM   19  N   UNL     1      27.260  46.231  54.722  1.00  0.00    -0.075 NA
BRANCH  16  20
HETATM   20  C   UNL     1      29.884  43.029  53.867  1.00  0.00     0.435 C 
HETATM   21  F   UNL     1      29.299  41.798  53.989  1.00  0.00    -0.165 F 
HETATM   22  F   UNL     1      30.346  43.087  52.586  1.00  0.00    -0.165 F 
HETATM   23  F   UNL     1      30.986  42.997  54.665  1.00  0.00    -0.165 F 
ENDBRANCH  16  20
ENDBRANCH   8  14
TORSDOF 2
ENDMDL
MODEL 3
REMARK VINA RESULT:      -7.6      2.415      3.724
REMARK  2 active torsions:
REMARK  status: ('A' for Active; 'I' for Inactive)
REMARK    1  A    between atoms: N_8  and  C_9 
REMARK    2  A    between atoms: C_11  and  C_12 
ROOT
HETATM    1  C   UNL     1      24.005  44.700  49.920  1.00  0.00     0.269 C 
HETATM    2  N   UNL     1      25.295  45.215  50.499  1.00  0.00    -0.075 N 
HETATM    3  H   UNL     1      25.213  46.241  50.450  1.00  0.00     0.279 HD
HETATM    4  C   UNL     1      25.461  44.909  51.967  1.00  0.00     0.235 C 
HETATM    5  C   UNL     1      25.854  43.451  52.169  1.00  0.00     0.039 C 
HETATM    6  C   UNL     1      27.140  43.058  51.395  1.00  0.00    -0.021 C 
HETATM    7  C   UNL     1      28.381  43.794  51.962  1.00  0.00     0.151 C 
HETATM    8  N   UNL     1      28.552  43.379  53.340  1.00  0.00    -0.213 N 
HETATM    9  C   UNL     1      28.912  41.984  53.551  1.00  0.00     0.141 C 
HETATM   10  C   UNL     1      27.804  41.107  52.950  1.00  0.00     0.021 C 
HETATM   11  C   UNL     1      27.411  41.532  51.527  1.00  0.00     0.013 C 
HETATM   12  C   UNL     1      26.934  43.417  49.905  1.00  0.00     0.039 C 
HETATM   13  C   UNL     1      26.509  44.867  49.680  1.00  0.00     0.235 C 
ENDROOT
BRANCH   8  14
HETATM   14  C   UNL     1      28.836  44.323  54.296  1.00  0.00     0.724 A 
HETATM   15  N   UNL     1      28.021  45.388  54.374  1.00  0.00    -0.058 NA
HETATM   16  C   UNL     1      28.223  46.291  55.372  1.00  0.00     0.160 A 
HETATM   17  C   UNL     1      29.249  46.152  56.282  1.00  0.00     0.057 A 
HETATM   18  C   UNL     1      30.030  45.037  56.128  1.00  0.00     0.139 A 
HETATM   19  N   UNL     1      29.833  44.120  55.163  1.00  0.00    -0.075 NA
BRANCH  16  20
HETATM   20  C   UNL     1      27.282  47.477  55.475  1.00  0.00     0.435 C 
HETATM   21  F   UNL     1      27.770  48.602  54.867  1.00  0.00    -0.165 F 
HETATM   22  F   UNL     1      26.072  47.244  54.893  1.00  0.00    -0.165 F 
HETATM   23  F   UNL     1      27.019  47.834  56.762  1.00  0.00    -0.165 F 
ENDBRANCH  16  20
ENDBRANCH   8  14
TORSDOF 2
ENDMDL
MODEL 4
REMARK VINA RESULT:      -7.6      6.048      7.678
REMARK  2 active torsions:
REMARK  status: ('A' for Active; 'I' for Inactive)
REMARK    1  A    between atoms: N_8  and  C_9 
REMARK    2  A    between atoms: C_11  and  C_12 
ROOT
HETATM    1  C   UNL     1      24.315  41.654  48.949  1.00  0.00     0.269 C 
HETATM    2  N   UNL     1      25.193  42.837  48.640  1.00  0.00    -0.075 N 
HETATM    3  H   UNL     1      25.327  42.804  47.619  1.00  0.00     0.279 HD
HETATM    4  C   UNL     1      24.528  44.166  48.901  1.00  0.00     0.235 C 
HETATM    5  C   UNL     1      24.502  44.467  50.394  1.00  0.00     0.039 C 
HETATM    6  C   UNL     1      25.912  44.441  51.041  1.00  0.00    -0.021 C 
HETATM    7  C   UNL     1      26.793  45.600  50.507  1.00  0.00     0.151 C 
HETATM    8  N   UNL     1      26.159  46.849  50.881  1.00  0.00    -0.213 N 
HETATM    9  C   UNL     1      26.112  47.144  52.306  1.00  0.00     0.141 C 
HETATM   10  C   UNL     1      25.336  46.018  53.003  1.00  0.00     0.021 C 
HETATM   11  C   UNL     1      25.807  44.618  52.583  1.00  0.00     0.013 C 
HETATM   12  C   UNL     1      26.565  43.077  50.722  1.00  0.00     0.039 C 
HETATM   13  C   UNL     1      26.573  42.738  49.233  1.00  0.00     0.235 C 
ENDROOT
BRANCH   8  14
HETATM   14  C   UNL     1      26.072  47.861  49.957  1.00  0.00     0.724 A 
HETATM   15  N   UNL     1      24.852  48.358  49.697  1.00  0.00    -0.058 NA
HETATM   16  C   UNL     1      24.746  49.423  48.857  1.00  0.00     0.160 A 
HETATM   17  C   UNL     1      25.852  49.985  48.254  1.00  0.00     0.057 A 
HETATM   18  C   UNL     1      27.055  49.415  48.575  1.00  0.00     0.139 A 
HETATM   19  N   UNL     1      27.183  48.378  49.421  1.00  0.00    -0.075 NA
BRANCH  16  20
HETATM   20  C   UNL     1      23.369  50.000  48.590  1.00  0.00     0.435 C 
HETATM   21  F   UNL     1      23.116  50.186  47.257  1.00  0.00    -0.165 F 
HETATM   22  F   UNL     1      22.364  49.200  49.043  1.00  0.00    -0.165 F 
HETATM   23  F   UNL     1      23.180  51.213  49.176  1.00  0.00    -0.165 F 
ENDBRANCH  16  20
ENDBRANCH   8  14
TORSDOF 2
ENDMDL
MODEL 5
REMARK VINA RESULT:      -7.5      1.786      3.407
REMARK  2 active torsions:
REMARK  status: ('A' for Active; 'I' for Inactive)
REMARK    1  A    between atoms: N_8  and  C_9 
REMARK    2  A    between atoms: C_11  and  C_12 
ROOT
HETATM    1  C   UNL     1      22.986  44.518  49.917  1.00  0.00     0.269 C 
HETATM    2  N   UNL     1      24.205  45.167  50.514  1.00  0.00    -0.075 N 
HETATM    3  H   UNL     1      23.903  46.121  50.755  1.00  0.00     0.279 HD
HETATM    4  C   UNL     1      24.634  44.553  51.824  1.00  0.00     0.235 C 
HETATM    5  C   UNL     1      25.349  43.229  51.587  1.00  0.00     0.039 C 
HETATM    6  C   UNL     1      26.569  43.362  50.637  1.00  0.00    -0.021 C 
HETATM    7  C   UNL     1      27.693  44.210  51.287  1.00  0.00     0.151 C 
HETATM    8  N   UNL     1      28.137  43.517  52.481  1.00  0.00    -0.213 N 
HETATM    9  C   UNL     1      28.809  42.242  52.272  1.00  0.00     0.141 C 
HETATM   10  C   UNL     1      27.839  41.304  51.540  1.00  0.00     0.021 C 
HETATM   11  C   UNL     1      27.172  41.963  50.324  1.00  0.00     0.013 C 
HETATM   12  C   UNL     1      26.089  44.022  49.323  1.00  0.00     0.039 C 
HETATM   13  C   UNL     1      25.341  45.336  49.539  1.00  0.00     0.235 C 
ENDROOT
BRANCH   8  14
HETATM   14  C   UNL     1      28.345  44.232  53.635  1.00  0.00     0.724 A 
HETATM   15  N   UNL     1      29.356  43.845  54.428  1.00  0.00    -0.058 NA
HETATM   16  C   UNL     1      29.644  44.591  55.529  1.00  0.00     0.160 A 
HETATM   17  C   UNL     1      28.913  45.713  55.858  1.00  0.00     0.057 A 
HETATM   18  C   UNL     1      27.901  46.035  54.993  1.00  0.00     0.139 A 
HETATM   19  N   UNL     1      27.616  45.324  53.887  1.00  0.00    -0.075 NA
BRANCH  16  20
HETATM   20  C   UNL     1      30.806  44.167  56.407  1.00  0.00     0.435 C 
HETATM   21  F   UNL     1      30.905  42.808  56.545  1.00  0.00    -0.165 F 
HETATM   22  F   UNL     1      32.012  44.572  55.920  1.00  0.00    -0.165 F 
HETATM   23  F   UNL     1      30.724  44.663  57.672  1.00  0.00    -0.165 F 
ENDBRANCH  16  20
ENDBRANCH   8  14
TORSDOF 2
ENDMDL
MODEL 6
REMARK VINA RESULT:      -7.5      5.085      7.032
REMARK  2 active torsions:
REMARK  status: ('A' for Active; 'I' for Inactive)
REMARK    1  A    between atoms: N_8  and  C_9 
REMARK    2  A    between atoms: C_11  and  C_12 
ROOT
HETATM    1  C   UNL     1      25.567  46.921  52.663  1.00  0.00     0.269 C 
HETATM    2  N   UNL     1      25.355  45.434  52.567  1.00  0.00    -0.075 N 
HETATM    3  H   UNL     1      24.404  45.330  52.185  1.00  0.00     0.279 HD
HETATM    4  C   UNL     1      26.254  44.760  51.560  1.00  0.00     0.235 C 
HETATM    5  C   UNL     1      27.663  44.609  52.118  1.00  0.00     0.039 C 
HETATM    6  C   UNL     1      27.702  43.840  53.465  1.00  0.00    -0.021 C 
HETATM    7  C   UNL     1      27.284  42.359  53.274  1.00  0.00     0.151 C 
HETATM    8  N   UNL     1      28.244  41.738  52.384  1.00  0.00    -0.213 N 
HETATM    9  C   UNL     1      29.600  41.600  52.896  1.00  0.00     0.141 C 
HETATM   10  C   UNL     1      30.132  43.001  53.226  1.00  0.00     0.021 C 
HETATM   11  C   UNL     1      29.143  43.838  54.051  1.00  0.00     0.013 C 
HETATM   12  C   UNL     1      26.745  44.547  54.453  1.00  0.00     0.039 C 
HETATM   13  C   UNL     1      25.333  44.738  53.902  1.00  0.00     0.235 C 
ENDROOT
BRANCH   8  14
HETATM   14  C   UNL     1      27.795  40.921  51.375  1.00  0.00     0.724 A 
HETATM   15  N   UNL     1      28.653  40.010  50.889  1.00  0.00    -0.058 NA
HETATM   16  C   UNL     1      28.206  39.126  49.956  1.00  0.00     0.160 A 
HETATM   17  C   UNL     1      26.911  39.158  49.486  1.00  0.00     0.057 A 
HETATM   18  C   UNL     1      26.105  40.119  50.036  1.00  0.00     0.139 A 
HETATM   19  N   UNL     1      26.520  40.986  50.977  1.00  0.00    -0.075 NA
BRANCH  16  20
HETATM   20  C   UNL     1      29.171  38.080  49.431  1.00  0.00     0.435 C 
HETATM   21  F   UNL     1      30.388  38.600  49.082  1.00  0.00    -0.165 F 
HETATM   22  F   UNL     1      29.441  37.104  50.343  1.00  0.00    -0.165 F 
HETATM   23  F   UNL     1      28.708  37.441  48.321  1.00  0.00    -0.165 F 
ENDBRANCH  16  20
ENDBRANCH   8  14
TORSDOF 2
ENDMDL
MODEL 7
REMARK VINA RESULT:      -7.3      5.971      7.724
REMARK  2 active torsions:
REMARK  status: ('A' for Active; 'I' for Inactive)
REMARK    1  A    between atoms: N_8  and  C_9 
REMARK    2  A    between atoms: C_11  and  C_12 
ROOT
HETATM    1  C   UNL     1      18.514  49.278  47.629  1.00  0.00     0.269 C 
HETATM    2  N   UNL     1      19.396  48.868  48.778  1.00  0.00    -0.075 N 
HETATM    3  H   UNL     1      18.805  48.253  49.355  1.00  0.00     0.279 HD
HETATM    4  C   UNL     1      20.564  48.007  48.364  1.00  0.00     0.235 C 
HETATM    5  C   UNL     1      21.652  48.856  47.719  1.00  0.00     0.039 C 
HETATM    6  C   UNL     1      22.140  50.011  48.634  1.00  0.00    -0.021 C 
HETATM    7  C   UNL     1      22.875  49.462  49.884  1.00  0.00     0.151 C 
HETATM    8  N   UNL     1      24.044  48.737  49.428  1.00  0.00    -0.213 N 
HETATM    9  C   UNL     1      25.088  49.532  48.795  1.00  0.00     0.141 C 
HETATM   10  C   UNL     1      24.482  50.227  47.569  1.00  0.00     0.021 C 
HETATM   11  C   UNL     1      23.146  50.922  47.873  1.00  0.00     0.013 C 
HETATM   12  C   UNL     1      20.908  50.845  49.056  1.00  0.00     0.039 C 
HETATM   13  C   UNL     1      19.790  50.010  49.676  1.00  0.00     0.235 C 
ENDROOT
BRANCH   8  14
HETATM   14  C   UNL     1      24.341  47.519  49.990  1.00  0.00     0.724 A 
HETATM   15  N   UNL     1      25.088  47.520  51.106  1.00  0.00    -0.058 NA
HETATM   16  C   UNL     1      25.319  46.336  51.737  1.00  0.00     0.160 A 
HETATM   17  C   UNL     1      24.828  45.144  51.248  1.00  0.00     0.057 A 
HETATM   18  C   UNL     1      24.077  45.237  50.106  1.00  0.00     0.139 A 
HETATM   19  N   UNL     1      23.818  46.400  49.481  1.00  0.00    -0.075 NA
BRANCH  16  20
HETATM   20  C   UNL     1      26.138  46.344  53.014  1.00  0.00     0.435 C 
HETATM   21  F   UNL     1      27.130  45.401  53.020  1.00  0.00    -0.165 F 
HETATM   22  F   UNL     1      26.766  47.534  53.231  1.00  0.00    -0.165 F 
HETATM   23  F   UNL     1      25.390  46.104  54.125  1.00  0.00    -0.165 F 
ENDBRANCH  16  20
ENDBRANCH   8  14
TORSDOF 2
ENDMDL
MODEL 8
REMARK VINA RESULT:      -7.1      4.949      6.809
REMARK  2 active torsions:
REMARK  status: ('A' for Active; 'I' for Inactive)
REMARK    1  A    between atoms: N_8  and  C_9 
REMARK    2  A    between atoms: C_11  and  C_12 
ROOT
HETATM    1  C   UNL     1      24.863  47.108  50.063  1.00  0.00     0.269 C 
HETATM    2  N   UNL     1      24.872  45.609  49.934  1.00  0.00    -0.075 N 
HETATM    3  H   UNL     1      24.278  45.413  49.115  1.00  0.00     0.279 HD
HETATM    4  C   UNL     1      26.225  45.043  49.576  1.00  0.00     0.235 C 
HETATM    5  C   UNL     1      27.138  45.030  50.794  1.00  0.00     0.039 C 
HETATM    6  C   UNL     1      26.536  44.250  51.993  1.00  0.00    -0.021 C 
HETATM    7  C   UNL     1      26.421  42.737  51.675  1.00  0.00     0.151 C 
HETATM    8  N   UNL     1      27.759  42.229  51.446  1.00  0.00    -0.213 N 
HETATM    9  C   UNL     1      28.651  42.223  52.598  1.00  0.00     0.141 C 
HETATM   10  C   UNL     1      28.796  43.667  53.098  1.00  0.00     0.021 C 
HETATM   11  C   UNL     1      27.447  44.387  53.247  1.00  0.00     0.013 C 
HETATM   12  C   UNL     1      25.142  44.843  52.303  1.00  0.00     0.039 C 
HETATM   13  C   UNL     1      24.219  44.897  51.088  1.00  0.00     0.235 C 
ENDROOT
BRANCH   8  14
HETATM   14  C   UNL     1      27.985  41.383  50.387  1.00  0.00     0.724 A 
HETATM   15  N   UNL     1      28.556  40.198  50.654  1.00  0.00    -0.058 NA
HETATM   16  C   UNL     1      28.705  39.303  49.639  1.00  0.00     0.160 A 
HETATM   17  C   UNL     1      28.309  39.593  48.351  1.00  0.00     0.057 A 
HETATM   18  C   UNL     1      27.738  40.825  48.169  1.00  0.00     0.139 A 
HETATM   19  N   UNL     1      27.559  41.713  49.164  1.00  0.00    -0.075 NA
BRANCH  16  20
HETATM   20  C   UNL     1      29.323  37.953  49.950  1.00  0.00     0.435 C 
HETATM   21  F   UNL     1      28.399  37.015  50.324  1.00  0.00    -0.165 F 
HETATM   22  F   UNL     1      29.979  37.414  48.884  1.00  0.00    -0.165 F 
HETATM   23  F   UNL     1      30.230  38.006  50.964  1.00  0.00    -0.165 F 
ENDBRANCH  16  20
ENDBRANCH   8  14
TORSDOF 2
ENDMDL
MODEL 9
REMARK VINA RESULT:      -7.1     13.956     15.080
REMARK  2 active torsions:
REMARK  status: ('A' for Active; 'I' for Inactive)
REMARK    1  A    between atoms: N_8  and  C_9 
REMARK    2  A    between atoms: C_11  and  C_12 
ROOT
HETATM    1  C   UNL     1      28.330  46.839  38.208  1.00  0.00     0.269 C 
HETATM    2  N   UNL     1      28.694  47.429  39.544  1.00  0.00    -0.075 N 
HETATM    3  H   UNL     1      28.962  46.621  40.123  1.00  0.00     0.279 HD
HETATM    4  C   UNL     1      29.924  48.302  39.503  1.00  0.00     0.235 C 
HETATM    5  C   UNL     1      29.597  49.659  38.896  1.00  0.00     0.039 C 
HETATM    6  C   UNL     1      28.449  50.393  39.638  1.00  0.00    -0.021 C 
HETATM    7  C   UNL     1      28.877  50.791  41.074  1.00  0.00     0.151 C 
HETATM    8  N   UNL     1      29.991  51.712  40.967  1.00  0.00    -0.213 N 
HETATM    9  C   UNL     1      29.698  53.009  40.374  1.00  0.00     0.141 C 
HETATM   10  C   UNL     1      29.166  52.778  38.953  1.00  0.00     0.021 C 
HETATM   11  C   UNL     1      28.068  51.705  38.893  1.00  0.00     0.013 C 
HETATM   12  C   UNL     1      27.223  49.452  39.682  1.00  0.00     0.039 C 
HETATM   13  C   UNL     1      27.535  48.072  40.258  1.00  0.00     0.235 C 
ENDROOT
BRANCH   8  14
HETATM   14  C   UNL     1      31.075  51.553  41.795  1.00  0.00     0.724 A 
HETATM   15  N   UNL     1      32.118  50.854  41.320  1.00  0.00    -0.058 NA
HETATM   16  C   UNL     1      33.242  50.761  42.082  1.00  0.00     0.160 A 
HETATM   17  C   UNL     1      33.325  51.344  43.328  1.00  0.00     0.057 A 
HETATM   18  C   UNL     1      32.216  52.038  43.733  1.00  0.00     0.139 A 
HETATM   19  N   UNL     1      31.104  52.161  42.985  1.00  0.00    -0.075 NA
BRANCH  16  20
HETATM   20  C   UNL     1      34.429  49.995  41.529  1.00  0.00     0.435 C 
HETATM   21  F   UNL     1      34.154  48.674  41.299  1.00  0.00    -0.165 F 
HETATM   22  F   UNL     1      34.868  50.488  40.337  1.00  0.00    -0.165 F 
HETATM   23  F   UNL     1      35.505  50.010  42.363  1.00  0.00    -0.165 F 
ENDBRANCH  16  20
ENDBRANCH   8  14
TORSDOF 2
ENDMDL
MODEL 10
REMARK VINA RESULT:      -7.0     13.922     15.622
REMARK  2 active torsions:
REMARK  status: ('A' for Active; 'I' for Inactive)
REMARK    1  A    between atoms: N_8  and  C_9 
REMARK    2  A    between atoms: C_11  and  C_12 
ROOT
HETATM    1  C   UNL     1      28.563  46.963  40.034  1.00  0.00     0.269 C 
HETATM    2  N   UNL     1      29.660  47.754  40.694  1.00  0.00    -0.075 N 
HETATM    3  H   UNL     1      30.372  47.054  40.946  1.00  0.00     0.279 HD
HETATM    4  C   UNL     1      30.365  48.705  39.757  1.00  0.00     0.235 C 
HETATM    5  C   UNL     1      29.509  49.940  39.505  1.00  0.00     0.039 C 
HETATM    6  C   UNL     1      29.111  50.677  40.811  1.00  0.00    -0.021 C 
HETATM    7  C   UNL     1      30.352  51.296  41.504  1.00  0.00     0.151 C 
HETATM    8  N   UNL     1      30.921  52.276  40.602  1.00  0.00    -0.213 N 
HETATM    9  C   UNL     1      30.109  53.456  40.337  1.00  0.00     0.141 C 
HETATM   10  C   UNL     1      28.781  52.995  39.722  1.00  0.00     0.021 C 
HETATM   11  C   UNL     1      28.128  51.843  40.502  1.00  0.00     0.013 C 
HETATM   12  C   UNL     1      28.421  49.659  41.749  1.00  0.00     0.039 C 
HETATM   13  C   UNL     1      29.248  48.397  41.991  1.00  0.00     0.235 C 
ENDROOT
BRANCH   8  14
HETATM   14  C   UNL     1      32.283  52.315  40.424  1.00  0.00     0.724 A 
HETATM   15  N   UNL     1      32.999  51.289  40.911  1.00  0.00    -0.058 NA
HETATM   16  C   UNL     1      34.338  51.254  40.668  1.00  0.00     0.160 A 
HETATM   17  C   UNL     1      34.973  52.250  39.958  1.00  0.00     0.057 A 
HETATM   18  C   UNL     1      34.166  53.258  39.498  1.00  0.00     0.139 A 
HETATM   19  N   UNL     1      32.838  53.298  39.708  1.00  0.00    -0.075 NA
BRANCH  16  20
HETATM   20  C   UNL     1      35.138  50.078  41.195  1.00  0.00     0.435 C 
HETATM   21  F   UNL     1      35.595  50.271  42.471  1.00  0.00    -0.165 F 
HETATM   22  F   UNL     1      34.416  48.923  41.237  1.00  0.00    -0.165 F 
HETATM   23  F   UNL     1      36.240  49.807  40.443  1.00  0.00    -0.165 F 
ENDBRANCH  16  20
ENDBRANCH   8  14
TORSDOF 2
ENDMDL
