MODEL 1
REMARK VINA RESULT:     -10.5      0.000      0.000
REMARK  7 active torsions:
REMARK  status: ('A' for Active; 'I' for Inactive)
REMARK    1  A    between atoms: C_4  and  N_5 
REMARK       I    between atoms: N_5  and  C_6 
REMARK       I    between atoms: C_6  and  N_7 
REMARK    2  A    between atoms: N_7  and  N_8 
REMARK       I    between atoms: N_8  and  C_9 
REMARK    3  A    between atoms: C_9  and  C_10 
REMARK    4  A    between atoms: C_10  and  N_11 
REMARK    5  A    between atoms: C_10  and  C_19 
REMARK       I    between atoms: N_11  and  C_12 
REMARK    6  A    between atoms: C_12  and  C_13 
REMARK    7  A    between atoms: C_19  and  C_20 
ROOT
HETATM    1  C   UNL     1      27.174  43.293  53.326  1.00  0.00     0.183 C 
ENDROOT
BRANCH   1   2
HETATM    2  C   UNL     1      25.930  44.156  53.046  1.00  0.00     0.259 C 
HETATM    3  N   UNL     1      26.043  45.063  52.017  1.00  0.00    -0.264 N 
HETATM    4  H   UNL     1      26.849  45.079  51.379  1.00  0.00     0.190 HD
HETATM    5  O   UNL     1      24.926  44.104  53.762  1.00  0.00    -0.269 OA
BRANCH   3   6
HETATM    6  N   UNL     1      24.898  45.761  51.606  1.00  0.00    -0.249 N 
HETATM    7  C   UNL     1      25.056  46.735  50.630  1.00  0.00     0.339 C 
HETATM    8  N   UNL     1      23.862  47.373  50.362  1.00  0.00    -0.308 N 
HETATM    9  O   UNL     1      26.135  46.929  50.079  1.00  0.00    -0.245 OA
HETATM   10  H   UNL     1      23.047  46.968  50.795  1.00  0.00     0.170 HD
HETATM   11  H   UNL     1      24.182  45.861  52.320  1.00  0.00     0.192 HD
BRANCH   8  12
HETATM   12  C   UNL     1      23.636  48.418  49.444  1.00  0.00     0.036 A 
HETATM   13  C   UNL     1      24.651  49.185  48.869  1.00  0.00     0.029 A 
HETATM   14  C   UNL     1      24.344  50.203  47.961  1.00  0.00     0.002 A 
HETATM   15  C   UNL     1      23.020  50.464  47.621  1.00  0.00     0.000 A 
HETATM   16  C   UNL     1      21.998  49.710  48.192  1.00  0.00     0.002 A 
HETATM   17  C   UNL     1      22.305  48.694  49.101  1.00  0.00     0.029 A 
ENDBRANCH   8  12
ENDBRANCH   3   6
ENDBRANCH   1   2
BRANCH   1  18
HETATM   18  N   UNL     1      27.209  42.068  52.518  1.00  0.00    -0.343 N 
HETATM   19  C   UNL     1      27.380  42.030  51.154  1.00  0.00     0.259 C 
HETATM   20  O   UNL     1      27.377  43.066  50.492  1.00  0.00    -0.267 OA
HETATM   21  H   UNL     1      27.336  41.193  53.014  1.00  0.00     0.163 HD
BRANCH  19  22
HETATM   22  C   UNL     1      27.521  40.710  50.557  1.00  0.00     0.072 A 
HETATM   23  S   UNL     1      26.294  39.999  49.593  1.00  0.00    -0.097 SA
HETATM   24  C   UNL     1      27.231  38.597  49.309  1.00  0.00     0.050 A 
HETATM   25  C   UNL     1      28.452  38.656  49.940  1.00  0.00     0.009 A 
HETATM   26  C   UNL     1      28.617  39.872  50.663  1.00  0.00     0.025 A 
ENDBRANCH  19  22
ENDBRANCH   1  18
BRANCH   1  27
HETATM   27  C   UNL     1      28.445  44.158  53.260  1.00  0.00     0.076 C 
BRANCH  27  28
HETATM   28  C   UNL     1      28.768  44.845  54.553  1.00  0.00    -0.028 A 
HETATM   29  C   UNL     1      29.741  44.454  55.528  1.00  0.00    -0.002 A 
HETATM   30  C   UNL     1      29.700  45.392  56.559  1.00  0.00     0.042 A 
HETATM   31  C   UNL     1      30.657  43.386  55.631  1.00  0.00     0.014 A 
HETATM   32  C   UNL     1      30.531  45.324  57.684  1.00  0.00     0.030 A 
HETATM   33  N   UNL     1      28.732  46.312  56.233  1.00  0.00    -0.365 N 
HETATM   34  C   UNL     1      31.434  44.259  57.757  1.00  0.00     0.002 A 
HETATM   35  C   UNL     1      31.497  43.303  56.748  1.00  0.00     0.001 A 
HETATM   36  H   UNL     1      28.476  47.104  56.806  1.00  0.00     0.165 HD
HETATM   37  C   UNL     1      28.167  45.995  55.028  1.00  0.00     0.096 A 
ENDBRANCH  27  28
ENDBRANCH   1  27
TORSDOF 7
ENDMDL
MODEL 2
REMARK VINA RESULT:     -10.2      1.507      2.030
REMARK  7 active torsions:
REMARK  status: ('A' for Active; 'I' for Inactive)
REMARK    1  A    between atoms: C_4  and  N_5 
REMARK       I    between atoms: N_5  and  C_6 
REMARK       I    between atoms: C_6  and  N_7 
REMARK    2  A    between atoms: N_7  and  N_8 
REMARK       I    between atoms: N_8  and  C_9 
REMARK    3  A    between atoms: C_9  and  C_10 
REMARK    4  A    between atoms: C_10  and  N_11 
REMARK    5  A    between atoms: C_10  and  C_19 
REMARK       I    between atoms: N_11  and  C_12 
REMARK    6  A    between atoms: C_12  and  C_13 
REMARK    7  A    between atoms: C_19  and  C_20 
ROOT
HETATM    1  C   UNL     1      26.449  43.281  52.020  1.00  0.00     0.183 C 
ENDROOT
BRANCH   1   2
HETATM    2  C   UNL     1      25.204  43.905  51.363  1.00  0.00     0.259 C 
HETATM    3  N   UNL     1      25.407  45.084  50.682  1.00  0.00    -0.264 N 
HETATM    4  H   UNL     1      26.345  45.462  50.498  1.00  0.00     0.190 HD
HETATM    5  O   UNL     1      24.076  43.427  51.519  1.00  0.00    -0.269 OA
BRANCH   3   6
HETATM    6  N   UNL     1      24.351  45.616  49.927  1.00  0.00    -0.249 N 
HETATM    7  C   UNL     1      24.173  46.992  49.954  1.00  0.00     0.339 C 
HETATM    8  N   UNL     1      23.072  47.367  49.212  1.00  0.00    -0.308 N 
HETATM    9  O   UNL     1      24.952  47.733  50.543  1.00  0.00    -0.245 OA
HETATM   10  H   UNL     1      22.647  46.636  48.664  1.00  0.00     0.170 HD
HETATM   11  H   UNL     1      23.554  44.996  49.817  1.00  0.00     0.192 HD
BRANCH   8  12
HETATM   12  C   UNL     1      22.575  48.671  49.017  1.00  0.00     0.036 A 
HETATM   13  C   UNL     1      23.360  49.753  48.612  1.00  0.00     0.029 A 
HETATM   14  C   UNL     1      22.788  51.018  48.436  1.00  0.00     0.002 A 
HETATM   15  C   UNL     1      21.430  51.213  48.665  1.00  0.00     0.000 A 
HETATM   16  C   UNL     1      20.638  50.143  49.074  1.00  0.00     0.002 A 
HETATM   17  C   UNL     1      21.209  48.880  49.252  1.00  0.00     0.029 A 
ENDBRANCH   8  12
ENDBRANCH   3   6
ENDBRANCH   1   2
BRANCH   1  18
HETATM   18  N   UNL     1      26.916  42.076  51.322  1.00  0.00    -0.343 N 
HETATM   19  C   UNL     1      27.291  42.029  50.000  1.00  0.00     0.259 C 
HETATM   20  O   UNL     1      27.122  42.999  49.264  1.00  0.00    -0.267 OA
HETATM   21  H   UNL     1      27.187  41.287  51.897  1.00  0.00     0.163 HD
BRANCH  19  22
HETATM   22  C   UNL     1      27.852  40.770  49.532  1.00  0.00     0.072 A 
HETATM   23  S   UNL     1      27.938  40.362  47.868  1.00  0.00    -0.097 SA
HETATM   24  C   UNL     1      28.694  38.865  48.201  1.00  0.00     0.050 A 
HETATM   25  C   UNL     1      28.874  38.668  49.552  1.00  0.00     0.009 A 
HETATM   26  C   UNL     1      28.384  39.763  50.318  1.00  0.00     0.025 A 
ENDBRANCH  19  22
ENDBRANCH   1  18
BRANCH   1  27
HETATM   27  C   UNL     1      27.522  44.358  52.254  1.00  0.00     0.076 C 
BRANCH  27  28
HETATM   28  C   UNL     1      28.677  43.882  53.083  1.00  0.00    -0.028 A 
HETATM   29  C   UNL     1      29.117  44.401  54.344  1.00  0.00    -0.002 A 
HETATM   30  C   UNL     1      30.218  43.645  54.745  1.00  0.00     0.042 A 
HETATM   31  C   UNL     1      28.680  45.446  55.185  1.00  0.00     0.014 A 
HETATM   32  C   UNL     1      30.901  43.873  55.946  1.00  0.00     0.030 A 
HETATM   33  N   UNL     1      30.449  42.711  53.762  1.00  0.00    -0.365 N 
HETATM   34  C   UNL     1      30.443  44.909  56.764  1.00  0.00     0.002 A 
HETATM   35  C   UNL     1      29.350  45.687  56.391  1.00  0.00     0.001 A 
HETATM   36  H   UNL     1      31.196  42.030  53.782  1.00  0.00     0.165 HD
HETATM   37  C   UNL     1      29.528  42.843  52.760  1.00  0.00     0.096 A 
ENDBRANCH  27  28
ENDBRANCH   1  27
TORSDOF 7
ENDMDL
MODEL 3
REMARK VINA RESULT:     -10.0      2.163      7.162
REMARK  7 active torsions:
REMARK  status: ('A' for Active; 'I' for Inactive)
REMARK    1  A    between atoms: C_4  and  N_5 
REMARK       I    between atoms: N_5  and  C_6 
REMARK       I    between atoms: C_6  and  N_7 
REMARK    2  A    between atoms: N_7  and  N_8 
REMARK       I    between atoms: N_8  and  C_9 
REMARK    3  A    between atoms: C_9  and  C_10 
REMARK    4  A    between atoms: C_10  and  N_11 
REMARK    5  A    between atoms: C_10  and  C_19 
REMARK       I    between atoms: N_11  and  C_12 
REMARK    6  A    between atoms: C_12  and  C_13 
REMARK    7  A    between atoms: C_19  and  C_20 
ROOT
HETATM    1  C   UNL     1      26.294  45.362  52.430  1.00  0.00     0.183 C 
ENDROOT
BRANCH   1   2
HETATM    2  C   UNL     1      25.627  44.061  51.945  1.00  0.00     0.259 C 
HETATM    3  N   UNL     1      26.474  43.099  51.442  1.00  0.00    -0.264 N 
HETATM    4  H   UNL     1      27.497  43.173  51.507  1.00  0.00     0.190 HD
HETATM    5  O   UNL     1      24.400  43.927  51.921  1.00  0.00    -0.269 OA
BRANCH   3   6
HETATM    6  N   UNL     1      25.951  41.834  51.137  1.00  0.00    -0.249 N 
HETATM    7  C   UNL     1      26.620  41.074  50.187  1.00  0.00     0.339 C 
HETATM    8  N   UNL     1      25.967  39.882  49.951  1.00  0.00    -0.308 N 
HETATM    9  O   UNL     1      27.676  41.448  49.689  1.00  0.00    -0.245 OA
HETATM   10  H   UNL     1      25.202  39.674  50.574  1.00  0.00     0.170 HD
HETATM   11  H   UNL     1      24.943  41.754  51.242  1.00  0.00     0.192 HD
BRANCH   8  12
HETATM   12  C   UNL     1      26.340  38.865  49.050  1.00  0.00     0.036 A 
HETATM   13  C   UNL     1      26.337  39.014  47.661  1.00  0.00     0.029 A 
HETATM   14  C   UNL     1      26.727  37.955  46.833  1.00  0.00     0.002 A 
HETATM   15  C   UNL     1      27.119  36.740  47.386  1.00  0.00     0.000 A 
HETATM   16  C   UNL     1      27.121  36.578  48.768  1.00  0.00     0.002 A 
HETATM   17  C   UNL     1      26.731  37.635  49.596  1.00  0.00     0.029 A 
ENDBRANCH   8  12
ENDBRANCH   3   6
ENDBRANCH   1   2
BRANCH   1  18
HETATM   18  N   UNL     1      25.953  46.520  51.595  1.00  0.00    -0.343 N 
HETATM   19  C   UNL     1      26.319  46.676  50.279  1.00  0.00     0.259 C 
HETATM   20  O   UNL     1      27.098  45.889  49.746  1.00  0.00    -0.267 OA
HETATM   21  H   UNL     1      25.223  47.134  51.937  1.00  0.00     0.163 HD
BRANCH  19  22
HETATM   22  C   UNL     1      25.766  47.832  49.587  1.00  0.00     0.072 A 
HETATM   23  S   UNL     1      24.079  48.098  49.440  1.00  0.00    -0.097 SA
HETATM   24  C   UNL     1      24.312  49.563  48.589  1.00  0.00     0.050 A 
HETATM   25  C   UNL     1      25.647  49.847  48.408  1.00  0.00     0.009 A 
HETATM   26  C   UNL     1      26.484  48.846  48.978  1.00  0.00     0.025 A 
ENDBRANCH  19  22
ENDBRANCH   1  18
BRANCH   1  27
HETATM   27  C   UNL     1      26.057  45.549  53.938  1.00  0.00     0.076 C 
BRANCH  27  28
HETATM   28  C   UNL     1      27.323  45.675  54.731  1.00  0.00    -0.028 A 
HETATM   29  C   UNL     1      28.384  44.717  54.837  1.00  0.00    -0.002 A 
HETATM   30  C   UNL     1      29.358  45.264  55.672  1.00  0.00     0.042 A 
HETATM   31  C   UNL     1      28.608  43.433  54.297  1.00  0.00     0.014 A 
HETATM   32  C   UNL     1      30.547  44.598  55.991  1.00  0.00     0.030 A 
HETATM   33  N   UNL     1      28.904  46.499  56.071  1.00  0.00    -0.365 N 
HETATM   34  C   UNL     1      30.748  43.330  55.437  1.00  0.00     0.002 A 
HETATM   35  C   UNL     1      29.793  42.754  54.604  1.00  0.00     0.001 A 
HETATM   36  H   UNL     1      29.403  47.120  56.693  1.00  0.00     0.165 HD
HETATM   37  C   UNL     1      27.684  46.757  55.511  1.00  0.00     0.096 A 
ENDBRANCH  27  28
ENDBRANCH   1  27
TORSDOF 7
ENDMDL
MODEL 4
REMARK VINA RESULT:      -9.9      2.550      7.696
REMARK  7 active torsions:
REMARK  status: ('A' for Active; 'I' for Inactive)
REMARK    1  A    between atoms: C_4  and  N_5 
REMARK       I    between atoms: N_5  and  C_6 
REMARK       I    between atoms: C_6  and  N_7 
REMARK    2  A    between atoms: N_7  and  N_8 
REMARK       I    between atoms: N_8  and  C_9 
REMARK    3  A    between atoms: C_9  and  C_10 
REMARK    4  A    between atoms: C_10  and  N_11 
REMARK    5  A    between atoms: C_10  and  C_19 
REMARK       I    between atoms: N_11  and  C_12 
REMARK    6  A    between atoms: C_12  and  C_13 
REMARK    7  A    between atoms: C_19  and  C_20 
ROOT
HETATM    1  C   UNL     1      26.037  47.026  50.853  1.00  0.00     0.183 C 
ENDROOT
BRANCH   1   2
HETATM    2  C   UNL     1      26.575  45.889  49.965  1.00  0.00     0.259 C 
HETATM    3  N   UNL     1      25.942  44.673  50.091  1.00  0.00    -0.264 N 
HETATM    4  H   UNL     1      25.078  44.552  50.635  1.00  0.00     0.190 HD
HETATM    5  O   UNL     1      27.574  46.034  49.254  1.00  0.00    -0.269 OA
BRANCH   3   6
HETATM    6  N   UNL     1      26.275  43.645  49.197  1.00  0.00    -0.249 N 
HETATM    7  C   UNL     1      26.719  42.445  49.735  1.00  0.00     0.339 C 
HETATM    8  N   UNL     1      27.057  41.548  48.743  1.00  0.00    -0.308 N 
HETATM    9  O   UNL     1      26.744  42.250  50.945  1.00  0.00    -0.245 OA
HETATM   10  H   UNL     1      26.816  41.826  47.804  1.00  0.00     0.170 HD
HETATM   11  H   UNL     1      26.617  43.961  48.294  1.00  0.00     0.192 HD
BRANCH   8  12
HETATM   12  C   UNL     1      27.555  40.239  48.905  1.00  0.00     0.036 A 
HETATM   13  C   UNL     1      28.891  39.884  48.710  1.00  0.00     0.029 A 
HETATM   14  C   UNL     1      29.308  38.561  48.895  1.00  0.00     0.002 A 
HETATM   15  C   UNL     1      28.393  37.583  49.273  1.00  0.00     0.000 A 
HETATM   16  C   UNL     1      27.057  37.925  49.465  1.00  0.00     0.002 A 
HETATM   17  C   UNL     1      26.640  39.246  49.279  1.00  0.00     0.029 A 
ENDBRANCH   8  12
ENDBRANCH   3   6
ENDBRANCH   1   2
BRANCH   1  18
HETATM   18  N   UNL     1      25.230  47.997  50.105  1.00  0.00    -0.343 N 
HETATM   19  C   UNL     1      24.021  47.723  49.511  1.00  0.00     0.259 C 
HETATM   20  O   UNL     1      23.596  46.571  49.453  1.00  0.00    -0.267 OA
HETATM   21  H   UNL     1      25.466  48.977  50.219  1.00  0.00     0.163 HD
BRANCH  19  22
HETATM   22  C   UNL     1      23.313  48.856  48.932  1.00  0.00     0.072 A 
HETATM   23  S   UNL     1      21.608  48.883  48.754  1.00  0.00    -0.097 SA
HETATM   24  C   UNL     1      21.632  50.455  48.080  1.00  0.00     0.050 A 
HETATM   25  C   UNL     1      22.911  50.953  47.980  1.00  0.00     0.009 A 
HETATM   26  C   UNL     1      23.880  50.029  48.466  1.00  0.00     0.025 A 
ENDBRANCH  19  22
ENDBRANCH   1  18
BRANCH   1  27
HETATM   27  C   UNL     1      25.365  46.445  52.109  1.00  0.00     0.076 C 
BRANCH  27  28
HETATM   28  C   UNL     1      26.179  46.618  53.357  1.00  0.00    -0.028 A 
HETATM   29  C   UNL     1      27.226  45.767  53.839  1.00  0.00    -0.002 A 
HETATM   30  C   UNL     1      27.702  46.323  55.027  1.00  0.00     0.042 A 
HETATM   31  C   UNL     1      27.816  44.573  53.375  1.00  0.00     0.014 A 
HETATM   32  C   UNL     1      28.741  45.752  55.771  1.00  0.00     0.030 A 
HETATM   33  N   UNL     1      26.966  47.459  55.267  1.00  0.00    -0.365 N 
HETATM   34  C   UNL     1      29.313  44.572  55.284  1.00  0.00     0.002 A 
HETATM   35  C   UNL     1      28.858  43.989  54.105  1.00  0.00     0.001 A 
HETATM   36  H   UNL     1      27.087  48.062  56.068  1.00  0.00     0.165 HD
HETATM   37  C   UNL     1      26.050  47.647  54.269  1.00  0.00     0.096 A 
ENDBRANCH  27  28
ENDBRANCH   1  27
TORSDOF 7
ENDMDL
MODEL 5
REMARK VINA RESULT:      -9.8      2.302      5.917
REMARK  7 active torsions:
REMARK  status: ('A' for Active; 'I' for Inactive)
REMARK    1  A    between atoms: C_4  and  N_5 
REMARK       I    between atoms: N_5  and  C_6 
REMARK       I    between atoms: C_6  and  N_7 
REMARK    2  A    between atoms: N_7  and  N_8 
REMARK       I    between atoms: N_8  and  C_9 
REMARK    3  A    between atoms: C_9  and  C_10 
REMARK    4  A    between atoms: C_10  and  N_11 
REMARK    5  A    between atoms: C_10  and  C_19 
REMARK       I    between atoms: N_11  and  C_12 
REMARK    6  A    between atoms: C_12  and  C_13 
REMARK    7  A    between atoms: C_19  and  C_20 
ROOT
HETATM    1  C   UNL     1      27.775  43.782  53.094  1.00  0.00     0.183 C 
ENDROOT
BRANCH   1   2
HETATM    2  C   UNL     1      26.788  44.929  52.808  1.00  0.00     0.259 C 
HETATM    3  N   UNL     1      25.906  44.723  51.771  1.00  0.00    -0.264 N 
HETATM    4  H   UNL     1      25.808  43.814  51.300  1.00  0.00     0.190 HD
HETATM    5  O   UNL     1      26.847  46.005  53.409  1.00  0.00    -0.269 OA
BRANCH   3   6
HETATM    6  N   UNL     1      24.879  45.655  51.565  1.00  0.00    -0.249 N 
HETATM    7  C   UNL     1      24.993  46.506  50.475  1.00  0.00     0.339 C 
HETATM    8  N   UNL     1      23.944  47.399  50.426  1.00  0.00    -0.308 N 
HETATM    9  O   UNL     1      25.910  46.401  49.666  1.00  0.00    -0.245 OA
HETATM   10  H   UNL     1      23.197  47.230  51.082  1.00  0.00     0.170 HD
HETATM   11  H   UNL     1      24.410  45.965  52.412  1.00  0.00     0.192 HD
BRANCH   8  12
HETATM   12  C   UNL     1      23.726  48.416  49.474  1.00  0.00     0.036 A 
HETATM   13  C   UNL     1      22.466  48.781  48.997  1.00  0.00     0.029 A 
HETATM   14  C   UNL     1      22.334  49.805  48.053  1.00  0.00     0.002 A 
HETATM   15  C   UNL     1      23.459  50.470  47.577  1.00  0.00     0.000 A 
HETATM   16  C   UNL     1      24.722  50.111  48.041  1.00  0.00     0.002 A 
HETATM   17  C   UNL     1      24.854  49.087  48.982  1.00  0.00     0.029 A 
ENDBRANCH   8  12
ENDBRANCH   3   6
ENDBRANCH   1   2
BRANCH   1  18
HETATM   18  N   UNL     1      28.518  43.971  54.346  1.00  0.00    -0.343 N 
HETATM   19  C   UNL     1      29.849  43.678  54.524  1.00  0.00     0.259 C 
HETATM   20  O   UNL     1      30.484  43.091  53.650  1.00  0.00    -0.267 OA
HETATM   21  H   UNL     1      28.085  44.553  55.054  1.00  0.00     0.163 HD
BRANCH  19  22
HETATM   22  C   UNL     1      30.432  44.063  55.800  1.00  0.00     0.072 A 
HETATM   23  S   UNL     1      30.052  45.545  56.577  1.00  0.00    -0.097 SA
HETATM   24  C   UNL     1      31.066  45.190  57.907  1.00  0.00     0.050 A 
HETATM   25  C   UNL     1      31.694  43.973  57.766  1.00  0.00     0.009 A 
HETATM   26  C   UNL     1      31.332  43.327  56.550  1.00  0.00     0.025 A 
ENDBRANCH  19  22
ENDBRANCH   1  18
BRANCH   1  27
HETATM   27  C   UNL     1      27.066  42.424  52.951  1.00  0.00     0.076 C 
BRANCH  27  28
HETATM   28  C   UNL     1      27.791  41.462  52.058  1.00  0.00    -0.028 A 
HETATM   29  C   UNL     1      27.648  41.312  50.641  1.00  0.00    -0.002 A 
HETATM   30  C   UNL     1      28.525  40.305  50.237  1.00  0.00     0.042 A 
HETATM   31  C   UNL     1      26.854  41.942  49.660  1.00  0.00     0.014 A 
HETATM   32  C   UNL     1      28.655  39.899  48.904  1.00  0.00     0.030 A 
HETATM   33  N   UNL     1      29.166  39.850  51.364  1.00  0.00    -0.365 N 
HETATM   34  C   UNL     1      27.861  40.545  47.951  1.00  0.00     0.002 A 
HETATM   35  C   UNL     1      26.972  41.550  48.321  1.00  0.00     0.001 A 
HETATM   36  H   UNL     1      29.854  39.109  51.374  1.00  0.00     0.165 HD
HETATM   37  C   UNL     1      28.735  40.538  52.464  1.00  0.00     0.096 A 
ENDBRANCH  27  28
ENDBRANCH   1  27
TORSDOF 7
ENDMDL
MODEL 6
REMARK VINA RESULT:      -9.5      2.749      7.074
REMARK  7 active torsions:
REMARK  status: ('A' for Active; 'I' for Inactive)
REMARK    1  A    between atoms: C_4  and  N_5 
REMARK       I    between atoms: N_5  and  C_6 
REMARK       I    between atoms: C_6  and  N_7 
REMARK    2  A    between atoms: N_7  and  N_8 
REMARK       I    between atoms: N_8  and  C_9 
REMARK    3  A    between atoms: C_9  and  C_10 
REMARK    4  A    between atoms: C_10  and  N_11 
REMARK    5  A    between atoms: C_10  and  C_19 
REMARK       I    between atoms: N_11  and  C_12 
REMARK    6  A    between atoms: C_12  and  C_13 
REMARK    7  A    between atoms: C_19  and  C_20 
ROOT
HETATM    1  C   UNL     1      26.855  44.084  52.164  1.00  0.00     0.183 C 
ENDROOT
BRANCH   1   2
HETATM    2  C   UNL     1      27.597  42.758  51.913  1.00  0.00     0.259 C 
HETATM    3  N   UNL     1      26.840  41.612  52.017  1.00  0.00    -0.264 N 
HETATM    4  H   UNL     1      25.816  41.632  52.117  1.00  0.00     0.190 HD
HETATM    5  O   UNL     1      28.816  42.718  51.724  1.00  0.00    -0.269 OA
BRANCH   3   6
HETATM    6  N   UNL     1      27.414  40.389  51.641  1.00  0.00    -0.249 N 
HETATM    7  C   UNL     1      27.120  39.904  50.374  1.00  0.00     0.339 C 
HETATM    8  N   UNL     1      27.707  38.675  50.162  1.00  0.00    -0.308 N 
HETATM    9  O   UNL     1      26.453  40.551  49.574  1.00  0.00    -0.245 OA
HETATM   10  H   UNL     1      28.355  38.373  50.873  1.00  0.00     0.170 HD
HETATM   11  H   UNL     1      27.587  39.748  52.410  1.00  0.00     0.192 HD
BRANCH   8  12
HETATM   12  C   UNL     1      27.625  37.874  49.005  1.00  0.00     0.036 A 
HETATM   13  C   UNL     1      26.628  36.920  48.786  1.00  0.00     0.029 A 
HETATM   14  C   UNL     1      26.613  36.167  47.607  1.00  0.00     0.002 A 
HETATM   15  C   UNL     1      27.594  36.358  46.639  1.00  0.00     0.000 A 
HETATM   16  C   UNL     1      28.596  37.302  46.849  1.00  0.00     0.002 A 
HETATM   17  C   UNL     1      28.613  38.053  48.027  1.00  0.00     0.029 A 
ENDBRANCH   8  12
ENDBRANCH   3   6
ENDBRANCH   1   2
BRANCH   1  18
HETATM   18  N   UNL     1      25.749  44.302  51.224  1.00  0.00    -0.343 N 
HETATM   19  C   UNL     1      25.897  44.618  49.894  1.00  0.00     0.259 C 
HETATM   20  O   UNL     1      27.006  44.879  49.431  1.00  0.00    -0.267 OA
HETATM   21  H   UNL     1      24.830  43.988  51.513  1.00  0.00     0.163 HD
BRANCH  19  22
HETATM   22  C   UNL     1      24.679  44.660  49.099  1.00  0.00     0.072 A 
HETATM   23  S   UNL     1      23.638  46.023  49.081  1.00  0.00    -0.097 SA
HETATM   24  C   UNL     1      22.575  45.285  47.963  1.00  0.00     0.050 A 
HETATM   25  C   UNL     1      22.992  44.021  47.611  1.00  0.00     0.009 A 
HETATM   26  C   UNL     1      24.202  43.660  48.271  1.00  0.00     0.025 A 
ENDBRANCH  19  22
ENDBRANCH   1  18
BRANCH   1  27
HETATM   27  C   UNL     1      26.484  44.210  53.651  1.00  0.00     0.076 C 
BRANCH  27  28
HETATM   28  C   UNL     1      27.469  45.013  54.447  1.00  0.00    -0.028 A 
HETATM   29  C   UNL     1      28.728  44.575  54.971  1.00  0.00    -0.002 A 
HETATM   30  C   UNL     1      29.305  45.660  55.633  1.00  0.00     0.042 A 
HETATM   31  C   UNL     1      29.435  43.355  54.944  1.00  0.00     0.014 A 
HETATM   32  C   UNL     1      30.553  45.591  56.262  1.00  0.00     0.030 A 
HETATM   33  N   UNL     1      28.427  46.712  55.528  1.00  0.00    -0.365 N 
HETATM   34  C   UNL     1      31.236  44.372  56.214  1.00  0.00     0.002 A 
HETATM   35  C   UNL     1      30.686  43.268  55.566  1.00  0.00     0.001 A 
HETATM   36  H   UNL     1      28.579  47.629  55.926  1.00  0.00     0.165 HD
HETATM   37  C   UNL     1      27.321  46.336  54.816  1.00  0.00     0.096 A 
ENDBRANCH  27  28
ENDBRANCH   1  27
TORSDOF 7
ENDMDL
MODEL 7
REMARK VINA RESULT:      -9.4      2.877      7.327
REMARK  7 active torsions:
REMARK  status: ('A' for Active; 'I' for Inactive)
REMARK    1  A    between atoms: C_4  and  N_5 
REMARK       I    between atoms: N_5  and  C_6 
REMARK       I    between atoms: C_6  and  N_7 
REMARK    2  A    between atoms: N_7  and  N_8 
REMARK       I    between atoms: N_8  and  C_9 
REMARK    3  A    between atoms: C_9  and  C_10 
REMARK    4  A    between atoms: C_10  and  N_11 
REMARK    5  A    between atoms: C_10  and  C_19 
REMARK       I    between atoms: N_11  and  C_12 
REMARK    6  A    between atoms: C_12  and  C_13 
REMARK    7  A    between atoms: C_19  and  C_20 
ROOT
HETATM    1  C   UNL     1      26.476  44.485  51.625  1.00  0.00     0.183 C 
ENDROOT
BRANCH   1   2
HETATM    2  C   UNL     1      25.900  43.304  50.823  1.00  0.00     0.259 C 
HETATM    3  N   UNL     1      26.663  42.863  49.765  1.00  0.00    -0.264 N 
HETATM    4  H   UNL     1      27.620  43.199  49.594  1.00  0.00     0.190 HD
HETATM    5  O   UNL     1      24.779  42.842  51.055  1.00  0.00    -0.269 OA
BRANCH   3   6
HETATM    6  N   UNL     1      26.276  41.691  49.098  1.00  0.00    -0.249 N 
HETATM    7  C   UNL     1      27.246  41.019  48.366  1.00  0.00     0.339 C 
HETATM    8  N   UNL     1      26.715  39.920  47.724  1.00  0.00    -0.308 N 
HETATM    9  O   UNL     1      28.418  41.379  48.364  1.00  0.00    -0.245 OA
HETATM   10  H   UNL     1      25.766  39.687  47.974  1.00  0.00     0.170 HD
HETATM   11  H   UNL     1      25.304  41.672  48.802  1.00  0.00     0.192 HD
BRANCH   8  12
HETATM   12  C   UNL     1      27.388  39.008  46.887  1.00  0.00     0.036 A 
HETATM   13  C   UNL     1      28.095  37.897  47.353  1.00  0.00     0.029 A 
HETATM   14  C   UNL     1      28.734  37.035  46.455  1.00  0.00     0.002 A 
HETATM   15  C   UNL     1      28.675  37.278  45.086  1.00  0.00     0.000 A 
HETATM   16  C   UNL     1      27.979  38.386  44.611  1.00  0.00     0.002 A 
HETATM   17  C   UNL     1      27.341  39.247  45.507  1.00  0.00     0.029 A 
ENDBRANCH   8  12
ENDBRANCH   3   6
ENDBRANCH   1   2
BRANCH   1  18
HETATM   18  N   UNL     1      26.081  45.789  51.078  1.00  0.00    -0.343 N 
HETATM   19  C   UNL     1      26.612  46.360  49.945  1.00  0.00     0.259 C 
HETATM   20  O   UNL     1      27.580  45.855  49.382  1.00  0.00    -0.267 OA
HETATM   21  H   UNL     1      25.218  46.191  51.425  1.00  0.00     0.163 HD
BRANCH  19  22
HETATM   22  C   UNL     1      25.990  47.596  49.492  1.00  0.00     0.072 A 
HETATM   23  S   UNL     1      26.902  48.922  48.900  1.00  0.00    -0.097 SA
HETATM   24  C   UNL     1      25.495  49.845  48.594  1.00  0.00     0.050 A 
HETATM   25  C   UNL     1      24.349  49.167  48.942  1.00  0.00     0.009 A 
HETATM   26  C   UNL     1      24.635  47.874  49.464  1.00  0.00     0.025 A 
ENDBRANCH  19  22
ENDBRANCH   1  18
BRANCH   1  27
HETATM   27  C   UNL     1      26.197  44.293  53.126  1.00  0.00     0.076 C 
BRANCH  27  28
HETATM   28  C   UNL     1      27.160  45.026  54.012  1.00  0.00    -0.028 A 
HETATM   29  C   UNL     1      28.395  44.537  54.547  1.00  0.00    -0.002 A 
HETATM   30  C   UNL     1      28.957  45.565  55.304  1.00  0.00     0.042 A 
HETATM   31  C   UNL     1      29.092  43.314  54.457  1.00  0.00     0.014 A 
HETATM   32  C   UNL     1      30.182  45.437  55.971  1.00  0.00     0.030 A 
HETATM   33  N   UNL     1      28.093  46.632  55.245  1.00  0.00    -0.365 N 
HETATM   34  C   UNL     1      30.854  44.216  55.859  1.00  0.00     0.002 A 
HETATM   35  C   UNL     1      30.319  43.169  55.115  1.00  0.00     0.001 A 
HETATM   36  H   UNL     1      28.239  47.516  55.713  1.00  0.00     0.165 HD
HETATM   37  C   UNL     1      27.011  46.321  54.470  1.00  0.00     0.096 A 
ENDBRANCH  27  28
ENDBRANCH   1  27
TORSDOF 7
ENDMDL
MODEL 8
REMARK VINA RESULT:      -9.3      2.461      6.122
REMARK  7 active torsions:
REMARK  status: ('A' for Active; 'I' for Inactive)
REMARK    1  A    between atoms: C_4  and  N_5 
REMARK       I    between atoms: N_5  and  C_6 
REMARK       I    between atoms: C_6  and  N_7 
REMARK    2  A    between atoms: N_7  and  N_8 
REMARK       I    between atoms: N_8  and  C_9 
REMARK    3  A    between atoms: C_9  and  C_10 
REMARK    4  A    between atoms: C_10  and  N_11 
REMARK    5  A    between atoms: C_10  and  C_19 
REMARK       I    between atoms: N_11  and  C_12 
REMARK    6  A    between atoms: C_12  and  C_13 
REMARK    7  A    between atoms: C_19  and  C_20 
ROOT
HETATM    1  C   UNL     1      27.135  43.619  51.201  1.00  0.00     0.183 C 
ENDROOT
BRANCH   1   2
HETATM    2  C   UNL     1      26.463  44.415  50.066  1.00  0.00     0.259 C 
HETATM    3  N   UNL     1      25.087  44.381  50.038  1.00  0.00    -0.264 N 
HETATM    4  H   UNL     1      24.527  43.971  50.798  1.00  0.00     0.190 HD
HETATM    5  O   UNL     1      27.119  44.970  49.181  1.00  0.00    -0.269 OA
BRANCH   3   6
HETATM    6  N   UNL     1      24.411  45.213  49.134  1.00  0.00    -0.249 N 
HETATM    7  C   UNL     1      24.080  46.491  49.562  1.00  0.00     0.339 C 
HETATM    8  N   UNL     1      23.376  47.176  48.593  1.00  0.00    -0.308 N 
HETATM    9  O   UNL     1      24.433  46.918  50.656  1.00  0.00    -0.245 OA
HETATM   10  H   UNL     1      23.321  46.723  47.694  1.00  0.00     0.170 HD
HETATM   11  H   UNL     1      23.819  44.725  48.468  1.00  0.00     0.192 HD
BRANCH   8  12
HETATM   12  C   UNL     1      22.865  48.487  48.670  1.00  0.00     0.036 A 
HETATM   13  C   UNL     1      21.577  48.798  49.111  1.00  0.00     0.029 A 
HETATM   14  C   UNL     1      21.146  50.128  49.163  1.00  0.00     0.002 A 
HETATM   15  C   UNL     1      21.997  51.157  48.772  1.00  0.00     0.000 A 
HETATM   16  C   UNL     1      23.281  50.859  48.325  1.00  0.00     0.002 A 
HETATM   17  C   UNL     1      23.712  49.531  48.272  1.00  0.00     0.029 A 
ENDBRANCH   8  12
ENDBRANCH   3   6
ENDBRANCH   1   2
BRANCH   1  18
HETATM   18  N   UNL     1      27.187  44.366  52.464  1.00  0.00    -0.343 N 
HETATM   19  C   UNL     1      28.286  44.444  53.287  1.00  0.00     0.259 C 
HETATM   20  O   UNL     1      29.282  43.757  53.072  1.00  0.00    -0.267 OA
HETATM   21  H   UNL     1      26.449  45.039  52.631  1.00  0.00     0.163 HD
BRANCH  19  22
HETATM   22  C   UNL     1      28.178  45.345  54.425  1.00  0.00     0.072 A 
HETATM   23  S   UNL     1      27.095  46.675  54.449  1.00  0.00    -0.097 SA
HETATM   24  C   UNL     1      27.567  47.122  56.030  1.00  0.00     0.050 A 
HETATM   25  C   UNL     1      28.537  46.285  56.535  1.00  0.00     0.009 A 
HETATM   26  C   UNL     1      28.892  45.265  55.608  1.00  0.00     0.025 A 
ENDBRANCH  19  22
ENDBRANCH   1  18
BRANCH   1  27
HETATM   27  C   UNL     1      26.523  42.212  51.297  1.00  0.00     0.076 C 
BRANCH  27  28
HETATM   28  C   UNL     1      27.530  41.110  51.152  1.00  0.00    -0.028 A 
HETATM   29  C   UNL     1      27.750  40.275  50.009  1.00  0.00    -0.002 A 
HETATM   30  C   UNL     1      28.790  39.401  50.326  1.00  0.00     0.042 A 
HETATM   31  C   UNL     1      27.162  40.181  48.731  1.00  0.00     0.014 A 
HETATM   32  C   UNL     1      29.277  38.442  49.429  1.00  0.00     0.030 A 
HETATM   33  N   UNL     1      29.179  39.681  51.614  1.00  0.00    -0.365 N 
HETATM   34  C   UNL     1      28.681  38.376  48.166  1.00  0.00     0.002 A 
HETATM   35  C   UNL     1      27.638  39.230  47.820  1.00  0.00     0.001 A 
HETATM   36  H   UNL     1      29.911  39.194  52.112  1.00  0.00     0.165 HD
HETATM   37  C   UNL     1      28.431  40.708  52.120  1.00  0.00     0.096 A 
ENDBRANCH  27  28
ENDBRANCH   1  27
TORSDOF 7
ENDMDL
MODEL 9
REMARK VINA RESULT:      -9.2      3.991      6.369
REMARK  7 active torsions:
REMARK  status: ('A' for Active; 'I' for Inactive)
REMARK    1  A    between atoms: C_4  and  N_5 
REMARK       I    between atoms: N_5  and  C_6 
REMARK       I    between atoms: C_6  and  N_7 
REMARK    2  A    between atoms: N_7  and  N_8 
REMARK       I    between atoms: N_8  and  C_9 
REMARK    3  A    between atoms: C_9  and  C_10 
REMARK    4  A    between atoms: C_10  and  N_11 
REMARK    5  A    between atoms: C_10  and  C_19 
REMARK       I    between atoms: N_11  and  C_12 
REMARK    6  A    between atoms: C_12  and  C_13 
REMARK    7  A    between atoms: C_19  and  C_20 
ROOT
HETATM    1  C   UNL     1      26.779  44.379  51.191  1.00  0.00     0.183 C 
ENDROOT
BRANCH   1   2
HETATM    2  C   UNL     1      26.501  43.226  50.208  1.00  0.00     0.259 C 
HETATM    3  N   UNL     1      25.403  42.445  50.488  1.00  0.00    -0.264 N 
HETATM    4  H   UNL     1      24.724  42.686  51.222  1.00  0.00     0.190 HD
HETATM    5  O   UNL     1      27.271  42.961  49.280  1.00  0.00    -0.269 OA
BRANCH   3   6
HETATM    6  N   UNL     1      25.002  41.485  49.547  1.00  0.00    -0.249 N 
HETATM    7  C   UNL     1      23.815  41.712  48.864  1.00  0.00     0.339 C 
HETATM    8  N   UNL     1      23.520  40.667  48.014  1.00  0.00    -0.308 N 
HETATM    9  O   UNL     1      23.176  42.749  49.007  1.00  0.00    -0.245 OA
HETATM   10  H   UNL     1      24.245  39.975  47.907  1.00  0.00     0.170 HD
HETATM   11  H   UNL     1      25.302  40.537  49.753  1.00  0.00     0.192 HD
BRANCH   8  12
HETATM   12  C   UNL     1      22.398  40.539  47.170  1.00  0.00     0.036 A 
HETATM   13  C   UNL     1      21.413  39.562  47.326  1.00  0.00     0.029 A 
HETATM   14  C   UNL     1      20.325  39.504  46.448  1.00  0.00     0.002 A 
HETATM   15  C   UNL     1      20.215  40.419  45.406  1.00  0.00     0.000 A 
HETATM   16  C   UNL     1      21.194  41.395  45.237  1.00  0.00     0.002 A 
HETATM   17  C   UNL     1      22.281  41.452  46.113  1.00  0.00     0.029 A 
ENDBRANCH   8  12
ENDBRANCH   3   6
ENDBRANCH   1   2
BRANCH   1  18
HETATM   18  N   UNL     1      26.119  45.630  50.799  1.00  0.00    -0.343 N 
HETATM   19  C   UNL     1      26.546  46.464  49.793  1.00  0.00     0.259 C 
HETATM   20  O   UNL     1      27.624  46.270  49.233  1.00  0.00    -0.267 OA
HETATM   21  H   UNL     1      25.175  45.778  51.138  1.00  0.00     0.163 HD
BRANCH  19  22
HETATM   22  C   UNL     1      25.678  47.586  49.470  1.00  0.00     0.072 A 
HETATM   23  S   UNL     1      26.277  49.058  48.824  1.00  0.00    -0.097 SA
HETATM   24  C   UNL     1      24.710  49.737  48.731  1.00  0.00     0.050 A 
HETATM   25  C   UNL     1      23.744  48.870  49.189  1.00  0.00     0.009 A 
HETATM   26  C   UNL     1      24.303  47.633  49.620  1.00  0.00     0.025 A 
ENDBRANCH  19  22
ENDBRANCH   1  18
BRANCH   1  27
HETATM   27  C   UNL     1      26.510  43.921  52.634  1.00  0.00     0.076 C 
BRANCH  27  28
HETATM   28  C   UNL     1      27.269  44.706  53.662  1.00  0.00    -0.028 A 
HETATM   29  C   UNL     1      28.493  44.340  54.309  1.00  0.00    -0.002 A 
HETATM   30  C   UNL     1      28.831  45.376  55.179  1.00  0.00     0.042 A 
HETATM   31  C   UNL     1      29.349  43.221  54.235  1.00  0.00     0.014 A 
HETATM   32  C   UNL     1      29.984  45.356  55.974  1.00  0.00     0.030 A 
HETATM   33  N   UNL     1      27.846  46.330  55.078  1.00  0.00    -0.365 N 
HETATM   34  C   UNL     1      30.818  44.239  55.876  1.00  0.00     0.002 A 
HETATM   35  C   UNL     1      30.508  43.186  55.021  1.00  0.00     0.001 A 
HETATM   36  H   UNL     1      27.825  47.192  55.605  1.00  0.00     0.165 HD
HETATM   37  C   UNL     1      26.903  45.939  54.168  1.00  0.00     0.096 A 
ENDBRANCH  27  28
ENDBRANCH   1  27
TORSDOF 7
ENDMDL
MODEL 10
REMARK VINA RESULT:      -9.2      2.827      7.812
REMARK  7 active torsions:
REMARK  status: ('A' for Active; 'I' for Inactive)
REMARK    1  A    between atoms: C_4  and  N_5 
REMARK       I    between atoms: N_5  and  C_6 
REMARK       I    between atoms: C_6  and  N_7 
REMARK    2  A    between atoms: N_7  and  N_8 
REMARK       I    between atoms: N_8  and  C_9 
REMARK    3  A    between atoms: C_9  and  C_10 
REMARK    4  A    between atoms: C_10  and  N_11 
REMARK    5  A    between atoms: C_10  and  C_19 
REMARK       I    between atoms: N_11  and  C_12 
REMARK    6  A    between atoms: C_12  and  C_13 
REMARK    7  A    between atoms: C_19  and  C_20 
ROOT
HETATM    1  C   UNL     1      25.364  46.159  50.972  1.00  0.00     0.183 C 
ENDROOT
BRANCH   1   2
HETATM    2  C   UNL     1      26.040  45.220  49.955  1.00  0.00     0.259 C 
HETATM    3  N   UNL     1      25.336  44.086  49.619  1.00  0.00    -0.264 N 
HETATM    4  H   UNL     1      24.363  43.931  49.913  1.00  0.00     0.190 HD
HETATM    5  O   UNL     1      27.184  45.424  49.540  1.00  0.00    -0.269 OA
BRANCH   3   6
HETATM    6  N   UNL     1      25.819  43.276  48.582  1.00  0.00    -0.249 N 
HETATM    7  C   UNL     1      26.197  41.979  48.902  1.00  0.00     0.339 C 
HETATM    8  N   UNL     1      26.699  41.318  47.800  1.00  0.00    -0.308 N 
HETATM    9  O   UNL     1      26.039  41.520  50.029  1.00  0.00    -0.245 OA
HETATM   10  H   UNL     1      26.599  41.801  46.921  1.00  0.00     0.170 HD
HETATM   11  H   UNL     1      26.290  43.778  47.834  1.00  0.00     0.192 HD
BRANCH   8  12
HETATM   12  C   UNL     1      27.189  39.998  47.742  1.00  0.00     0.036 A 
HETATM   13  C   UNL     1      26.487  38.930  47.179  1.00  0.00     0.029 A 
HETATM   14  C   UNL     1      27.045  37.647  47.157  1.00  0.00     0.002 A 
HETATM   15  C   UNL     1      28.307  37.421  47.698  1.00  0.00     0.000 A 
HETATM   16  C   UNL     1      29.013  38.477  48.268  1.00  0.00     0.002 A 
HETATM   17  C   UNL     1      28.455  39.758  48.292  1.00  0.00     0.029 A 
ENDBRANCH   8  12
ENDBRANCH   3   6
ENDBRANCH   1   2
BRANCH   1  18
HETATM   18  N   UNL     1      24.301  46.974  50.372  1.00  0.00    -0.343 N 
HETATM   19  C   UNL     1      24.504  48.131  49.658  1.00  0.00     0.259 C 
HETATM   20  O   UNL     1      25.621  48.642  49.596  1.00  0.00    -0.267 OA
HETATM   21  H   UNL     1      23.385  46.547  50.288  1.00  0.00     0.163 HD
BRANCH  19  22
HETATM   22  C   UNL     1      23.330  48.719  49.030  1.00  0.00     0.072 A 
HETATM   23  S   UNL     1      23.357  50.269  48.295  1.00  0.00    -0.097 SA
HETATM   24  C   UNL     1      21.715  50.155  47.831  1.00  0.00     0.050 A 
HETATM   25  C   UNL     1      21.147  48.967  48.232  1.00  0.00     0.009 A 
HETATM   26  C   UNL     1      22.077  48.143  48.928  1.00  0.00     0.025 A 
ENDBRANCH  19  22
ENDBRANCH   1  18
BRANCH   1  27
HETATM   27  C   UNL     1      24.955  45.373  52.229  1.00  0.00     0.076 C 
BRANCH  27  28
HETATM   28  C   UNL     1      26.122  44.828  52.999  1.00  0.00    -0.028 A 
HETATM   29  C   UNL     1      27.017  45.552  53.851  1.00  0.00    -0.002 A 
HETATM   30  C   UNL     1      27.939  44.637  54.361  1.00  0.00     0.042 A 
HETATM   31  C   UNL     1      27.130  46.903  54.239  1.00  0.00     0.014 A 
HETATM   32  C   UNL     1      28.963  45.001  55.244  1.00  0.00     0.030 A 
HETATM   33  N   UNL     1      27.626  43.408  53.831  1.00  0.00    -0.365 N 
HETATM   34  C   UNL     1      29.048  46.345  55.617  1.00  0.00     0.002 A 
HETATM   35  C   UNL     1      28.147  47.285  55.123  1.00  0.00     0.001 A 
HETATM   36  H   UNL     1      28.136  42.555  54.019  1.00  0.00     0.165 HD
HETATM   37  C   UNL     1      26.535  43.510  53.013  1.00  0.00     0.096 A 
ENDBRANCH  27  28
ENDBRANCH   1  27
TORSDOF 7
ENDMDL
