MODEL 1
REMARK VINA RESULT:      -9.1      0.000      0.000
REMARK  6 active torsions:
REMARK  status: ('A' for Active; 'I' for Inactive)
REMARK    1  A    between atoms: C_3  and  C_4 
REMARK    2  A    between atoms: C_4  and  C_5 
REMARK    3  A    between atoms: N_8  and  C_10 
REMARK    4  A    between atoms: C_10  and  C_11 
REMARK    5  A    between atoms: N_24  and  C_25 
REMARK    6  A    between atoms: C_25  and  C_26 
ROOT
HETATM    1  C   UNL     1      26.779  42.082  50.675  1.00  0.00     0.164 C 
HETATM    2  N   UNL     1      27.710  43.147  50.350  1.00  0.00    -0.319 N 
HETATM    3  C   UNL     1      27.100  44.248  49.795  1.00  0.00     0.326 C 
HETATM    4  O   UNL     1      27.652  45.319  49.634  1.00  0.00    -0.247 OA
HETATM    5  N   UNL     1      25.792  43.940  49.572  1.00  0.00    -0.265 N 
HETATM    6  C   UNL     1      25.532  42.665  49.985  1.00  0.00     0.263 C 
HETATM    7  O   UNL     1      24.441  42.115  49.897  1.00  0.00    -0.270 OA
HETATM    8  H   UNL     1      28.700  43.144  50.569  1.00  0.00     0.166 HD
ENDROOT
BRANCH   1   9
HETATM    9  C   UNL     1      27.241  40.764  50.049  1.00  0.00     0.072 A 
HETATM   10  C   UNL     1      26.485  39.591  50.138  1.00  0.00     0.030 A 
HETATM   11  C   UNL     1      26.954  38.429  49.527  1.00  0.00     0.003 A 
HETATM   12  C   UNL     1      28.147  38.459  48.820  1.00  0.00     0.019 A 
HETATM   13  C   UNL     1      28.827  39.659  48.748  1.00  0.00     0.117 A 
HETATM   14  N   UNL     1      28.401  40.800  49.339  1.00  0.00    -0.262 NA
ENDBRANCH   1   9
BRANCH   1  15
HETATM   15  C   UNL     1      26.614  41.999  52.249  1.00  0.00     0.033 C 
HETATM   16  C   UNL     1      26.198  43.306  52.952  1.00  0.00     0.036 C 
HETATM   17  C   UNL     1      27.325  44.257  53.334  1.00  0.00     0.235 C 
HETATM   18  N   UNL     1      28.456  43.539  54.029  1.00  0.00    -0.067 N 
HETATM   19  H   UNL     1      28.114  43.264  54.962  1.00  0.00     0.280 HD
HETATM   20  C   UNL     1      28.927  42.292  53.333  1.00  0.00     0.235 C 
HETATM   21  C   UNL     1      27.768  41.359  53.046  1.00  0.00     0.036 C 
BRANCH  18  22
HETATM   22  C   UNL     1      29.652  44.459  54.267  1.00  0.00     0.278 C 
BRANCH  22  23
HETATM   23  C   UNL     1      29.976  44.755  55.699  1.00  0.00     0.028 A 
HETATM   24  C   UNL     1      29.371  45.790  56.423  1.00  0.00     0.045 A 
HETATM   25 CL   UNL     1      28.229  46.846  55.674  1.00  0.00    -0.084 Cl
HETATM   26  C   UNL     1      29.694  46.003  57.766  1.00  0.00     0.024 A 
HETATM   27  C   UNL     1      30.625  45.180  58.404  1.00  0.00     0.005 A 
HETATM   28  C   UNL     1      31.236  44.150  57.697  1.00  0.00     0.043 A 
HETATM   29  C   UNL     1      30.906  43.947  56.362  1.00  0.00     0.126 A 
HETATM   30  F   UNL     1      31.508  42.954  55.693  1.00  0.00    -0.205 F 
ENDBRANCH  22  23
ENDBRANCH  18  22
ENDBRANCH   1  15
BRANCH   5  31
HETATM   31  C   UNL     1      24.813  44.827  48.960  1.00  0.00     0.168 C 
BRANCH  31  32
HETATM   32  C   UNL     1      23.927  45.530  50.001  1.00  0.00     0.140 C 
HETATM   33  O   UNL     1      23.178  46.571  49.356  1.00  0.00    -0.384 OA
HETATM   34  C   UNL     1      23.895  47.811  49.496  1.00  0.00     0.168 C 
HETATM   35  C   UNL     1      25.093  47.548  50.390  1.00  0.00     0.029 C 
HETATM   36  C   UNL     1      24.734  46.250  51.069  1.00  0.00     0.036 C 
ENDBRANCH  31  32
ENDBRANCH   5  31
TORSDOF 6
ENDMDL
MODEL 2
REMARK VINA RESULT:      -8.8      1.575      5.149
REMARK  6 active torsions:
REMARK  status: ('A' for Active; 'I' for Inactive)
REMARK    1  A    between atoms: C_3  and  C_4 
REMARK    2  A    between atoms: C_4  and  C_5 
REMARK    3  A    between atoms: N_8  and  C_10 
REMARK    4  A    between atoms: C_10  and  C_11 
REMARK    5  A    between atoms: N_24  and  C_25 
REMARK    6  A    between atoms: C_25  and  C_26 
ROOT
HETATM    1  C   UNL     1      24.991  45.409  50.915  1.00  0.00     0.164 C 
HETATM    2  N   UNL     1      23.793  44.717  50.476  1.00  0.00    -0.319 N 
HETATM    3  C   UNL     1      24.038  43.438  50.036  1.00  0.00     0.326 C 
HETATM    4  O   UNL     1      23.165  42.619  49.815  1.00  0.00    -0.247 OA
HETATM    5  N   UNL     1      25.386  43.252  50.001  1.00  0.00    -0.265 N 
HETATM    6  C   UNL     1      26.027  44.380  50.425  1.00  0.00     0.263 C 
HETATM    7  O   UNL     1      27.245  44.506  50.487  1.00  0.00    -0.270 OA
HETATM    8  H   UNL     1      22.849  45.082  50.549  1.00  0.00     0.166 HD
ENDROOT
BRANCH   1   9
HETATM    9  C   UNL     1      25.115  46.759  50.206  1.00  0.00     0.072 A 
HETATM   10  C   UNL     1      24.000  47.541  49.892  1.00  0.00     0.030 A 
HETATM   11  C   UNL     1      24.185  48.772  49.263  1.00  0.00     0.003 A 
HETATM   12  C   UNL     1      25.470  49.213  48.982  1.00  0.00     0.019 A 
HETATM   13  C   UNL     1      26.526  48.403  49.348  1.00  0.00     0.117 A 
HETATM   14  N   UNL     1      26.377  47.199  49.949  1.00  0.00    -0.262 NA
ENDBRANCH   1   9
BRANCH   1  15
HETATM   15  C   UNL     1      24.969  45.536  52.495  1.00  0.00     0.033 C 
HETATM   16  C   UNL     1      25.784  46.703  53.087  1.00  0.00     0.036 C 
HETATM   17  C   UNL     1      27.262  46.436  53.343  1.00  0.00     0.235 C 
HETATM   18  N   UNL     1      27.481  45.128  54.062  1.00  0.00    -0.067 N 
HETATM   19  H   UNL     1      27.141  45.252  55.027  1.00  0.00     0.280 HD
HETATM   20  C   UNL     1      26.749  43.956  53.469  1.00  0.00     0.235 C 
HETATM   21  C   UNL     1      25.274  44.263  53.309  1.00  0.00     0.036 C 
BRANCH  18  22
HETATM   22  C   UNL     1      28.965  44.784  54.174  1.00  0.00     0.278 C 
BRANCH  22  23
HETATM   23  C   UNL     1      29.566  44.906  55.541  1.00  0.00     0.028 A 
HETATM   24  C   UNL     1      29.142  45.853  56.482  1.00  0.00     0.045 A 
HETATM   25 CL   UNL     1      27.911  46.999  56.094  1.00  0.00    -0.084 Cl
HETATM   26  C   UNL     1      29.721  45.903  57.753  1.00  0.00     0.024 A 
HETATM   27  C   UNL     1      30.732  45.003  58.100  1.00  0.00     0.005 A 
HETATM   28  C   UNL     1      31.165  44.059  57.175  1.00  0.00     0.043 A 
HETATM   29  C   UNL     1      30.580  44.018  55.915  1.00  0.00     0.126 A 
HETATM   30  F   UNL     1      31.012  43.106  55.033  1.00  0.00    -0.205 F 
ENDBRANCH  22  23
ENDBRANCH  18  22
ENDBRANCH   1  15
BRANCH   5  31
HETATM   31  C   UNL     1      26.055  42.039  49.554  1.00  0.00     0.168 C 
BRANCH  31  32
HETATM   32  C   UNL     1      26.088  40.952  50.642  1.00  0.00     0.140 C 
HETATM   33  O   UNL     1      27.130  41.258  51.580  1.00  0.00    -0.384 OA
HETATM   34  C   UNL     1      28.323  40.553  51.192  1.00  0.00     0.168 C 
HETATM   35  C   UNL     1      27.965  39.659  50.019  1.00  0.00     0.029 C 
HETATM   36  C   UNL     1      26.460  39.585  50.094  1.00  0.00     0.036 C 
ENDBRANCH  31  32
ENDBRANCH   5  31
TORSDOF 6
ENDMDL
MODEL 3
REMARK VINA RESULT:      -8.6      2.053      2.765
REMARK  6 active torsions:
REMARK  status: ('A' for Active; 'I' for Inactive)
REMARK    1  A    between atoms: C_3  and  C_4 
REMARK    2  A    between atoms: C_4  and  C_5 
REMARK    3  A    between atoms: N_8  and  C_10 
REMARK    4  A    between atoms: C_10  and  C_11 
REMARK    5  A    between atoms: N_24  and  C_25 
REMARK    6  A    between atoms: C_25  and  C_26 
ROOT
HETATM    1  C   UNL     1      25.471  44.139  50.763  1.00  0.00     0.164 C 
HETATM    2  N   UNL     1      26.485  45.156  50.552  1.00  0.00    -0.319 N 
HETATM    3  C   UNL     1      25.958  46.400  50.299  1.00  0.00     0.326 C 
HETATM    4  O   UNL     1      26.614  47.425  50.292  1.00  0.00    -0.247 OA
HETATM    5  N   UNL     1      24.609  46.271  50.169  1.00  0.00    -0.265 N 
HETATM    6  C   UNL     1      24.242  44.969  50.348  1.00  0.00     0.263 C 
HETATM    7  O   UNL     1      23.091  44.555  50.277  1.00  0.00    -0.270 OA
HETATM    8  H   UNL     1      27.484  45.013  50.652  1.00  0.00     0.166 HD
ENDROOT
BRANCH   1   9
HETATM    9  C   UNL     1      25.718  42.943  49.841  1.00  0.00     0.072 A 
HETATM   10  C   UNL     1      24.715  42.018  49.535  1.00  0.00     0.030 A 
HETATM   11  C   UNL     1      25.001  40.963  48.670  1.00  0.00     0.003 A 
HETATM   12  C   UNL     1      26.265  40.860  48.107  1.00  0.00     0.019 A 
HETATM   13  C   UNL     1      27.197  41.826  48.429  1.00  0.00     0.117 A 
HETATM   14  N   UNL     1      26.951  42.855  49.273  1.00  0.00    -0.262 NA
ENDBRANCH   1   9
BRANCH   1  15
HETATM   15  C   UNL     1      25.442  43.745  52.298  1.00  0.00     0.033 C 
HETATM   16  C   UNL     1      25.188  44.902  53.285  1.00  0.00     0.036 C 
HETATM   17  C   UNL     1      26.413  45.691  53.730  1.00  0.00     0.235 C 
HETATM   18  N   UNL     1      27.545  44.786  54.149  1.00  0.00    -0.067 N 
HETATM   19  H   UNL     1      27.269  44.346  55.039  1.00  0.00     0.280 HD
HETATM   20  C   UNL     1      27.858  43.684  53.175  1.00  0.00     0.235 C 
HETATM   21  C   UNL     1      26.612  42.894  52.830  1.00  0.00     0.036 C 
BRANCH  18  22
HETATM   22  C   UNL     1      28.822  45.571  54.440  1.00  0.00     0.278 C 
BRANCH  22  23
HETATM   23  C   UNL     1      29.482  45.287  55.755  1.00  0.00     0.028 A 
HETATM   24  C   UNL     1      30.455  44.295  55.925  1.00  0.00     0.045 A 
HETATM   25 CL   UNL     1      30.925  43.279  54.610  1.00  0.00    -0.084 Cl
HETATM   26  C   UNL     1      31.056  44.092  57.170  1.00  0.00     0.024 A 
HETATM   27  C   UNL     1      30.692  44.882  58.263  1.00  0.00     0.005 A 
HETATM   28  C   UNL     1      29.724  45.869  58.110  1.00  0.00     0.043 A 
HETATM   29  C   UNL     1      29.135  46.063  56.866  1.00  0.00     0.126 A 
HETATM   30  F   UNL     1      28.200  47.014  56.736  1.00  0.00    -0.205 F 
ENDBRANCH  22  23
ENDBRANCH  18  22
ENDBRANCH   1  15
BRANCH   5  31
HETATM   31  C   UNL     1      23.687  47.355  49.859  1.00  0.00     0.168 C 
BRANCH  31  32
HETATM   32  C   UNL     1      23.332  47.413  48.364  1.00  0.00     0.140 C 
HETATM   33  O   UNL     1      23.504  48.757  47.891  1.00  0.00    -0.384 OA
HETATM   34  C   UNL     1      22.239  49.438  47.963  1.00  0.00     0.168 C 
HETATM   35  C   UNL     1      21.194  48.420  48.383  1.00  0.00     0.029 C 
HETATM   36  C   UNL     1      21.869  47.102  48.096  1.00  0.00     0.036 C 
ENDBRANCH  31  32
ENDBRANCH   5  31
TORSDOF 6
ENDMDL
MODEL 4
REMARK VINA RESULT:      -8.5      2.203      5.189
REMARK  6 active torsions:
REMARK  status: ('A' for Active; 'I' for Inactive)
REMARK    1  A    between atoms: C_3  and  C_4 
REMARK    2  A    between atoms: C_4  and  C_5 
REMARK    3  A    between atoms: N_8  and  C_10 
REMARK    4  A    between atoms: C_10  and  C_11 
REMARK    5  A    between atoms: N_24  and  C_25 
REMARK    6  A    between atoms: C_25  and  C_26 
ROOT
HETATM    1  C   UNL     1      25.545  42.636  49.558  1.00  0.00     0.164 C 
HETATM    2  N   UNL     1      25.326  41.744  50.682  1.00  0.00    -0.319 N 
HETATM    3  C   UNL     1      26.343  40.834  50.856  1.00  0.00     0.326 C 
HETATM    4  O   UNL     1      26.463  40.134  51.843  1.00  0.00    -0.247 OA
HETATM    5  N   UNL     1      27.199  40.948  49.803  1.00  0.00    -0.265 N 
HETATM    6  C   UNL     1      26.770  41.924  48.952  1.00  0.00     0.263 C 
HETATM    7  O   UNL     1      27.337  42.239  47.912  1.00  0.00    -0.270 OA
HETATM    8  H   UNL     1      24.555  41.809  51.338  1.00  0.00     0.166 HD
ENDROOT
BRANCH   1   9
HETATM    9  C   UNL     1      24.331  42.623  48.626  1.00  0.00     0.072 A 
HETATM   10  C   UNL     1      23.898  43.767  47.950  1.00  0.00     0.030 A 
HETATM   11  C   UNL     1      22.797  43.681  47.099  1.00  0.00     0.003 A 
HETATM   12  C   UNL     1      22.164  42.460  46.916  1.00  0.00     0.019 A 
HETATM   13  C   UNL     1      22.664  41.365  47.592  1.00  0.00     0.117 A 
HETATM   14  N   UNL     1      23.724  41.421  48.432  1.00  0.00    -0.262 NA
ENDBRANCH   1   9
BRANCH   1  15
HETATM   15  C   UNL     1      25.896  44.082  50.102  1.00  0.00     0.033 C 
HETATM   16  C   UNL     1      27.367  44.312  50.501  1.00  0.00     0.036 C 
HETATM   17  C   UNL     1      27.753  43.917  51.921  1.00  0.00     0.235 C 
HETATM   18  N   UNL     1      26.768  44.440  52.938  1.00  0.00    -0.067 N 
HETATM   19  H   UNL     1      26.895  45.462  52.985  1.00  0.00     0.280 HD
HETATM   20  C   UNL     1      25.326  44.175  52.608  1.00  0.00     0.235 C 
HETATM   21  C   UNL     1      24.992  44.656  51.211  1.00  0.00     0.036 C 
BRANCH  18  22
HETATM   22  C   UNL     1      27.064  43.910  54.340  1.00  0.00     0.278 C 
BRANCH  22  23
HETATM   23  C   UNL     1      28.438  44.186  54.869  1.00  0.00     0.028 A 
HETATM   24  C   UNL     1      28.815  45.417  55.418  1.00  0.00     0.045 A 
HETATM   25 CL   UNL     1      27.708  46.741  55.470  1.00  0.00    -0.084 Cl
HETATM   26  C   UNL     1      30.105  45.608  55.922  1.00  0.00     0.024 A 
HETATM   27  C   UNL     1      31.036  44.567  55.884  1.00  0.00     0.005 A 
HETATM   28  C   UNL     1      30.676  43.340  55.338  1.00  0.00     0.043 A 
HETATM   29  C   UNL     1      29.390  43.160  54.842  1.00  0.00     0.126 A 
HETATM   30  F   UNL     1      29.061  41.973  54.315  1.00  0.00    -0.205 F 
ENDBRANCH  22  23
ENDBRANCH  18  22
ENDBRANCH   1  15
BRANCH   5  31
HETATM   31  C   UNL     1      28.387  40.133  49.595  1.00  0.00     0.168 C 
BRANCH  31  32
HETATM   32  C   UNL     1      28.159  39.017  48.561  1.00  0.00     0.140 C 
HETATM   33  O   UNL     1      26.823  38.512  48.702  1.00  0.00    -0.384 OA
HETATM   34  C   UNL     1      26.853  37.362  49.566  1.00  0.00     0.168 C 
HETATM   35  C   UNL     1      28.307  37.060  49.876  1.00  0.00     0.029 C 
HETATM   36  C   UNL     1      29.048  37.808  48.796  1.00  0.00     0.036 C 
ENDBRANCH  31  32
ENDBRANCH   5  31
TORSDOF 6
ENDMDL
MODEL 5
REMARK VINA RESULT:      -8.5      7.860     11.943
REMARK  6 active torsions:
REMARK  status: ('A' for Active; 'I' for Inactive)
REMARK    1  A    between atoms: C_3  and  C_4 
REMARK    2  A    between atoms: C_4  and  C_5 
REMARK    3  A    between atoms: N_8  and  C_10 
REMARK    4  A    between atoms: C_10  and  C_11 
REMARK    5  A    between atoms: N_24  and  C_25 
REMARK    6  A    between atoms: C_25  and  C_26 
ROOT
HETATM    1  C   UNL     1      17.904  50.713  48.703  1.00  0.00     0.164 C 
HETATM    2  N   UNL     1      18.230  50.102  49.979  1.00  0.00    -0.319 N 
HETATM    3  C   UNL     1      18.139  48.730  49.961  1.00  0.00     0.326 C 
HETATM    4  O   UNL     1      18.557  48.012  50.849  1.00  0.00    -0.247 OA
HETATM    5  N   UNL     1      17.610  48.357  48.764  1.00  0.00    -0.265 N 
HETATM    6  C   UNL     1      17.368  49.456  47.992  1.00  0.00     0.263 C 
HETATM    7  O   UNL     1      16.882  49.424  46.868  1.00  0.00    -0.270 OA
HETATM    8  H   UNL     1      18.571  50.601  50.795  1.00  0.00     0.166 HD
ENDROOT
BRANCH   1   9
HETATM    9  C   UNL     1      16.834  51.791  48.889  1.00  0.00     0.072 A 
HETATM   10  C   UNL     1      15.955  52.153  47.864  1.00  0.00     0.030 A 
HETATM   11  C   UNL     1      14.988  53.128  48.107  1.00  0.00     0.003 A 
HETATM   12  C   UNL     1      14.897  53.706  49.365  1.00  0.00     0.019 A 
HETATM   13  C   UNL     1      15.778  53.279  50.338  1.00  0.00     0.117 A 
HETATM   14  N   UNL     1      16.732  52.343  50.129  1.00  0.00    -0.262 NA
ENDBRANCH   1   9
BRANCH   1  15
HETATM   15  C   UNL     1      19.232  51.263  48.036  1.00  0.00     0.033 C 
HETATM   16  C   UNL     1      19.887  50.344  46.986  1.00  0.00     0.036 C 
HETATM   17  C   UNL     1      20.846  49.287  47.517  1.00  0.00     0.235 C 
HETATM   18  N   UNL     1      21.831  49.864  48.504  1.00  0.00    -0.067 N 
HETATM   19  H   UNL     1      22.482  50.460  47.971  1.00  0.00     0.280 HD
HETATM   20  C   UNL     1      21.214  50.715  49.579  1.00  0.00     0.235 C 
HETATM   21  C   UNL     1      20.330  51.790  48.981  1.00  0.00     0.036 C 
BRANCH  18  22
HETATM   22  C   UNL     1      22.685  48.779  49.156  1.00  0.00     0.278 C 
BRANCH  22  23
HETATM   23  C   UNL     1      24.167  48.936  49.014  1.00  0.00     0.028 A 
HETATM   24  C   UNL     1      25.092  48.108  49.661  1.00  0.00     0.045 A 
HETATM   25 CL   UNL     1      24.566  46.860  50.732  1.00  0.00    -0.084 Cl
HETATM   26  C   UNL     1      26.465  48.285  49.469  1.00  0.00     0.024 A 
HETATM   27  C   UNL     1      26.931  49.294  48.623  1.00  0.00     0.005 A 
HETATM   28  C   UNL     1      26.025  50.126  47.975  1.00  0.00     0.043 A 
HETATM   29  C   UNL     1      24.662  49.939  48.172  1.00  0.00     0.126 A 
HETATM   30  F   UNL     1      23.802  50.753  47.546  1.00  0.00    -0.205 F 
ENDBRANCH  22  23
ENDBRANCH  18  22
ENDBRANCH   1  15
BRANCH   5  31
HETATM   31  C   UNL     1      17.318  46.987  48.366  1.00  0.00     0.168 C 
BRANCH  31  32
HETATM   32  C   UNL     1      18.523  46.300  47.702  1.00  0.00     0.140 C 
HETATM   33  O   UNL     1      18.679  46.809  46.369  1.00  0.00    -0.384 OA
HETATM   34  C   UNL     1      17.993  45.933  45.456  1.00  0.00     0.168 C 
HETATM   35  C   UNL     1      17.493  44.742  46.254  1.00  0.00     0.029 C 
HETATM   36  C   UNL     1      18.318  44.806  47.515  1.00  0.00     0.036 C 
ENDBRANCH  31  32
ENDBRANCH   5  31
TORSDOF 6
ENDMDL
MODEL 6
REMARK VINA RESULT:      -8.5     12.580     14.215
REMARK  6 active torsions:
REMARK  status: ('A' for Active; 'I' for Inactive)
REMARK    1  A    between atoms: C_3  and  C_4 
REMARK    2  A    between atoms: C_4  and  C_5 
REMARK    3  A    between atoms: N_8  and  C_10 
REMARK    4  A    between atoms: C_10  and  C_11 
REMARK    5  A    between atoms: N_24  and  C_25 
REMARK    6  A    between atoms: C_25  and  C_26 
ROOT
HETATM    1  C   UNL     1      28.301  49.634  39.412  1.00  0.00     0.164 C 
HETATM    2  N   UNL     1      27.857  48.748  40.472  1.00  0.00    -0.319 N 
HETATM    3  C   UNL     1      26.633  48.174  40.220  1.00  0.00     0.326 C 
HETATM    4  O   UNL     1      26.170  47.256  40.870  1.00  0.00    -0.247 OA
HETATM    5  N   UNL     1      26.123  48.742  39.093  1.00  0.00    -0.265 N 
HETATM    6  C   UNL     1      26.996  49.664  38.594  1.00  0.00     0.263 C 
HETATM    7  O   UNL     1      26.796  50.340  37.592  1.00  0.00    -0.270 OA
HETATM    8  H   UNL     1      28.405  48.494  41.288  1.00  0.00     0.166 HD
ENDROOT
BRANCH   1   9
HETATM    9  C   UNL     1      28.673  51.003  39.985  1.00  0.00     0.072 A 
HETATM   10  C   UNL     1      28.915  51.200  41.348  1.00  0.00     0.030 A 
HETATM   11  C   UNL     1      29.271  52.470  41.801  1.00  0.00     0.003 A 
HETATM   12  C   UNL     1      29.402  53.511  40.894  1.00  0.00     0.019 A 
HETATM   13  C   UNL     1      29.177  53.238  39.559  1.00  0.00     0.117 A 
HETATM   14  N   UNL     1      28.821  52.019  39.091  1.00  0.00    -0.262 NA
ENDBRANCH   1   9
BRANCH   1  15
HETATM   15  C   UNL     1      29.491  48.946  38.623  1.00  0.00     0.033 C 
HETATM   16  C   UNL     1      29.814  47.494  39.025  1.00  0.00     0.036 C 
HETATM   17  C   UNL     1      30.770  47.313  40.197  1.00  0.00     0.235 C 
HETATM   18  N   UNL     1      31.996  48.184  40.063  1.00  0.00    -0.067 N 
HETATM   19  H   UNL     1      32.562  47.795  39.295  1.00  0.00     0.280 HD
HETATM   20  C   UNL     1      31.710  49.622  39.733  1.00  0.00     0.235 C 
HETATM   21  C   UNL     1      30.813  49.732  38.517  1.00  0.00     0.036 C 
BRANCH  18  22
HETATM   22  C   UNL     1      32.874  48.124  41.312  1.00  0.00     0.278 C 
BRANCH  22  23
HETATM   23  C   UNL     1      32.998  49.400  42.088  1.00  0.00     0.028 A 
HETATM   24  C   UNL     1      34.084  50.274  41.956  1.00  0.00     0.045 A 
HETATM   25 CL   UNL     1      35.403  49.897  40.907  1.00  0.00    -0.084 Cl
HETATM   26  C   UNL     1      34.134  51.464  42.686  1.00  0.00     0.024 A 
HETATM   27  C   UNL     1      33.094  51.798  43.558  1.00  0.00     0.005 A 
HETATM   28  C   UNL     1      32.010  50.938  43.701  1.00  0.00     0.043 A 
HETATM   29  C   UNL     1      31.971  49.757  42.968  1.00  0.00     0.126 A 
HETATM   30  F   UNL     1      30.923  48.937  43.121  1.00  0.00    -0.205 F 
ENDBRANCH  22  23
ENDBRANCH  18  22
ENDBRANCH   1  15
BRANCH   5  31
HETATM   31  C   UNL     1      24.824  48.434  38.512  1.00  0.00     0.168 C 
BRANCH  31  32
HETATM   32  C   UNL     1      23.695  49.288  39.114  1.00  0.00     0.140 C 
HETATM   33  O   UNL     1      23.090  48.570  40.200  1.00  0.00    -0.384 OA
HETATM   34  C   UNL     1      21.945  47.856  39.701  1.00  0.00     0.168 C 
HETATM   35  C   UNL     1      21.753  48.256  38.249  1.00  0.00     0.029 C 
HETATM   36  C   UNL     1      22.556  49.528  38.137  1.00  0.00     0.036 C 
ENDBRANCH  31  32
ENDBRANCH   5  31
TORSDOF 6
ENDMDL
MODEL 7
REMARK VINA RESULT:      -8.4      3.098      6.291
REMARK  6 active torsions:
REMARK  status: ('A' for Active; 'I' for Inactive)
REMARK    1  A    between atoms: C_3  and  C_4 
REMARK    2  A    between atoms: C_4  and  C_5 
REMARK    3  A    between atoms: N_8  and  C_10 
REMARK    4  A    between atoms: C_10  and  C_11 
REMARK    5  A    between atoms: N_24  and  C_25 
REMARK    6  A    between atoms: C_25  and  C_26 
ROOT
HETATM    1  C   UNL     1      23.571  45.390  49.205  1.00  0.00     0.164 C 
HETATM    2  N   UNL     1      23.012  44.649  50.322  1.00  0.00    -0.319 N 
HETATM    3  C   UNL     1      22.973  43.291  50.104  1.00  0.00     0.326 C 
HETATM    4  O   UNL     1      22.734  42.473  50.972  1.00  0.00    -0.247 OA
HETATM    5  N   UNL     1      23.339  43.058  48.814  1.00  0.00    -0.265 N 
HETATM    6  C   UNL     1      23.632  44.234  48.188  1.00  0.00     0.263 C 
HETATM    7  O   UNL     1      23.980  44.331  47.017  1.00  0.00    -0.270 OA
HETATM    8  H   UNL     1      22.743  45.051  51.213  1.00  0.00     0.166 HD
ENDROOT
BRANCH   1   9
HETATM    9  C   UNL     1      22.615  46.506  48.778  1.00  0.00     0.072 A 
HETATM   10  C   UNL     1      23.047  47.820  48.577  1.00  0.00     0.030 A 
HETATM   11  C   UNL     1      22.128  48.785  48.167  1.00  0.00     0.003 A 
HETATM   12  C   UNL     1      20.808  48.423  47.940  1.00  0.00     0.019 A 
HETATM   13  C   UNL     1      20.458  47.101  48.128  1.00  0.00     0.117 A 
HETATM   14  N   UNL     1      21.326  46.145  48.536  1.00  0.00    -0.262 NA
ENDBRANCH   1   9
BRANCH   1  15
HETATM   15  C   UNL     1      25.010  45.921  49.602  1.00  0.00     0.033 C 
HETATM   16  C   UNL     1      26.151  44.887  49.533  1.00  0.00     0.036 C 
HETATM   17  C   UNL     1      26.361  44.026  50.772  1.00  0.00     0.235 C 
HETATM   18  N   UNL     1      26.379  44.852  52.035  1.00  0.00    -0.067 N 
HETATM   19  H   UNL     1      27.255  45.395  52.030  1.00  0.00     0.280 HD
HETATM   20  C   UNL     1      25.241  45.827  52.162  1.00  0.00     0.235 C 
HETATM   21  C   UNL     1      25.133  46.699  50.927  1.00  0.00     0.036 C 
BRANCH  18  22
HETATM   22  C   UNL     1      26.427  43.977  53.286  1.00  0.00     0.278 C 
BRANCH  22  23
HETATM   23  C   UNL     1      27.727  43.967  54.030  1.00  0.00     0.028 A 
HETATM   24  C   UNL     1      28.609  42.881  54.016  1.00  0.00     0.045 A 
HETATM   25 CL   UNL     1      28.218  41.431  53.164  1.00  0.00    -0.084 Cl
HETATM   26  C   UNL     1      29.822  42.939  54.709  1.00  0.00     0.024 A 
HETATM   27  C   UNL     1      30.169  44.088  55.423  1.00  0.00     0.005 A 
HETATM   28  C   UNL     1      29.301  45.174  55.448  1.00  0.00     0.043 A 
HETATM   29  C   UNL     1      28.098  45.106  54.754  1.00  0.00     0.126 A 
HETATM   30  F   UNL     1      27.270  46.158  54.793  1.00  0.00    -0.205 F 
ENDBRANCH  22  23
ENDBRANCH  18  22
ENDBRANCH   1  15
BRANCH   5  31
HETATM   31  C   UNL     1      23.389  41.748  48.179  1.00  0.00     0.168 C 
BRANCH  31  32
HETATM   32  C   UNL     1      22.175  41.491  47.271  1.00  0.00     0.140 C 
HETATM   33  O   UNL     1      21.513  40.292  47.701  1.00  0.00    -0.384 OA
HETATM   34  C   UNL     1      22.011  39.186  46.928  1.00  0.00     0.168 C 
HETATM   35  C   UNL     1      22.942  39.750  45.870  1.00  0.00     0.029 C 
HETATM   36  C   UNL     1      22.568  41.210  45.831  1.00  0.00     0.036 C 
ENDBRANCH  31  32
ENDBRANCH   5  31
TORSDOF 6
ENDMDL
MODEL 8
REMARK VINA RESULT:      -8.2      3.176      7.715
REMARK  6 active torsions:
REMARK  status: ('A' for Active; 'I' for Inactive)
REMARK    1  A    between atoms: C_3  and  C_4 
REMARK    2  A    between atoms: C_4  and  C_5 
REMARK    3  A    between atoms: N_8  and  C_10 
REMARK    4  A    between atoms: C_10  and  C_11 
REMARK    5  A    between atoms: N_24  and  C_25 
REMARK    6  A    between atoms: C_25  and  C_26 
ROOT
HETATM    1  C   UNL     1      27.226  44.490  52.735  1.00  0.00     0.164 C 
HETATM    2  N   UNL     1      27.727  44.645  51.381  1.00  0.00    -0.319 N 
HETATM    3  C   UNL     1      27.264  43.678  50.519  1.00  0.00     0.326 C 
HETATM    4  O   UNL     1      27.393  43.730  49.311  1.00  0.00    -0.247 OA
HETATM    5  N   UNL     1      26.578  42.755  51.248  1.00  0.00    -0.265 N 
HETATM    6  C   UNL     1      26.570  43.107  52.566  1.00  0.00     0.263 C 
HETATM    7  O   UNL     1      26.036  42.456  53.457  1.00  0.00    -0.270 OA
HETATM    8  H   UNL     1      28.295  45.419  51.054  1.00  0.00     0.166 HD
ENDROOT
BRANCH   1   9
HETATM    9  C   UNL     1      28.386  44.478  53.732  1.00  0.00     0.072 A 
HETATM   10  C   UNL     1      28.462  45.379  54.798  1.00  0.00     0.030 A 
HETATM   11  C   UNL     1      29.536  45.300  55.684  1.00  0.00     0.003 A 
HETATM   12  C   UNL     1      30.499  44.316  55.509  1.00  0.00     0.019 A 
HETATM   13  C   UNL     1      30.344  43.441  54.452  1.00  0.00     0.117 A 
HETATM   14  N   UNL     1      29.318  43.500  53.572  1.00  0.00    -0.262 NA
ENDBRANCH   1   9
BRANCH   1  15
HETATM   15  C   UNL     1      26.164  45.629  53.029  1.00  0.00     0.033 C 
HETATM   16  C   UNL     1      24.713  45.321  52.610  1.00  0.00     0.036 C 
HETATM   17  C   UNL     1      24.342  45.643  51.168  1.00  0.00     0.235 C 
HETATM   18  N   UNL     1      24.801  47.023  50.765  1.00  0.00    -0.067 N 
HETATM   19  H   UNL     1      24.208  47.700  51.269  1.00  0.00     0.280 HD
HETATM   20  C   UNL     1      26.232  47.332  51.104  1.00  0.00     0.235 C 
HETATM   21  C   UNL     1      26.515  47.057  52.566  1.00  0.00     0.036 C 
BRANCH  18  22
HETATM   22  C   UNL     1      24.573  47.285  49.277  1.00  0.00     0.278 C 
BRANCH  22  23
HETATM   23  C   UNL     1      23.815  48.532  48.938  1.00  0.00     0.028 A 
HETATM   24  C   UNL     1      24.437  49.723  48.547  1.00  0.00     0.045 A 
HETATM   25 CL   UNL     1      26.158  49.847  48.483  1.00  0.00    -0.084 Cl
HETATM   26  C   UNL     1      23.676  50.849  48.216  1.00  0.00     0.024 A 
HETATM   27  C   UNL     1      22.281  50.795  48.271  1.00  0.00     0.005 A 
HETATM   28  C   UNL     1      21.650  49.618  48.661  1.00  0.00     0.043 A 
HETATM   29  C   UNL     1      22.417  48.505  48.986  1.00  0.00     0.126 A 
HETATM   30  F   UNL     1      21.794  47.381  49.365  1.00  0.00    -0.205 F 
ENDBRANCH  22  23
ENDBRANCH  18  22
ENDBRANCH   1  15
BRANCH   5  31
HETATM   31  C   UNL     1      25.962  41.550  50.710  1.00  0.00     0.168 C 
BRANCH  31  32
HETATM   32  C   UNL     1      26.873  40.318  50.837  1.00  0.00     0.140 C 
HETATM   33  O   UNL     1      28.215  40.688  50.486  1.00  0.00    -0.384 OA
HETATM   34  C   UNL     1      28.427  40.391  49.094  1.00  0.00     0.168 C 
HETATM   35  C   UNL     1      27.188  39.678  48.585  1.00  0.00     0.029 C 
HETATM   36  C   UNL     1      26.514  39.218  49.853  1.00  0.00     0.036 C 
ENDBRANCH  31  32
ENDBRANCH   5  31
TORSDOF 6
ENDMDL
MODEL 9
REMARK VINA RESULT:      -8.1      2.140      5.192
REMARK  6 active torsions:
REMARK  status: ('A' for Active; 'I' for Inactive)
REMARK    1  A    between atoms: C_3  and  C_4 
REMARK    2  A    between atoms: C_4  and  C_5 
REMARK    3  A    between atoms: N_8  and  C_10 
REMARK    4  A    between atoms: C_10  and  C_11 
REMARK    5  A    between atoms: N_24  and  C_25 
REMARK    6  A    between atoms: C_25  and  C_26 
ROOT
HETATM    1  C   UNL     1      25.026  44.884  51.131  1.00  0.00     0.164 C 
HETATM    2  N   UNL     1      23.810  44.267  50.634  1.00  0.00    -0.319 N 
HETATM    3  C   UNL     1      23.995  42.974  50.206  1.00  0.00     0.326 C 
HETATM    4  O   UNL     1      23.085  42.210  49.943  1.00  0.00    -0.247 OA
HETATM    5  N   UNL     1      25.330  42.705  50.235  1.00  0.00    -0.265 N 
HETATM    6  C   UNL     1      26.019  43.792  50.689  1.00  0.00     0.263 C 
HETATM    7  O   UNL     1      27.237  43.842  50.810  1.00  0.00    -0.270 OA
HETATM    8  H   UNL     1      22.888  44.690  50.662  1.00  0.00     0.166 HD
ENDROOT
BRANCH   1   9
HETATM    9  C   UNL     1      25.267  46.222  50.429  1.00  0.00     0.072 A 
HETATM   10  C   UNL     1      24.230  47.118  50.155  1.00  0.00     0.030 A 
HETATM   11  C   UNL     1      24.521  48.330  49.531  1.00  0.00     0.003 A 
HETATM   12  C   UNL     1      25.836  48.640  49.214  1.00  0.00     0.019 A 
HETATM   13  C   UNL     1      26.814  47.722  49.541  1.00  0.00     0.117 A 
HETATM   14  N   UNL     1      26.559  46.534  50.137  1.00  0.00    -0.262 NA
ENDBRANCH   1   9
BRANCH   1  15
HETATM   15  C   UNL     1      24.937  45.016  52.707  1.00  0.00     0.033 C 
HETATM   16  C   UNL     1      25.369  46.375  53.294  1.00  0.00     0.036 C 
HETATM   17  C   UNL     1      26.856  46.547  53.578  1.00  0.00     0.235 C 
HETATM   18  N   UNL     1      27.428  45.365  54.321  1.00  0.00    -0.067 N 
HETATM   19  H   UNL     1      27.048  45.396  55.279  1.00  0.00     0.280 HD
HETATM   20  C   UNL     1      27.076  44.026  53.735  1.00  0.00     0.235 C 
HETATM   21  C   UNL     1      25.579  43.893  53.546  1.00  0.00     0.036 C 
BRANCH  18  22
HETATM   22  C   UNL     1      28.946  45.464  54.463  1.00  0.00     0.278 C 
BRANCH  22  23
HETATM   23  C   UNL     1      29.489  45.276  55.846  1.00  0.00     0.028 A 
HETATM   24  C   UNL     1      30.451  44.311  56.167  1.00  0.00     0.045 A 
HETATM   25 CL   UNL     1      31.043  43.216  54.970  1.00  0.00    -0.084 Cl
HETATM   26  C   UNL     1      30.942  44.200  57.471  1.00  0.00     0.024 A 
HETATM   27  C   UNL     1      30.477  45.056  58.472  1.00  0.00     0.005 A 
HETATM   28  C   UNL     1      29.519  46.018  58.168  1.00  0.00     0.043 A 
HETATM   29  C   UNL     1      29.040  46.120  56.868  1.00  0.00     0.126 A 
HETATM   30  F   UNL     1      28.113  47.048  56.593  1.00  0.00    -0.205 F 
ENDBRANCH  22  23
ENDBRANCH  18  22
ENDBRANCH   1  15
BRANCH   5  31
HETATM   31  C   UNL     1      25.943  41.451  49.819  1.00  0.00     0.168 C 
BRANCH  31  32
HETATM   32  C   UNL     1      26.257  41.423  48.314  1.00  0.00     0.140 C 
HETATM   33  O   UNL     1      25.392  40.476  47.671  1.00  0.00    -0.384 OA
HETATM   34  C   UNL     1      26.074  39.212  47.583  1.00  0.00     0.168 C 
HETATM   35  C   UNL     1      27.491  39.421  48.084  1.00  0.00     0.029 C 
HETATM   36  C   UNL     1      27.659  40.919  48.016  1.00  0.00     0.036 C 
ENDBRANCH  31  32
ENDBRANCH   5  31
TORSDOF 6
ENDMDL
MODEL 10
REMARK VINA RESULT:      -8.1     12.398     15.487
REMARK  6 active torsions:
REMARK  status: ('A' for Active; 'I' for Inactive)
REMARK    1  A    between atoms: C_3  and  C_4 
REMARK    2  A    between atoms: C_4  and  C_5 
REMARK    3  A    between atoms: N_8  and  C_10 
REMARK    4  A    between atoms: C_10  and  C_11 
REMARK    5  A    between atoms: N_24  and  C_25 
REMARK    6  A    between atoms: C_25  and  C_26 
ROOT
HETATM    1  C   UNL     1      32.973  50.505  41.567  1.00  0.00     0.164 C 
HETATM    2  N   UNL     1      33.946  50.223  40.527  1.00  0.00    -0.319 N 
HETATM    3  C   UNL     1      35.240  50.479  40.913  1.00  0.00     0.326 C 
HETATM    4  O   UNL     1      36.218  50.129  40.280  1.00  0.00    -0.247 OA
HETATM    5  N   UNL     1      35.207  51.079  42.135  1.00  0.00    -0.265 N 
HETATM    6  C   UNL     1      33.917  51.206  42.562  1.00  0.00     0.263 C 
HETATM    7  O   UNL     1      33.583  51.719  43.623  1.00  0.00    -0.270 OA
HETATM    8  H   UNL     1      33.733  49.806  39.627  1.00  0.00     0.166 HD
ENDROOT
BRANCH   1   9
HETATM    9  C   UNL     1      31.879  51.432  41.034  1.00  0.00     0.072 A 
HETATM   10  C   UNL     1      31.325  52.455  41.810  1.00  0.00     0.030 A 
HETATM   11  C   UNL     1      30.346  53.278  41.256  1.00  0.00     0.003 A 
HETATM   12  C   UNL     1      29.955  53.088  39.938  1.00  0.00     0.019 A 
HETATM   13  C   UNL     1      30.566  52.079  39.221  1.00  0.00     0.117 A 
HETATM   14  N   UNL     1      31.511  51.258  39.736  1.00  0.00    -0.262 NA
ENDBRANCH   1   9
BRANCH   1  15
HETATM   15  C   UNL     1      32.407  49.137  42.134  1.00  0.00     0.033 C 
HETATM   16  C   UNL     1      32.564  47.911  41.213  1.00  0.00     0.036 C 
HETATM   17  C   UNL     1      31.464  47.693  40.182  1.00  0.00     0.235 C 
HETATM   18  N   UNL     1      30.089  47.810  40.794  1.00  0.00    -0.067 N 
HETATM   19  H   UNL     1      29.953  46.983  41.394  1.00  0.00     0.280 HD
HETATM   20  C   UNL     1      29.884  49.030  41.648  1.00  0.00     0.235 C 
HETATM   21  C   UNL     1      30.972  49.148  42.696  1.00  0.00     0.036 C 
BRANCH  18  22
HETATM   22  C   UNL     1      28.989  47.752  39.735  1.00  0.00     0.278 C 
BRANCH  22  23
HETATM   23  C   UNL     1      27.626  47.374  40.226  1.00  0.00     0.028 A 
HETATM   24  C   UNL     1      26.565  48.283  40.317  1.00  0.00     0.045 A 
HETATM   25 CL   UNL     1      26.786  49.947  39.912  1.00  0.00    -0.084 Cl
HETATM   26  C   UNL     1      25.305  47.866  40.757  1.00  0.00     0.024 A 
HETATM   27  C   UNL     1      25.090  46.532  41.109  1.00  0.00     0.005 A 
HETATM   28  C   UNL     1      26.135  45.618  41.026  1.00  0.00     0.043 A 
HETATM   29  C   UNL     1      27.383  46.043  40.586  1.00  0.00     0.126 A 
HETATM   30  F   UNL     1      28.381  45.152  40.517  1.00  0.00    -0.205 F 
ENDBRANCH  22  23
ENDBRANCH  18  22
ENDBRANCH   1  15
BRANCH   5  31
HETATM   31  C   UNL     1      36.372  51.543  42.875  1.00  0.00     0.168 C 
BRANCH  31  32
HETATM   32  C   UNL     1      36.600  53.057  42.719  1.00  0.00     0.140 C 
HETATM   33  O   UNL     1      36.347  53.433  41.357  1.00  0.00    -0.384 OA
HETATM   34  C   UNL     1      37.592  53.424  40.636  1.00  0.00     0.168 C 
HETATM   35  C   UNL     1      38.699  53.151  41.638  1.00  0.00     0.029 C 
HETATM   36  C   UNL     1      38.044  53.460  42.961  1.00  0.00     0.036 C 
ENDBRANCH  31  32
ENDBRANCH   5  31
TORSDOF 6
ENDMDL
