MODEL 1
REMARK VINA RESULT:      -8.8      0.000      0.000
REMARK  3 active torsions:
REMARK  status: ('A' for Active; 'I' for Inactive)
REMARK    1  A    between atoms: C_7  and  C_8 
REMARK    2  A    between atoms: C_17  and  C_18 
REMARK       I    between atoms: C_18  and  N_19 
REMARK    3  A    between atoms: N_19  and  C_20 
ROOT
HETATM    1  C   UNL     1      25.499  43.827  51.984  1.00  0.00     0.206 C 
HETATM    2  N   UNL     1      24.515  43.309  51.022  1.00  0.00    -0.084 N 
HETATM    3  C   UNL     1      24.623  42.089  50.409  1.00  0.00     0.725 A 
HETATM    4  N   UNL     1      23.564  41.868  49.675  1.00  0.00    -0.054 NA
HETATM    5  C   UNL     1      22.800  42.981  49.906  1.00  0.00     0.275 A 
HETATM    6  N   UNL     1      23.309  43.869  50.768  1.00  0.00    -0.149 NA
HETATM    7  N   UNL     1      25.713  41.333  50.633  1.00  0.00    -0.192 N 
HETATM    8  C   UNL     1      26.806  41.770  51.372  1.00  0.00     0.037 C 
HETATM    9  C   UNL     1      27.984  40.826  51.406  1.00  0.00     0.070 C 
HETATM   10  C   UNL     1      26.755  42.966  52.014  1.00  0.00     0.063 C 
HETATM   11  H   UNL     1      25.813  40.462  50.119  1.00  0.00     0.184 HD
ENDROOT
BRANCH  10  12
HETATM   12  C   UNL     1      27.988  43.491  52.661  1.00  0.00     0.256 C 
HETATM   13  N   UNL     1      27.946  43.508  54.036  1.00  0.00    -0.323 N 
HETATM   14  H   UNL     1      27.098  43.207  54.495  1.00  0.00     0.169 HD
HETATM   15  O   UNL     1      28.911  43.864  51.945  1.00  0.00    -0.267 OA
BRANCH  13  16
HETATM   16  C   UNL     1      28.984  43.926  54.902  1.00  0.00     0.035 A 
HETATM   17  C   UNL     1      29.045  45.189  55.498  1.00  0.00     0.029 A 
HETATM   18  C   UNL     1      30.112  45.534  56.333  1.00  0.00     0.002 A 
HETATM   19  C   UNL     1      31.128  44.617  56.587  1.00  0.00     0.000 A 
HETATM   20  C   UNL     1      31.079  43.355  56.002  1.00  0.00     0.002 A 
HETATM   21  C   UNL     1      30.014  43.013  55.162  1.00  0.00     0.029 A 
ENDBRANCH  13  16
ENDBRANCH  10  12
BRANCH   1  22
HETATM   22  C   UNL     1      25.733  45.299  51.762  1.00  0.00     0.015 A 
HETATM   23  C   UNL     1      26.278  45.914  50.641  1.00  0.00     0.036 A 
HETATM   24  C   UNL     1      26.829  45.345  49.383  1.00  0.00     0.070 C 
HETATM   25  N   UNL     1      26.267  47.260  50.909  1.00  0.00    -0.278 N 
HETATM   26  C   UNL     1      26.723  48.334  50.057  1.00  0.00     0.179 C 
HETATM   27  N   UNL     1      25.786  47.556  52.126  1.00  0.00    -0.185 NA
HETATM   28  C   UNL     1      25.469  46.371  52.648  1.00  0.00     0.150 A 
ENDBRANCH   1  22
TORSDOF 3
ENDMDL
MODEL 2
REMARK VINA RESULT:      -8.6      2.028      4.395
REMARK  3 active torsions:
REMARK  status: ('A' for Active; 'I' for Inactive)
REMARK    1  A    between atoms: C_7  and  C_8 
REMARK    2  A    between atoms: C_17  and  C_18 
REMARK       I    between atoms: C_18  and  N_19 
REMARK    3  A    between atoms: N_19  and  C_20 
ROOT
HETATM    1  C   UNL     1      27.316  44.995  51.993  1.00  0.00     0.206 C 
HETATM    2  N   UNL     1      26.334  45.479  51.011  1.00  0.00    -0.084 N 
HETATM    3  C   UNL     1      25.462  46.506  51.254  1.00  0.00     0.725 A 
HETATM    4  N   UNL     1      24.773  46.765  50.174  1.00  0.00    -0.054 NA
HETATM    5  C   UNL     1      25.295  45.884  49.264  1.00  0.00     0.275 A 
HETATM    6  N   UNL     1      26.294  45.112  49.709  1.00  0.00    -0.149 NA
HETATM    7  N   UNL     1      25.438  47.076  52.472  1.00  0.00    -0.192 N 
HETATM    8  C   UNL     1      26.178  46.605  53.550  1.00  0.00     0.037 C 
HETATM    9  C   UNL     1      25.921  47.301  54.866  1.00  0.00     0.070 C 
HETATM   10  C   UNL     1      27.069  45.595  53.371  1.00  0.00     0.063 C 
HETATM   11  H   UNL     1      24.739  47.791  52.660  1.00  0.00     0.184 HD
ENDROOT
BRANCH  10  12
HETATM   12  C   UNL     1      27.728  44.995  54.561  1.00  0.00     0.256 C 
HETATM   13  N   UNL     1      28.952  45.543  54.872  1.00  0.00    -0.323 N 
HETATM   14  H   UNL     1      29.321  46.266  54.271  1.00  0.00     0.169 HD
HETATM   15  O   UNL     1      27.158  44.083  55.149  1.00  0.00    -0.267 OA
BRANCH  13  16
HETATM   16  C   UNL     1      29.779  45.186  55.963  1.00  0.00     0.035 A 
HETATM   17  C   UNL     1      30.699  44.134  55.935  1.00  0.00     0.029 A 
HETATM   18  C   UNL     1      31.472  43.833  57.061  1.00  0.00     0.002 A 
HETATM   19  C   UNL     1      31.339  44.585  58.224  1.00  0.00     0.000 A 
HETATM   20  C   UNL     1      30.429  45.637  58.264  1.00  0.00     0.002 A 
HETATM   21  C   UNL     1      29.651  45.933  57.141  1.00  0.00     0.029 A 
ENDBRANCH  13  16
ENDBRANCH  10  12
BRANCH   1  22
HETATM   22  C   UNL     1      27.409  43.491  51.953  1.00  0.00     0.015 A 
HETATM   23  C   UNL     1      28.518  42.700  52.229  1.00  0.00     0.036 A 
HETATM   24  C   UNL     1      29.916  43.064  52.581  1.00  0.00     0.070 C 
HETATM   25  N   UNL     1      28.101  41.402  52.074  1.00  0.00    -0.278 N 
HETATM   26  C   UNL     1      28.878  40.197  52.253  1.00  0.00     0.179 C 
HETATM   27  N   UNL     1      26.819  41.298  51.692  1.00  0.00    -0.185 NA
HETATM   28  C   UNL     1      26.400  42.560  51.611  1.00  0.00     0.150 A 
ENDBRANCH   1  22
TORSDOF 3
ENDMDL
MODEL 3
REMARK VINA RESULT:      -8.2      1.196      1.849
REMARK  3 active torsions:
REMARK  status: ('A' for Active; 'I' for Inactive)
REMARK    1  A    between atoms: C_7  and  C_8 
REMARK    2  A    between atoms: C_17  and  C_18 
REMARK       I    between atoms: C_18  and  N_19 
REMARK    3  A    between atoms: N_19  and  C_20 
ROOT
HETATM    1  C   UNL     1      26.383  42.867  51.263  1.00  0.00     0.206 C 
HETATM    2  N   UNL     1      25.753  42.000  50.256  1.00  0.00    -0.084 N 
HETATM    3  C   UNL     1      26.126  40.701  50.033  1.00  0.00     0.725 A 
HETATM    4  N   UNL     1      25.337  40.162  49.141  1.00  0.00    -0.054 NA
HETATM    5  C   UNL     1      24.453  41.172  48.871  1.00  0.00     0.275 A 
HETATM    6  N   UNL     1      24.627  42.301  49.568  1.00  0.00    -0.149 NA
HETATM    7  N   UNL     1      27.166  40.187  50.715  1.00  0.00    -0.192 N 
HETATM    8  C   UNL     1      27.968  40.940  51.564  1.00  0.00     0.037 C 
HETATM    9  C   UNL     1      29.161  40.215  52.140  1.00  0.00     0.070 C 
HETATM   10  C   UNL     1      27.645  42.232  51.834  1.00  0.00     0.063 C 
HETATM   11  H   UNL     1      27.475  39.245  50.491  1.00  0.00     0.184 HD
ENDROOT
BRANCH  10  12
HETATM   12  C   UNL     1      28.600  43.068  52.608  1.00  0.00     0.256 C 
HETATM   13  N   UNL     1      28.186  43.372  53.885  1.00  0.00    -0.323 N 
HETATM   14  H   UNL     1      27.278  43.047  54.186  1.00  0.00     0.169 HD
HETATM   15  O   UNL     1      29.643  43.420  52.068  1.00  0.00    -0.267 OA
BRANCH  13  16
HETATM   16  C   UNL     1      28.905  44.122  54.845  1.00  0.00     0.035 A 
HETATM   17  C   UNL     1      28.464  45.336  55.381  1.00  0.00     0.029 A 
HETATM   18  C   UNL     1      29.240  46.026  56.317  1.00  0.00     0.002 A 
HETATM   19  C   UNL     1      30.462  45.508  56.733  1.00  0.00     0.000 A 
HETATM   20  C   UNL     1      30.913  44.300  56.210  1.00  0.00     0.002 A 
HETATM   21  C   UNL     1      30.140  43.613  55.268  1.00  0.00     0.029 A 
ENDBRANCH  13  16
ENDBRANCH  10  12
BRANCH   1  22
HETATM   22  C   UNL     1      26.552  44.265  50.729  1.00  0.00     0.015 A 
HETATM   23  C   UNL     1      26.079  45.449  51.282  1.00  0.00     0.036 A 
HETATM   24  C   UNL     1      25.249  45.703  52.490  1.00  0.00     0.070 C 
HETATM   25  N   UNL     1      26.500  46.450  50.442  1.00  0.00    -0.278 N 
HETATM   26  C   UNL     1      26.272  47.870  50.577  1.00  0.00     0.179 C 
HETATM   27  N   UNL     1      27.181  45.999  49.377  1.00  0.00    -0.185 NA
HETATM   28  C   UNL     1      27.207  44.677  49.544  1.00  0.00     0.150 A 
ENDBRANCH   1  22
TORSDOF 3
ENDMDL
MODEL 4
REMARK VINA RESULT:      -7.8      2.320      4.647
REMARK  3 active torsions:
REMARK  status: ('A' for Active; 'I' for Inactive)
REMARK    1  A    between atoms: C_7  and  C_8 
REMARK    2  A    between atoms: C_17  and  C_18 
REMARK       I    between atoms: C_18  and  N_19 
REMARK    3  A    between atoms: N_19  and  C_20 
ROOT
HETATM    1  C   UNL     1      25.727  42.074  48.817  1.00  0.00     0.206 C 
HETATM    2  N   UNL     1      24.400  41.561  48.445  1.00  0.00    -0.084 N 
HETATM    3  C   UNL     1      23.225  42.147  48.834  1.00  0.00     0.725 A 
HETATM    4  N   UNL     1      22.217  41.520  48.285  1.00  0.00    -0.054 NA
HETATM    5  C   UNL     1      22.835  40.566  47.521  1.00  0.00     0.275 A 
HETATM    6  N   UNL     1      24.173  40.584  47.537  1.00  0.00    -0.149 NA
HETATM    7  N   UNL     1      23.259  43.211  49.654  1.00  0.00    -0.192 N 
HETATM    8  C   UNL     1      24.428  43.694  50.231  1.00  0.00     0.037 C 
HETATM    9  C   UNL     1      24.245  44.819  51.223  1.00  0.00     0.070 C 
HETATM   10  C   UNL     1      25.627  43.162  49.878  1.00  0.00     0.063 C 
HETATM   11  H   UNL     1      22.378  43.594  49.990  1.00  0.00     0.184 HD
ENDROOT
BRANCH  10  12
HETATM   12  C   UNL     1      26.847  43.574  50.623  1.00  0.00     0.256 C 
HETATM   13  N   UNL     1      26.975  43.000  51.868  1.00  0.00    -0.323 N 
HETATM   14  H   UNL     1      26.240  42.388  52.193  1.00  0.00     0.169 HD
HETATM   15  O   UNL     1      27.614  44.371  50.096  1.00  0.00    -0.267 OA
BRANCH  13  16
HETATM   16  C   UNL     1      28.045  43.189  52.773  1.00  0.00     0.035 A 
HETATM   17  C   UNL     1      27.986  44.029  53.889  1.00  0.00     0.029 A 
HETATM   18  C   UNL     1      29.093  44.174  54.731  1.00  0.00     0.002 A 
HETATM   19  C   UNL     1      30.269  43.477  54.470  1.00  0.00     0.000 A 
HETATM   20  C   UNL     1      30.341  42.636  53.364  1.00  0.00     0.002 A 
HETATM   21  C   UNL     1      29.236  42.496  52.518  1.00  0.00     0.029 A 
ENDBRANCH  13  16
ENDBRANCH  10  12
BRANCH   1  22
HETATM   22  C   UNL     1      26.661  40.938  49.146  1.00  0.00     0.015 A 
HETATM   23  C   UNL     1      27.768  40.511  48.422  1.00  0.00     0.036 A 
HETATM   24  C   UNL     1      28.329  40.976  47.126  1.00  0.00     0.070 C 
HETATM   25  N   UNL     1      28.299  39.463  49.132  1.00  0.00    -0.278 N 
HETATM   26  C   UNL     1      29.465  38.675  48.805  1.00  0.00     0.179 C 
HETATM   27  N   UNL     1      27.603  39.164  50.239  1.00  0.00    -0.185 NA
HETATM   28  C   UNL     1      26.607  40.051  50.247  1.00  0.00     0.150 A 
ENDBRANCH   1  22
TORSDOF 3
ENDMDL
MODEL 5
REMARK VINA RESULT:      -7.8      1.917      2.731
REMARK  3 active torsions:
REMARK  status: ('A' for Active; 'I' for Inactive)
REMARK    1  A    between atoms: C_7  and  C_8 
REMARK    2  A    between atoms: C_17  and  C_18 
REMARK       I    between atoms: C_18  and  N_19 
REMARK    3  A    between atoms: N_19  and  C_20 
ROOT
HETATM    1  C   UNL     1      26.430  42.537  50.521  1.00  0.00     0.206 C 
HETATM    2  N   UNL     1      26.839  41.792  49.321  1.00  0.00    -0.084 N 
HETATM    3  C   UNL     1      27.770  40.788  49.332  1.00  0.00     0.725 A 
HETATM    4  N   UNL     1      27.864  40.260  48.140  1.00  0.00    -0.054 NA
HETATM    5  C   UNL     1      26.925  40.957  47.426  1.00  0.00     0.275 A 
HETATM    6  N   UNL     1      26.228  41.867  48.116  1.00  0.00    -0.149 NA
HETATM    7  N   UNL     1      28.407  40.492  50.479  1.00  0.00    -0.192 N 
HETATM    8  C   UNL     1      28.256  41.230  51.647  1.00  0.00     0.037 C 
HETATM    9  C   UNL     1      29.150  40.818  52.793  1.00  0.00     0.070 C 
HETATM   10  C   UNL     1      27.341  42.232  51.703  1.00  0.00     0.063 C 
HETATM   11  H   UNL     1      29.144  39.792  50.459  1.00  0.00     0.184 HD
ENDROOT
BRANCH  10  12
HETATM   12  C   UNL     1      27.309  43.115  52.900  1.00  0.00     0.256 C 
HETATM   13  N   UNL     1      28.531  43.640  53.253  1.00  0.00    -0.323 N 
HETATM   14  H   UNL     1      29.344  43.371  52.716  1.00  0.00     0.169 HD
HETATM   15  O   UNL     1      26.237  43.295  53.466  1.00  0.00    -0.267 OA
BRANCH  13  16
HETATM   16  C   UNL     1      28.785  44.529  54.324  1.00  0.00     0.035 A 
HETATM   17  C   UNL     1      28.073  45.711  54.545  1.00  0.00     0.029 A 
HETATM   18  C   UNL     1      28.393  46.547  55.620  1.00  0.00     0.002 A 
HETATM   19  C   UNL     1      29.423  46.205  56.490  1.00  0.00     0.000 A 
HETATM   20  C   UNL     1      30.139  45.030  56.284  1.00  0.00     0.002 A 
HETATM   21  C   UNL     1      29.823  44.198  55.205  1.00  0.00     0.029 A 
ENDBRANCH  13  16
ENDBRANCH  10  12
BRANCH   1  22
HETATM   22  C   UNL     1      26.256  44.000  50.203  1.00  0.00     0.015 A 
HETATM   23  C   UNL     1      25.080  44.741  50.228  1.00  0.00     0.036 A 
HETATM   24  C   UNL     1      23.677  44.340  50.508  1.00  0.00     0.070 C 
HETATM   25  N   UNL     1      25.437  46.020  49.882  1.00  0.00    -0.278 N 
HETATM   26  C   UNL     1      24.577  47.176  49.769  1.00  0.00     0.179 C 
HETATM   27  N   UNL     1      26.743  46.153  49.608  1.00  0.00    -0.185 NA
HETATM   28  C   UNL     1      27.240  44.931  49.794  1.00  0.00     0.150 A 
ENDBRANCH   1  22
TORSDOF 3
ENDMDL
MODEL 6
REMARK VINA RESULT:      -7.5      5.550      8.341
REMARK  3 active torsions:
REMARK  status: ('A' for Active; 'I' for Inactive)
REMARK    1  A    between atoms: C_7  and  C_8 
REMARK    2  A    between atoms: C_17  and  C_18 
REMARK       I    between atoms: C_18  and  N_19 
REMARK    3  A    between atoms: N_19  and  C_20 
ROOT
HETATM    1  C   UNL     1      21.366  48.717  49.212  1.00  0.00     0.206 C 
HETATM    2  N   UNL     1      20.367  49.790  49.334  1.00  0.00    -0.084 N 
HETATM    3  C   UNL     1      19.039  49.627  49.040  1.00  0.00     0.725 A 
HETATM    4  N   UNL     1      18.387  50.724  49.322  1.00  0.00    -0.054 NA
HETATM    5  C   UNL     1      19.366  51.533  49.835  1.00  0.00     0.275 A 
HETATM    6  N   UNL     1      20.586  50.990  49.918  1.00  0.00    -0.149 NA
HETATM    7  N   UNL     1      18.613  48.450  48.549  1.00  0.00    -0.192 N 
HETATM    8  C   UNL     1      19.469  47.408  48.212  1.00  0.00     0.037 C 
HETATM    9  C   UNL     1      18.811  46.215  47.558  1.00  0.00     0.070 C 
HETATM   10  C   UNL     1      20.795  47.504  48.488  1.00  0.00     0.063 C 
HETATM   11  H   UNL     1      17.638  48.364  48.271  1.00  0.00     0.184 HD
ENDROOT
BRANCH  10  12
HETATM   12  C   UNL     1      21.718  46.457  47.973  1.00  0.00     0.256 C 
HETATM   13  N   UNL     1      22.069  45.502  48.899  1.00  0.00    -0.323 N 
HETATM   14  H   UNL     1      21.717  45.594  49.841  1.00  0.00     0.169 HD
HETATM   15  O   UNL     1      22.090  46.527  46.807  1.00  0.00    -0.267 OA
BRANCH  13  16
HETATM   16  C   UNL     1      22.903  44.382  48.674  1.00  0.00     0.035 A 
HETATM   17  C   UNL     1      22.518  43.253  47.945  1.00  0.00     0.029 A 
HETATM   18  C   UNL     1      23.396  42.178  47.777  1.00  0.00     0.002 A 
HETATM   19  C   UNL     1      24.672  42.222  48.331  1.00  0.00     0.000 A 
HETATM   20  C   UNL     1      25.069  43.340  49.058  1.00  0.00     0.002 A 
HETATM   21  C   UNL     1      24.188  44.413  49.231  1.00  0.00     0.029 A 
ENDBRANCH  13  16
ENDBRANCH  10  12
BRANCH   1  22
HETATM   22  C   UNL     1      22.656  49.255  48.649  1.00  0.00     0.015 A 
HETATM   23  C   UNL     1      23.952  48.919  49.023  1.00  0.00     0.036 A 
HETATM   24  C   UNL     1      24.460  48.009  50.083  1.00  0.00     0.070 C 
HETATM   25  N   UNL     1      24.778  49.657  48.214  1.00  0.00    -0.278 N 
HETATM   26  C   UNL     1      26.223  49.666  48.200  1.00  0.00     0.179 C 
HETATM   27  N   UNL     1      24.116  50.463  47.370  1.00  0.00    -0.185 NA
HETATM   28  C   UNL     1      22.831  50.227  47.636  1.00  0.00     0.150 A 
ENDBRANCH   1  22
TORSDOF 3
ENDMDL
MODEL 7
REMARK VINA RESULT:      -7.3      5.814      8.443
REMARK  3 active torsions:
REMARK  status: ('A' for Active; 'I' for Inactive)
REMARK    1  A    between atoms: C_7  and  C_8 
REMARK    2  A    between atoms: C_17  and  C_18 
REMARK       I    between atoms: C_18  and  N_19 
REMARK    3  A    between atoms: N_19  and  C_20 
ROOT
HETATM    1  C   UNL     1      20.433  47.831  47.524  1.00  0.00     0.206 C 
HETATM    2  N   UNL     1      19.133  47.476  48.112  1.00  0.00    -0.084 N 
HETATM    3  C   UNL     1      18.485  48.246  49.041  1.00  0.00     0.725 A 
HETATM    4  N   UNL     1      17.319  47.719  49.314  1.00  0.00    -0.054 NA
HETATM    5  C   UNL     1      17.278  46.630  48.484  1.00  0.00     0.275 A 
HETATM    6  N   UNL     1      18.338  46.467  47.685  1.00  0.00    -0.149 NA
HETATM    7  N   UNL     1      19.079  49.359  49.504  1.00  0.00    -0.192 N 
HETATM    8  C   UNL     1      20.379  49.723  49.177  1.00  0.00     0.037 C 
HETATM    9  C   UNL     1      20.912  50.940  49.896  1.00  0.00     0.070 C 
HETATM   10  C   UNL     1      21.072  49.006  48.254  1.00  0.00     0.063 C 
HETATM   11  H   UNL     1      18.617  49.885  50.243  1.00  0.00     0.184 HD
ENDROOT
BRANCH  10  12
HETATM   12  C   UNL     1      22.513  49.308  48.038  1.00  0.00     0.256 C 
HETATM   13  N   UNL     1      23.352  48.796  49.002  1.00  0.00    -0.323 N 
HETATM   14  H   UNL     1      22.943  48.300  49.781  1.00  0.00     0.169 HD
HETATM   15  O   UNL     1      22.831  49.972  47.059  1.00  0.00    -0.267 OA
BRANCH  13  16
HETATM   16  C   UNL     1      24.762  48.905  49.029  1.00  0.00     0.035 A 
HETATM   17  C   UNL     1      25.479  49.937  48.417  1.00  0.00     0.029 A 
HETATM   18  C   UNL     1      26.876  49.969  48.477  1.00  0.00     0.002 A 
HETATM   19  C   UNL     1      27.571  48.972  49.155  1.00  0.00     0.000 A 
HETATM   20  C   UNL     1      26.870  47.940  49.771  1.00  0.00     0.002 A 
HETATM   21  C   UNL     1      25.473  47.905  49.705  1.00  0.00     0.029 A 
ENDBRANCH  13  16
ENDBRANCH  10  12
BRANCH   1  22
HETATM   22  C   UNL     1      21.305  46.610  47.385  1.00  0.00     0.015 A 
HETATM   23  C   UNL     1      21.576  45.886  46.230  1.00  0.00     0.036 A 
HETATM   24  C   UNL     1      21.077  46.042  44.838  1.00  0.00     0.070 C 
HETATM   25  N   UNL     1      22.429  44.880  46.609  1.00  0.00    -0.278 N 
HETATM   26  C   UNL     1      23.013  43.856  45.774  1.00  0.00     0.179 C 
HETATM   27  N   UNL     1      22.703  44.882  47.923  1.00  0.00    -0.185 NA
HETATM   28  C   UNL     1      22.018  45.923  48.396  1.00  0.00     0.150 A 
ENDBRANCH   1  22
TORSDOF 3
ENDMDL
MODEL 8
REMARK VINA RESULT:      -7.2      4.778      8.657
REMARK  3 active torsions:
REMARK  status: ('A' for Active; 'I' for Inactive)
REMARK    1  A    between atoms: C_7  and  C_8 
REMARK    2  A    between atoms: C_17  and  C_18 
REMARK       I    between atoms: C_18  and  N_19 
REMARK    3  A    between atoms: N_19  and  C_20 
ROOT
HETATM    1  C   UNL     1      23.514  45.584  49.139  1.00  0.00     0.206 C 
HETATM    2  N   UNL     1      24.754  44.807  49.284  1.00  0.00    -0.084 N 
HETATM    3  C   UNL     1      25.980  45.372  49.521  1.00  0.00     0.725 A 
HETATM    4  N   UNL     1      26.874  44.432  49.684  1.00  0.00    -0.054 NA
HETATM    5  C   UNL     1      26.131  43.287  49.576  1.00  0.00     0.275 A 
HETATM    6  N   UNL     1      24.818  43.460  49.388  1.00  0.00    -0.149 NA
HETATM    7  N   UNL     1      26.091  46.711  49.564  1.00  0.00    -0.192 N 
HETATM    8  C   UNL     1      25.043  47.574  49.267  1.00  0.00     0.037 C 
HETATM    9  C   UNL     1      25.398  49.042  49.248  1.00  0.00     0.070 C 
HETATM   10  C   UNL     1      23.801  47.076  49.032  1.00  0.00     0.063 C 
HETATM   11  H   UNL     1      27.016  47.118  49.674  1.00  0.00     0.184 HD
ENDROOT
BRANCH  10  12
HETATM   12  C   UNL     1      22.733  47.995  48.554  1.00  0.00     0.256 C 
HETATM   13  N   UNL     1      21.998  48.585  49.558  1.00  0.00    -0.323 N 
HETATM   14  H   UNL     1      22.203  48.335  50.515  1.00  0.00     0.169 HD
HETATM   15  O   UNL     1      22.587  48.146  47.347  1.00  0.00    -0.267 OA
BRANCH  13  16
HETATM   16  C   UNL     1      20.948  49.518  49.391  1.00  0.00     0.035 A 
HETATM   17  C   UNL     1      21.132  50.835  48.962  1.00  0.00     0.029 A 
HETATM   18  C   UNL     1      20.044  51.704  48.835  1.00  0.00     0.002 A 
HETATM   19  C   UNL     1      18.757  51.262  49.129  1.00  0.00     0.000 A 
HETATM   20  C   UNL     1      18.558  49.952  49.554  1.00  0.00     0.002 A 
HETATM   21  C   UNL     1      19.648  49.086  49.688  1.00  0.00     0.029 A 
ENDBRANCH  13  16
ENDBRANCH  10  12
BRANCH   1  22
HETATM   22  C   UNL     1      22.656  45.014  48.039  1.00  0.00     0.015 A 
HETATM   23  C   UNL     1      21.270  44.906  48.012  1.00  0.00     0.036 A 
HETATM   24  C   UNL     1      20.241  45.251  49.028  1.00  0.00     0.070 C 
HETATM   25  N   UNL     1      20.963  44.340  46.800  1.00  0.00    -0.278 N 
HETATM   26  C   UNL     1      19.652  44.024  46.280  1.00  0.00     0.179 C 
HETATM   27  N   UNL     1      22.043  44.048  46.059  1.00  0.00    -0.185 NA
HETATM   28  C   UNL     1      23.069  44.448  46.810  1.00  0.00     0.150 A 
ENDBRANCH   1  22
TORSDOF 3
ENDMDL
MODEL 9
REMARK VINA RESULT:      -7.1     16.224     18.207
REMARK  3 active torsions:
REMARK  status: ('A' for Active; 'I' for Inactive)
REMARK    1  A    between atoms: C_7  and  C_8 
REMARK    2  A    between atoms: C_17  and  C_18 
REMARK       I    between atoms: C_18  and  N_19 
REMARK    3  A    between atoms: N_19  and  C_20 
ROOT
HETATM    1  C   UNL     1      39.614  46.118  64.402  1.00  0.00     0.206 C 
HETATM    2  N   UNL     1      41.084  46.057  64.396  1.00  0.00    -0.084 N 
HETATM    3  C   UNL     1      41.797  45.017  63.860  1.00  0.00     0.725 A 
HETATM    4  N   UNL     1      43.076  45.280  63.927  1.00  0.00    -0.054 NA
HETATM    5  C   UNL     1      43.099  46.531  64.483  1.00  0.00     0.275 A 
HETATM    6  N   UNL     1      41.904  47.077  64.737  1.00  0.00    -0.149 NA
HETATM    7  N   UNL     1      41.141  43.953  63.365  1.00  0.00    -0.192 N 
HETATM    8  C   UNL     1      39.764  43.791  63.466  1.00  0.00     0.037 C 
HETATM    9  C   UNL     1      39.229  42.472  62.961  1.00  0.00     0.070 C 
HETATM   10  C   UNL     1      39.000  44.790  63.978  1.00  0.00     0.063 C 
HETATM   11  H   UNL     1      41.683  43.160  63.033  1.00  0.00     0.184 HD
ENDROOT
BRANCH  10  12
HETATM   12  C   UNL     1      37.556  44.537  64.232  1.00  0.00     0.256 C 
HETATM   13  N   UNL     1      37.303  43.679  65.278  1.00  0.00    -0.323 N 
HETATM   14  H   UNL     1      38.088  43.266  65.762  1.00  0.00     0.169 HD
HETATM   15  O   UNL     1      36.730  45.084  63.511  1.00  0.00    -0.267 OA
BRANCH  13  16
HETATM   16  C   UNL     1      36.030  43.289  65.754  1.00  0.00     0.035 A 
HETATM   17  C   UNL     1      35.291  44.013  66.694  1.00  0.00     0.029 A 
HETATM   18  C   UNL     1      34.042  43.555  67.127  1.00  0.00     0.002 A 
HETATM   19  C   UNL     1      33.516  42.370  66.621  1.00  0.00     0.000 A 
HETATM   20  C   UNL     1      34.240  41.640  65.683  1.00  0.00     0.002 A 
HETATM   21  C   UNL     1      35.492  42.096  65.255  1.00  0.00     0.029 A 
ENDBRANCH  13  16
ENDBRANCH  10  12
BRANCH   1  22
HETATM   22  C   UNL     1      39.112  46.671  65.710  1.00  0.00     0.015 A 
HETATM   23  C   UNL     1      38.294  47.778  65.907  1.00  0.00     0.036 A 
HETATM   24  C   UNL     1      37.723  48.757  64.944  1.00  0.00     0.070 C 
HETATM   25  N   UNL     1      38.103  47.867  67.263  1.00  0.00    -0.278 N 
HETATM   26  C   UNL     1      37.321  48.846  67.982  1.00  0.00     0.179 C 
HETATM   27  N   UNL     1      38.758  46.922  67.955  1.00  0.00    -0.185 NA
HETATM   28  C   UNL     1      39.375  46.202  67.019  1.00  0.00     0.150 A 
ENDBRANCH   1  22
TORSDOF 3
ENDMDL
MODEL 10
REMARK VINA RESULT:      -7.1      1.931      5.465
REMARK  3 active torsions:
REMARK  status: ('A' for Active; 'I' for Inactive)
REMARK    1  A    between atoms: C_7  and  C_8 
REMARK    2  A    between atoms: C_17  and  C_18 
REMARK       I    between atoms: C_18  and  N_19 
REMARK    3  A    between atoms: N_19  and  C_20 
ROOT
HETATM    1  C   UNL     1      27.587  45.614  53.141  1.00  0.00     0.206 C 
HETATM    2  N   UNL     1      27.288  46.395  54.350  1.00  0.00    -0.084 N 
HETATM    3  C   UNL     1      27.942  46.228  55.542  1.00  0.00     0.725 A 
HETATM    4  N   UNL     1      27.519  47.114  56.406  1.00  0.00    -0.054 NA
HETATM    5  C   UNL     1      26.619  47.843  55.674  1.00  0.00     0.275 A 
HETATM    6  N   UNL     1      26.482  47.481  54.393  1.00  0.00    -0.149 NA
HETATM    7  N   UNL     1      28.868  45.259  55.655  1.00  0.00    -0.192 N 
HETATM    8  C   UNL     1      29.126  44.330  54.655  1.00  0.00     0.037 C 
HETATM    9  C   UNL     1      30.112  43.244  55.019  1.00  0.00     0.070 C 
HETATM   10  C   UNL     1      28.517  44.448  53.447  1.00  0.00     0.063 C 
HETATM   11  H   UNL     1      29.297  45.101  56.564  1.00  0.00     0.184 HD
ENDROOT
BRANCH  10  12
HETATM   12  C   UNL     1      28.677  43.356  52.448  1.00  0.00     0.256 C 
HETATM   13  N   UNL     1      27.642  42.449  52.426  1.00  0.00    -0.323 N 
HETATM   14  H   UNL     1      26.889  42.563  53.090  1.00  0.00     0.169 HD
HETATM   15  O   UNL     1      29.686  43.342  51.752  1.00  0.00    -0.267 OA
BRANCH  13  16
HETATM   16  C   UNL     1      27.520  41.337  51.561  1.00  0.00     0.035 A 
HETATM   17  C   UNL     1      28.516  40.372  51.382  1.00  0.00     0.029 A 
HETATM   18  C   UNL     1      28.326  39.306  50.497  1.00  0.00     0.002 A 
HETATM   19  C   UNL     1      27.136  39.189  49.786  1.00  0.00     0.000 A 
HETATM   20  C   UNL     1      26.135  40.141  49.956  1.00  0.00     0.002 A 
HETATM   21  C   UNL     1      26.327  41.210  50.837  1.00  0.00     0.029 A 
ENDBRANCH  13  16
ENDBRANCH  10  12
BRANCH   1  22
HETATM   22  C   UNL     1      26.317  45.252  52.415  1.00  0.00     0.015 A 
HETATM   23  C   UNL     1      26.046  45.384  51.058  1.00  0.00     0.036 A 
HETATM   24  C   UNL     1      26.859  45.948  49.948  1.00  0.00     0.070 C 
HETATM   25  N   UNL     1      24.772  44.905  50.882  1.00  0.00    -0.278 N 
HETATM   26  C   UNL     1      24.024  44.818  49.649  1.00  0.00     0.179 C 
HETATM   27  N   UNL     1      24.192  44.504  52.024  1.00  0.00    -0.185 NA
HETATM   28  C   UNL     1      25.122  44.719  52.954  1.00  0.00     0.150 A 
ENDBRANCH   1  22
TORSDOF 3
ENDMDL
