MODEL 1
REMARK VINA RESULT:      -9.7      0.000      0.000
REMARK  11 active torsions:
REMARK  status: ('A' for Active; 'I' for Inactive)
REMARK    1  A    between atoms: O_2  and  C_3 
REMARK    2  A    between atoms: C_6  and  C_7 
REMARK    3  A    between atoms: C_7  and  C_8 
REMARK    4  A    between atoms: C_8  and  N_9 
REMARK    5  A    between atoms: C_13  and  C_14 
REMARK    6  A    between atoms: C_14  and  C_15 
REMARK    7  A    between atoms: C_25  and  N_26 
REMARK    8  A    between atoms: N_26  and  C_27 
REMARK    9  A    between atoms: C_27  and  C_28 
REMARK   10  A    between atoms: C_28  and  O_29 
REMARK   11  A    between atoms: C_28  and  C_30 
ROOT
HETATM    1  C   UNL     1      24.752  45.936  50.272  1.00  0.00     0.074 A 
HETATM    2  C   UNL     1      24.177  47.131  49.592  1.00  0.00     0.266 A 
HETATM    3  O   UNL     1      22.960  47.206  49.404  1.00  0.00    -0.267 OA
HETATM    4  N   UNL     1      25.084  48.110  49.216  1.00  0.00    -0.273 N 
HETATM    5  C   UNL     1      26.422  47.958  49.535  1.00  0.00     0.138 A 
HETATM    6  N   UNL     1      26.912  46.942  50.169  1.00  0.00    -0.218 NA
HETATM    7  C   UNL     1      24.635  49.236  48.533  1.00  0.00     0.102 A 
HETATM    8  C   UNL     1      25.471  50.211  48.156  1.00  0.00     0.018 A 
HETATM    9  C   UNL     1      26.873  50.112  48.459  1.00  0.00     0.005 A 
HETATM   10  C   UNL     1      27.348  49.048  49.118  1.00  0.00     0.051 A 
HETATM   11  C   UNL     1      26.078  45.922  50.537  1.00  0.00     0.121 A 
ENDROOT
BRANCH   1  12
HETATM   12  C   UNL     1      23.893  44.789  50.526  1.00  0.00     0.045 C 
BRANCH  12  13
HETATM   13  C   UNL     1      23.741  43.751  49.695  1.00  0.00     0.077 C 
HETATM   14  S   UNL     1      22.762  43.671  48.286  1.00  0.00    -0.055 SA
HETATM   15  C   UNL     1      23.363  42.080  47.847  1.00  0.00     0.148 C 
HETATM   16  N   UNL     1      24.313  41.672  48.761  1.00  0.00    -0.298 N 
HETATM   17  S   UNL     1      22.815  41.263  46.499  1.00  0.00    -0.052 SA
HETATM   18  C   UNL     1      24.510  42.491  49.859  1.00  0.00     0.266 C 
HETATM   19  O   UNL     1      25.215  42.241  50.828  1.00  0.00    -0.266 OA
BRANCH  16  20
HETATM   20  C   UNL     1      25.156  40.491  48.607  1.00  0.00     0.138 C 
BRANCH  20  21
HETATM   21  C   UNL     1      26.502  40.772  47.936  1.00  0.00     0.059 C 
BRANCH  21  22
HETATM   22  C   UNL     1      27.580  39.941  48.591  1.00  0.00    -0.057 A 
HETATM   23  C   UNL     1      28.134  38.836  47.933  1.00  0.00     0.010 A 
HETATM   24  C   UNL     1      29.076  38.022  48.575  1.00  0.00     0.037 A 
HETATM   25  C   UNL     1      29.468  38.300  49.884  1.00  0.00     0.068 A 
HETATM   26  C   UNL     1      28.912  39.396  50.545  1.00  0.00     0.037 A 
HETATM   27  C   UNL     1      27.978  40.215  49.905  1.00  0.00     0.010 A 
BRANCH  25  28
HETATM   28  O   UNL     1      30.362  37.579  50.627  1.00  0.00    -0.356 OA
HETATM   29  C   UNL     1      29.827  36.567  51.471  1.00  0.00     0.210 C 
ENDBRANCH  25  28
ENDBRANCH  21  22
ENDBRANCH  20  21
ENDBRANCH  16  20
ENDBRANCH  12  13
ENDBRANCH   1  12
BRANCH  11  30
HETATM   30  N   UNL     1      26.684  44.832  51.157  1.00  0.00    -0.274 NA
HETATM   31  H   UNL     1      27.574  44.683  50.674  1.00  0.00     0.129 HD
BRANCH  30  32
HETATM   32  C   UNL     1      26.986  44.871  52.601  1.00  0.00     0.130 C 
BRANCH  32  33
HETATM   33  C   UNL     1      27.794  43.636  53.051  1.00  0.00     0.164 C 
BRANCH  33  34
HETATM   34  O   UNL     1      26.907  42.576  53.437  1.00  0.00    -0.390 OA
HETATM   35  H   UNL     1      26.500  42.843  54.279  1.00  0.00     0.210 HD
ENDBRANCH  33  34
BRANCH  33  36
HETATM   36  C   UNL     1      28.805  43.931  54.144  1.00  0.00    -0.029 A 
HETATM   37  C   UNL     1      28.721  45.129  54.870  1.00  0.00     0.010 A 
HETATM   38  C   UNL     1      29.649  45.421  55.870  1.00  0.00     0.001 A 
HETATM   39  C   UNL     1      30.675  44.523  56.155  1.00  0.00     0.000 A 
HETATM   40  C   UNL     1      30.760  43.320  55.456  1.00  0.00     0.001 A 
HETATM   41  C   UNL     1      29.826  43.023  54.462  1.00  0.00     0.010 A 
ENDBRANCH  33  36
ENDBRANCH  32  33
ENDBRANCH  30  32
ENDBRANCH  11  30
TORSDOF 11
ENDMDL
MODEL 2
REMARK VINA RESULT:      -9.6      3.097      7.608
REMARK  11 active torsions:
REMARK  status: ('A' for Active; 'I' for Inactive)
REMARK    1  A    between atoms: O_2  and  C_3 
REMARK    2  A    between atoms: C_6  and  C_7 
REMARK    3  A    between atoms: C_7  and  C_8 
REMARK    4  A    between atoms: C_8  and  N_9 
REMARK    5  A    between atoms: C_13  and  C_14 
REMARK    6  A    between atoms: C_14  and  C_15 
REMARK    7  A    between atoms: C_25  and  N_26 
REMARK    8  A    between atoms: N_26  and  C_27 
REMARK    9  A    between atoms: C_27  and  C_28 
REMARK   10  A    between atoms: C_28  and  O_29 
REMARK   11  A    between atoms: C_28  and  C_30 
ROOT
HETATM    1  C   UNL     1      24.356  46.218  49.899  1.00  0.00     0.074 A 
HETATM    2  C   UNL     1      25.734  46.784  49.921  1.00  0.00     0.266 A 
HETATM    3  O   UNL     1      26.653  46.143  50.437  1.00  0.00    -0.267 OA
HETATM    4  N   UNL     1      25.889  48.028  49.330  1.00  0.00    -0.273 N 
HETATM    5  C   UNL     1      24.803  48.632  48.720  1.00  0.00     0.138 A 
HETATM    6  N   UNL     1      23.618  48.116  48.659  1.00  0.00    -0.218 NA
HETATM    7  C   UNL     1      27.134  48.647  49.350  1.00  0.00     0.102 A 
HETATM    8  C   UNL     1      27.334  49.845  48.787  1.00  0.00     0.018 A 
HETATM    9  C   UNL     1      26.246  50.523  48.136  1.00  0.00     0.005 A 
HETATM   10  C   UNL     1      25.032  49.962  48.090  1.00  0.00     0.051 A 
HETATM   11  C   UNL     1      23.387  46.907  49.254  1.00  0.00     0.121 A 
ENDROOT
BRANCH   1  12
HETATM   12  C   UNL     1      24.078  45.009  50.661  1.00  0.00     0.045 C 
BRANCH  12  13
HETATM   13  C   UNL     1      24.909  43.965  50.764  1.00  0.00     0.077 C 
HETATM   14  S   UNL     1      25.414  42.900  49.513  1.00  0.00    -0.055 SA
HETATM   15  C   UNL     1      26.552  42.065  50.559  1.00  0.00     0.148 C 
HETATM   16  N   UNL     1      26.541  42.640  51.813  1.00  0.00    -0.298 N 
HETATM   17  S   UNL     1      27.475  40.783  50.023  1.00  0.00    -0.052 SA
HETATM   18  C   UNL     1      25.598  43.628  52.036  1.00  0.00     0.266 C 
HETATM   19  O   UNL     1      25.356  44.166  53.108  1.00  0.00    -0.266 OA
BRANCH  16  20
HETATM   20  C   UNL     1      27.492  42.327  52.875  1.00  0.00     0.138 C 
BRANCH  20  21
HETATM   21  C   UNL     1      28.866  42.972  52.689  1.00  0.00     0.059 C 
BRANCH  21  22
HETATM   22  C   UNL     1      29.235  43.750  53.930  1.00  0.00    -0.057 A 
HETATM   23  C   UNL     1      28.531  44.906  54.290  1.00  0.00     0.010 A 
HETATM   24  C   UNL     1      28.926  45.667  55.397  1.00  0.00     0.037 A 
HETATM   25  C   UNL     1      30.035  45.284  56.152  1.00  0.00     0.068 A 
HETATM   26  C   UNL     1      30.743  44.137  55.792  1.00  0.00     0.037 A 
HETATM   27  C   UNL     1      30.346  43.370  54.693  1.00  0.00     0.010 A 
BRANCH  25  28
HETATM   28  O   UNL     1      30.534  45.944  57.241  1.00  0.00    -0.356 OA
HETATM   29  C   UNL     1      30.308  45.346  58.512  1.00  0.00     0.210 C 
ENDBRANCH  25  28
ENDBRANCH  21  22
ENDBRANCH  20  21
ENDBRANCH  16  20
ENDBRANCH  12  13
ENDBRANCH   1  12
BRANCH  11  30
HETATM   30  N   UNL     1      22.074  46.444  49.206  1.00  0.00    -0.274 NA
HETATM   31  H   UNL     1      21.754  46.380  50.177  1.00  0.00     0.129 HD
BRANCH  30  32
HETATM   32  C   UNL     1      21.045  47.202  48.470  1.00  0.00     0.130 C 
BRANCH  32  33
HETATM   33  C   UNL     1      19.993  47.813  49.420  1.00  0.00     0.164 C 
BRANCH  33  34
HETATM   34  O   UNL     1      18.745  47.118  49.292  1.00  0.00    -0.390 OA
HETATM   35  H   UNL     1      18.048  47.796  49.246  1.00  0.00     0.210 HD
ENDBRANCH  33  34
BRANCH  33  36
HETATM   36  C   UNL     1      19.808  49.310  49.247  1.00  0.00    -0.029 A 
HETATM   37  C   UNL     1      18.794  49.976  49.952  1.00  0.00     0.010 A 
HETATM   38  C   UNL     1      18.604  51.349  49.795  1.00  0.00     0.001 A 
HETATM   39  C   UNL     1      19.420  52.074  48.930  1.00  0.00     0.000 A 
HETATM   40  C   UNL     1      20.444  51.430  48.237  1.00  0.00     0.001 A 
HETATM   41  C   UNL     1      20.642  50.058  48.400  1.00  0.00     0.010 A 
ENDBRANCH  33  36
ENDBRANCH  32  33
ENDBRANCH  30  32
ENDBRANCH  11  30
TORSDOF 11
ENDMDL
MODEL 3
REMARK VINA RESULT:      -9.5      2.860      8.603
REMARK  11 active torsions:
REMARK  status: ('A' for Active; 'I' for Inactive)
REMARK    1  A    between atoms: O_2  and  C_3 
REMARK    2  A    between atoms: C_6  and  C_7 
REMARK    3  A    between atoms: C_7  and  C_8 
REMARK    4  A    between atoms: C_8  and  N_9 
REMARK    5  A    between atoms: C_13  and  C_14 
REMARK    6  A    between atoms: C_14  and  C_15 
REMARK    7  A    between atoms: C_25  and  N_26 
REMARK    8  A    between atoms: N_26  and  C_27 
REMARK    9  A    between atoms: C_27  and  C_28 
REMARK   10  A    between atoms: C_28  and  O_29 
REMARK   11  A    between atoms: C_28  and  C_30 
ROOT
HETATM    1  C   UNL     1      26.663  41.793  50.437  1.00  0.00     0.074 A 
HETATM    2  C   UNL     1      26.936  41.059  49.170  1.00  0.00     0.266 A 
HETATM    3  O   UNL     1      26.356  41.388  48.132  1.00  0.00    -0.267 OA
HETATM    4  N   UNL     1      27.862  40.031  49.251  1.00  0.00    -0.273 N 
HETATM    5  C   UNL     1      28.506  39.788  50.451  1.00  0.00     0.138 A 
HETATM    6  N   UNL     1      28.304  40.459  51.539  1.00  0.00    -0.218 NA
HETATM    7  C   UNL     1      28.139  39.266  48.123  1.00  0.00     0.102 A 
HETATM    8  C   UNL     1      29.030  38.268  48.150  1.00  0.00     0.018 A 
HETATM    9  C   UNL     1      29.734  37.966  49.368  1.00  0.00     0.005 A 
HETATM   10  C   UNL     1      29.502  38.680  50.476  1.00  0.00     0.051 A 
HETATM   11  C   UNL     1      27.375  41.463  51.539  1.00  0.00     0.121 A 
ENDROOT
BRANCH   1  12
HETATM   12  C   UNL     1      25.571  42.755  50.473  1.00  0.00     0.045 C 
BRANCH  12  13
HETATM   13  C   UNL     1      25.717  44.080  50.355  1.00  0.00     0.077 C 
HETATM   14  S   UNL     1      27.125  44.939  49.873  1.00  0.00    -0.055 SA
HETATM   15  C   UNL     1      26.289  46.484  49.859  1.00  0.00     0.148 C 
HETATM   16  N   UNL     1      24.961  46.298  50.185  1.00  0.00    -0.298 N 
HETATM   17  S   UNL     1      27.066  47.912  49.484  1.00  0.00    -0.052 SA
HETATM   18  C   UNL     1      24.588  45.021  50.565  1.00  0.00     0.266 C 
HETATM   19  O   UNL     1      23.493  44.688  51.001  1.00  0.00    -0.266 OA
BRANCH  16  20
HETATM   20  C   UNL     1      23.933  47.329  50.088  1.00  0.00     0.138 C 
BRANCH  20  21
HETATM   21  C   UNL     1      23.262  47.409  48.716  1.00  0.00     0.059 C 
BRANCH  21  22
HETATM   22  C   UNL     1      22.364  48.622  48.659  1.00  0.00    -0.057 A 
HETATM   23  C   UNL     1      21.097  48.550  48.067  1.00  0.00     0.010 A 
HETATM   24  C   UNL     1      20.300  49.696  47.947  1.00  0.00     0.037 A 
HETATM   25  C   UNL     1      20.766  50.927  48.410  1.00  0.00     0.068 A 
HETATM   26  C   UNL     1      22.031  51.003  48.993  1.00  0.00     0.037 A 
HETATM   27  C   UNL     1      22.825  49.860  49.123  1.00  0.00     0.010 A 
BRANCH  25  28
HETATM   28  O   UNL     1      20.098  52.118  48.339  1.00  0.00    -0.356 OA
HETATM   29  C   UNL     1      18.878  52.214  49.062  1.00  0.00     0.210 C 
ENDBRANCH  25  28
ENDBRANCH  21  22
ENDBRANCH  20  21
ENDBRANCH  16  20
ENDBRANCH  12  13
ENDBRANCH   1  12
BRANCH  11  30
HETATM   30  N   UNL     1      27.162  42.098  52.760  1.00  0.00    -0.274 NA
HETATM   31  H   UNL     1      26.311  41.688  53.154  1.00  0.00     0.129 HD
BRANCH  30  32
HETATM   32  C   UNL     1      28.190  42.041  53.817  1.00  0.00     0.130 C 
BRANCH  32  33
HETATM   33  C   UNL     1      29.317  43.068  53.578  1.00  0.00     0.164 C 
BRANCH  33  34
HETATM   34  O   UNL     1      30.422  42.445  52.908  1.00  0.00    -0.390 OA
HETATM   35  H   UNL     1      30.694  43.048  52.195  1.00  0.00     0.210 HD
ENDBRANCH  33  34
BRANCH  33  36
HETATM   36  C   UNL     1      29.770  43.783  54.838  1.00  0.00    -0.029 A 
HETATM   37  C   UNL     1      29.147  44.979  55.226  1.00  0.00     0.010 A 
HETATM   38  C   UNL     1      29.560  45.655  56.375  1.00  0.00     0.001 A 
HETATM   39  C   UNL     1      30.601  45.147  57.148  1.00  0.00     0.000 A 
HETATM   40  C   UNL     1      31.217  43.950  56.786  1.00  0.00     0.001 A 
HETATM   41  C   UNL     1      30.799  43.269  55.642  1.00  0.00     0.010 A 
ENDBRANCH  33  36
ENDBRANCH  32  33
ENDBRANCH  30  32
ENDBRANCH  11  30
TORSDOF 11
ENDMDL
MODEL 4
REMARK VINA RESULT:      -9.3      3.163      8.777
REMARK  11 active torsions:
REMARK  status: ('A' for Active; 'I' for Inactive)
REMARK    1  A    between atoms: O_2  and  C_3 
REMARK    2  A    between atoms: C_6  and  C_7 
REMARK    3  A    between atoms: C_7  and  C_8 
REMARK    4  A    between atoms: C_8  and  N_9 
REMARK    5  A    between atoms: C_13  and  C_14 
REMARK    6  A    between atoms: C_14  and  C_15 
REMARK    7  A    between atoms: C_25  and  N_26 
REMARK    8  A    between atoms: N_26  and  C_27 
REMARK    9  A    between atoms: C_27  and  C_28 
REMARK   10  A    between atoms: C_28  and  O_29 
REMARK   11  A    between atoms: C_28  and  C_30 
ROOT
HETATM    1  C   UNL     1      25.124  44.486  50.111  1.00  0.00     0.074 A 
HETATM    2  C   UNL     1      24.448  43.770  48.993  1.00  0.00     0.266 A 
HETATM    3  O   UNL     1      23.548  44.328  48.360  1.00  0.00    -0.267 OA
HETATM    4  N   UNL     1      24.903  42.487  48.731  1.00  0.00    -0.273 N 
HETATM    5  C   UNL     1      25.965  41.980  49.458  1.00  0.00     0.138 A 
HETATM    6  N   UNL     1      26.584  42.623  50.396  1.00  0.00    -0.218 NA
HETATM    7  C   UNL     1      24.292  41.733  47.734  1.00  0.00     0.102 A 
HETATM    8  C   UNL     1      24.701  40.493  47.440  1.00  0.00     0.018 A 
HETATM    9  C   UNL     1      25.801  39.909  48.159  1.00  0.00     0.005 A 
HETATM   10  C   UNL     1      26.420  40.601  49.123  1.00  0.00     0.051 A 
HETATM   11  C   UNL     1      26.161  43.880  50.731  1.00  0.00     0.121 A 
ENDROOT
BRANCH   1  12
HETATM   12  C   UNL     1      24.578  45.757  50.566  1.00  0.00     0.045 C 
BRANCH  12  13
HETATM   13  C   UNL     1      24.870  46.948  50.030  1.00  0.00     0.077 C 
HETATM   14  S   UNL     1      26.416  47.685  49.894  1.00  0.00    -0.055 SA
HETATM   15  C   UNL     1      25.793  49.030  48.952  1.00  0.00     0.148 C 
HETATM   16  N   UNL     1      24.440  48.863  48.738  1.00  0.00    -0.298 N 
HETATM   17  S   UNL     1      26.771  50.276  48.428  1.00  0.00    -0.052 SA
HETATM   18  C   UNL     1      23.838  47.794  49.378  1.00  0.00     0.266 C 
HETATM   19  O   UNL     1      22.638  47.553  49.407  1.00  0.00    -0.266 OA
BRANCH  16  20
HETATM   20  C   UNL     1      23.636  49.686  47.841  1.00  0.00     0.138 C 
BRANCH  20  21
HETATM   21  C   UNL     1      23.212  51.027  48.442  1.00  0.00     0.059 C 
BRANCH  21  22
HETATM   22  C   UNL     1      21.763  50.959  48.863  1.00  0.00    -0.057 A 
HETATM   23  C   UNL     1      20.735  50.994  47.912  1.00  0.00     0.010 A 
HETATM   24  C   UNL     1      19.393  51.010  48.312  1.00  0.00     0.037 A 
HETATM   25  C   UNL     1      19.064  51.000  49.668  1.00  0.00     0.068 A 
HETATM   26  C   UNL     1      20.086  50.973  50.618  1.00  0.00     0.037 A 
HETATM   27  C   UNL     1      21.426  50.948  50.222  1.00  0.00     0.010 A 
BRANCH  25  28
HETATM   28  O   UNL     1      17.801  51.030  50.190  1.00  0.00    -0.356 OA
HETATM   29  C   UNL     1      16.987  52.141  49.838  1.00  0.00     0.210 C 
ENDBRANCH  25  28
ENDBRANCH  21  22
ENDBRANCH  20  21
ENDBRANCH  16  20
ENDBRANCH  12  13
ENDBRANCH   1  12
BRANCH  11  30
HETATM   30  N   UNL     1      26.830  44.485  51.792  1.00  0.00    -0.274 NA
HETATM   31  H   UNL     1      26.397  45.403  51.921  1.00  0.00     0.129 HD
BRANCH  30  32
HETATM   32  C   UNL     1      26.859  43.839  53.118  1.00  0.00     0.130 C 
BRANCH  32  33
HETATM   33  C   UNL     1      28.217  43.162  53.397  1.00  0.00     0.164 C 
BRANCH  33  34
HETATM   34  O   UNL     1      28.025  41.774  53.706  1.00  0.00    -0.390 OA
HETATM   35  H   UNL     1      28.232  41.275  52.896  1.00  0.00     0.210 HD
ENDBRANCH  33  34
BRANCH  33  36
HETATM   36  C   UNL     1      29.039  43.855  54.469  1.00  0.00    -0.029 A 
HETATM   37  C   UNL     1      30.194  43.239  54.972  1.00  0.00     0.010 A 
HETATM   38  C   UNL     1      30.954  43.857  55.966  1.00  0.00     0.001 A 
HETATM   39  C   UNL     1      30.567  45.096  56.471  1.00  0.00     0.000 A 
HETATM   40  C   UNL     1      29.433  45.730  55.967  1.00  0.00     0.001 A 
HETATM   41  C   UNL     1      28.678  45.117  54.966  1.00  0.00     0.010 A 
ENDBRANCH  33  36
ENDBRANCH  32  33
ENDBRANCH  30  32
ENDBRANCH  11  30
TORSDOF 11
ENDMDL
MODEL 5
REMARK VINA RESULT:      -9.0      2.778      8.210
REMARK  11 active torsions:
REMARK  status: ('A' for Active; 'I' for Inactive)
REMARK    1  A    between atoms: O_2  and  C_3 
REMARK    2  A    between atoms: C_6  and  C_7 
REMARK    3  A    between atoms: C_7  and  C_8 
REMARK    4  A    between atoms: C_8  and  N_9 
REMARK    5  A    between atoms: C_13  and  C_14 
REMARK    6  A    between atoms: C_14  and  C_15 
REMARK    7  A    between atoms: C_25  and  N_26 
REMARK    8  A    between atoms: N_26  and  C_27 
REMARK    9  A    between atoms: C_27  and  C_28 
REMARK   10  A    between atoms: C_28  and  O_29 
REMARK   11  A    between atoms: C_28  and  C_30 
ROOT
HETATM    1  C   UNL     1      25.050  42.796  50.990  1.00  0.00     0.074 A 
HETATM    2  C   UNL     1      26.134  41.781  51.111  1.00  0.00     0.266 A 
HETATM    3  O   UNL     1      26.045  40.711  50.505  1.00  0.00    -0.267 OA
HETATM    4  N   UNL     1      27.206  42.132  51.916  1.00  0.00    -0.273 N 
HETATM    5  C   UNL     1      27.239  43.387  52.498  1.00  0.00     0.138 A 
HETATM    6  N   UNL     1      26.319  44.286  52.352  1.00  0.00    -0.218 NA
HETATM    7  C   UNL     1      28.238  41.222  52.121  1.00  0.00     0.102 A 
HETATM    8  C   UNL     1      29.297  41.517  52.884  1.00  0.00     0.018 A 
HETATM    9  C   UNL     1      29.390  42.806  53.515  1.00  0.00     0.005 A 
HETATM   10  C   UNL     1      28.422  43.714  53.343  1.00  0.00     0.051 A 
HETATM   11  C   UNL     1      25.215  43.992  51.599  1.00  0.00     0.121 A 
ENDROOT
BRANCH   1  12
HETATM   12  C   UNL     1      23.812  42.428  50.318  1.00  0.00     0.045 C 
BRANCH  12  13
HETATM   13  C   UNL     1      23.518  42.722  49.046  1.00  0.00     0.077 C 
HETATM   14  S   UNL     1      24.273  42.110  47.628  1.00  0.00    -0.055 SA
HETATM   15  C   UNL     1      23.123  42.905  46.564  1.00  0.00     0.148 C 
HETATM   16  N   UNL     1      22.182  43.579  47.314  1.00  0.00    -0.298 N 
HETATM   17  S   UNL     1      23.228  42.794  44.902  1.00  0.00    -0.052 SA
HETATM   18  C   UNL     1      22.384  43.608  48.682  1.00  0.00     0.266 C 
HETATM   19  O   UNL     1      21.730  44.250  49.494  1.00  0.00    -0.266 OA
BRANCH  16  20
HETATM   20  C   UNL     1      20.975  44.191  46.769  1.00  0.00     0.138 C 
BRANCH  20  21
HETATM   21  C   UNL     1      21.192  45.597  46.205  1.00  0.00     0.059 C 
BRANCH  21  22
HETATM   22  C   UNL     1      20.691  46.624  47.194  1.00  0.00    -0.057 A 
HETATM   23  C   UNL     1      21.466  47.745  47.518  1.00  0.00     0.010 A 
HETATM   24  C   UNL     1      21.033  48.653  48.493  1.00  0.00     0.037 A 
HETATM   25  C   UNL     1      19.824  48.445  49.159  1.00  0.00     0.068 A 
HETATM   26  C   UNL     1      19.054  47.325  48.842  1.00  0.00     0.037 A 
HETATM   27  C   UNL     1      19.479  46.423  47.864  1.00  0.00     0.010 A 
BRANCH  25  28
HETATM   28  O   UNL     1      19.297  49.242  50.137  1.00  0.00    -0.356 OA
HETATM   29  C   UNL     1      18.623  48.588  51.204  1.00  0.00     0.210 C 
ENDBRANCH  25  28
ENDBRANCH  21  22
ENDBRANCH  20  21
ENDBRANCH  16  20
ENDBRANCH  12  13
ENDBRANCH   1  12
BRANCH  11  30
HETATM   30  N   UNL     1      24.238  44.981  51.539  1.00  0.00    -0.274 NA
HETATM   31  H   UNL     1      24.193  45.401  52.472  1.00  0.00     0.129 HD
BRANCH  30  32
HETATM   32  C   UNL     1      24.363  46.094  50.579  1.00  0.00     0.130 C 
BRANCH  32  33
HETATM   33  C   UNL     1      25.628  46.938  50.840  1.00  0.00     0.164 C 
BRANCH  33  34
HETATM   34  O   UNL     1      25.634  47.418  52.192  1.00  0.00    -0.390 OA
HETATM   35  H   UNL     1      24.837  47.061  52.620  1.00  0.00     0.210 HD
ENDBRANCH  33  34
BRANCH  33  36
HETATM   36  C   UNL     1      25.821  48.074  49.852  1.00  0.00    -0.029 A 
HETATM   37  C   UNL     1      27.111  48.556  49.583  1.00  0.00     0.010 A 
HETATM   38  C   UNL     1      27.303  49.608  48.686  1.00  0.00     0.001 A 
HETATM   39  C   UNL     1      26.211  50.193  48.051  1.00  0.00     0.000 A 
HETATM   40  C   UNL     1      24.925  49.712  48.293  1.00  0.00     0.001 A 
HETATM   41  C   UNL     1      24.732  48.654  49.182  1.00  0.00     0.010 A 
ENDBRANCH  33  36
ENDBRANCH  32  33
ENDBRANCH  30  32
ENDBRANCH  11  30
TORSDOF 11
ENDMDL
MODEL 6
REMARK VINA RESULT:      -8.8      3.292      9.455
REMARK  11 active torsions:
REMARK  status: ('A' for Active; 'I' for Inactive)
REMARK    1  A    between atoms: O_2  and  C_3 
REMARK    2  A    between atoms: C_6  and  C_7 
REMARK    3  A    between atoms: C_7  and  C_8 
REMARK    4  A    between atoms: C_8  and  N_9 
REMARK    5  A    between atoms: C_13  and  C_14 
REMARK    6  A    between atoms: C_14  and  C_15 
REMARK    7  A    between atoms: C_25  and  N_26 
REMARK    8  A    between atoms: N_26  and  C_27 
REMARK    9  A    between atoms: C_27  and  C_28 
REMARK   10  A    between atoms: C_28  and  O_29 
REMARK   11  A    between atoms: C_28  and  C_30 
ROOT
HETATM    1  C   UNL     1      26.208  44.790  51.120  1.00  0.00     0.074 A 
HETATM    2  C   UNL     1      26.570  45.142  52.521  1.00  0.00     0.266 A 
HETATM    3  O   UNL     1      25.885  45.954  53.148  1.00  0.00    -0.267 OA
HETATM    4  N   UNL     1      27.684  44.500  53.040  1.00  0.00    -0.273 N 
HETATM    5  C   UNL     1      28.343  43.555  52.275  1.00  0.00     0.138 A 
HETATM    6  N   UNL     1      27.998  43.214  51.075  1.00  0.00    -0.218 NA
HETATM    7  C   UNL     1      28.118  44.808  54.325  1.00  0.00     0.102 A 
HETATM    8  C   UNL     1      29.183  44.211  54.872  1.00  0.00     0.018 A 
HETATM    9  C   UNL     1      29.910  43.218  54.127  1.00  0.00     0.005 A 
HETATM   10  C   UNL     1      29.526  42.888  52.889  1.00  0.00     0.051 A 
HETATM   11  C   UNL     1      26.929  43.835  50.488  1.00  0.00     0.121 A 
ENDROOT
BRANCH   1  12
HETATM   12  C   UNL     1      25.170  45.556  50.446  1.00  0.00     0.045 C 
BRANCH  12  13
HETATM   13  C   UNL     1      25.328  46.795  49.965  1.00  0.00     0.077 C 
HETATM   14  S   UNL     1      26.800  47.651  49.737  1.00  0.00    -0.055 SA
HETATM   15  C   UNL     1      26.000  48.999  48.946  1.00  0.00     0.148 C 
HETATM   16  N   UNL     1      24.647  48.746  48.846  1.00  0.00    -0.298 N 
HETATM   17  S   UNL     1      26.836  50.343  48.417  1.00  0.00    -0.052 SA
HETATM   18  C   UNL     1      24.183  47.599  49.467  1.00  0.00     0.266 C 
HETATM   19  O   UNL     1      23.011  47.270  49.590  1.00  0.00    -0.266 OA
BRANCH  16  20
HETATM   20  C   UNL     1      23.707  49.558  48.081  1.00  0.00     0.138 C 
BRANCH  20  21
HETATM   21  C   UNL     1      23.134  50.743  48.861  1.00  0.00     0.059 C 
BRANCH  21  22
HETATM   22  C   UNL     1      21.625  50.716  48.789  1.00  0.00    -0.057 A 
HETATM   23  C   UNL     1      20.847  51.193  49.852  1.00  0.00     0.010 A 
HETATM   24  C   UNL     1      19.450  51.094  49.814  1.00  0.00     0.037 A 
HETATM   25  C   UNL     1      18.818  50.510  48.716  1.00  0.00     0.068 A 
HETATM   26  C   UNL     1      19.591  50.028  47.659  1.00  0.00     0.037 A 
HETATM   27  C   UNL     1      20.984  50.133  47.690  1.00  0.00     0.010 A 
BRANCH  25  28
HETATM   28  O   UNL     1      17.470  50.338  48.561  1.00  0.00    -0.356 OA
HETATM   29  C   UNL     1      17.035  49.069  48.090  1.00  0.00     0.210 C 
ENDBRANCH  25  28
ENDBRANCH  21  22
ENDBRANCH  20  21
ENDBRANCH  16  20
ENDBRANCH  12  13
ENDBRANCH   1  12
BRANCH  11  30
HETATM   30  N   UNL     1      26.655  43.466  49.174  1.00  0.00    -0.274 NA
HETATM   31  H   UNL     1      27.482  43.717  48.625  1.00  0.00     0.129 HD
BRANCH  30  32
HETATM   32  C   UNL     1      26.338  42.063  48.846  1.00  0.00     0.130 C 
BRANCH  32  33
HETATM   33  C   UNL     1      27.556  41.322  48.255  1.00  0.00     0.164 C 
BRANCH  33  34
HETATM   34  O   UNL     1      27.716  41.658  46.869  1.00  0.00    -0.390 OA
HETATM   35  H   UNL     1      27.051  42.339  46.666  1.00  0.00     0.210 HD
ENDBRANCH  33  34
BRANCH  33  36
HETATM   36  C   UNL     1      27.514  39.818  48.454  1.00  0.00    -0.029 A 
HETATM   37  C   UNL     1      28.233  38.978  47.592  1.00  0.00     0.010 A 
HETATM   38  C   UNL     1      28.195  37.592  47.755  1.00  0.00     0.001 A 
HETATM   39  C   UNL     1      27.436  37.029  48.778  1.00  0.00     0.000 A 
HETATM   40  C   UNL     1      26.732  37.852  49.655  1.00  0.00     0.001 A 
HETATM   41  C   UNL     1      26.776  39.238  49.499  1.00  0.00     0.010 A 
ENDBRANCH  33  36
ENDBRANCH  32  33
ENDBRANCH  30  32
ENDBRANCH  11  30
TORSDOF 11
ENDMDL
MODEL 7
REMARK VINA RESULT:      -8.7      2.851      8.027
REMARK  11 active torsions:
REMARK  status: ('A' for Active; 'I' for Inactive)
REMARK    1  A    between atoms: O_2  and  C_3 
REMARK    2  A    between atoms: C_6  and  C_7 
REMARK    3  A    between atoms: C_7  and  C_8 
REMARK    4  A    between atoms: C_8  and  N_9 
REMARK    5  A    between atoms: C_13  and  C_14 
REMARK    6  A    between atoms: C_14  and  C_15 
REMARK    7  A    between atoms: C_25  and  N_26 
REMARK    8  A    between atoms: N_26  and  C_27 
REMARK    9  A    between atoms: C_27  and  C_28 
REMARK   10  A    between atoms: C_28  and  O_29 
REMARK   11  A    between atoms: C_28  and  C_30 
ROOT
HETATM    1  C   UNL     1      26.740  43.868  53.376  1.00  0.00     0.074 A 
HETATM    2  C   UNL     1      27.873  43.086  53.945  1.00  0.00     0.266 A 
HETATM    3  O   UNL     1      27.936  41.869  53.756  1.00  0.00    -0.267 OA
HETATM    4  N   UNL     1      28.812  43.812  54.662  1.00  0.00    -0.273 N 
HETATM    5  C   UNL     1      28.682  45.186  54.758  1.00  0.00     0.138 A 
HETATM    6  N   UNL     1      27.722  45.870  54.221  1.00  0.00    -0.218 NA
HETATM    7  C   UNL     1      29.875  43.150  55.267  1.00  0.00     0.102 A 
HETATM    8  C   UNL     1      30.810  43.808  55.963  1.00  0.00     0.018 A 
HETATM    9  C   UNL     1      30.732  45.238  56.098  1.00  0.00     0.005 A 
HETATM   10  C   UNL     1      29.727  45.915  55.529  1.00  0.00     0.051 A 
HETATM   11  C   UNL     1      26.742  45.212  53.531  1.00  0.00     0.121 A 
ENDROOT
BRANCH   1  12
HETATM   12  C   UNL     1      25.622  43.154  52.775  1.00  0.00     0.045 C 
BRANCH  12  13
HETATM   13  C   UNL     1      25.491  42.906  51.467  1.00  0.00     0.077 C 
HETATM   14  S   UNL     1      26.466  41.881  50.492  1.00  0.00    -0.055 SA
HETATM   15  C   UNL     1      25.432  42.082  49.086  1.00  0.00     0.148 C 
HETATM   16  N   UNL     1      24.361  42.890  49.407  1.00  0.00    -0.298 N 
HETATM   17  S   UNL     1      25.770  41.355  47.623  1.00  0.00    -0.052 SA
HETATM   18  C   UNL     1      24.370  43.462  50.667  1.00  0.00     0.266 C 
HETATM   19  O   UNL     1      23.577  44.294  51.088  1.00  0.00    -0.266 OA
BRANCH  16  20
HETATM   20  C   UNL     1      23.208  43.118  48.542  1.00  0.00     0.138 C 
BRANCH  20  21
HETATM   21  C   UNL     1      23.346  44.340  47.632  1.00  0.00     0.059 C 
BRANCH  21  22
HETATM   22  C   UNL     1      22.098  45.186  47.723  1.00  0.00    -0.057 A 
HETATM   23  C   UNL     1      22.014  46.416  47.059  1.00  0.00     0.010 A 
HETATM   24  C   UNL     1      20.886  47.232  47.210  1.00  0.00     0.037 A 
HETATM   25  C   UNL     1      19.834  46.831  48.033  1.00  0.00     0.068 A 
HETATM   26  C   UNL     1      19.918  45.609  48.702  1.00  0.00     0.037 A 
HETATM   27  C   UNL     1      21.038  44.788  48.546  1.00  0.00     0.010 A 
BRANCH  25  28
HETATM   28  O   UNL     1      18.689  47.537  48.278  1.00  0.00    -0.356 OA
HETATM   29  C   UNL     1      17.493  46.785  48.441  1.00  0.00     0.210 C 
ENDBRANCH  25  28
ENDBRANCH  21  22
ENDBRANCH  20  21
ENDBRANCH  16  20
ENDBRANCH  12  13
ENDBRANCH   1  12
BRANCH  11  30
HETATM   30  N   UNL     1      25.708  46.003  53.037  1.00  0.00    -0.274 NA
HETATM   31  H   UNL     1      25.235  46.403  53.852  1.00  0.00     0.129 HD
BRANCH  30  32
HETATM   32  C   UNL     1      26.000  47.124  52.124  1.00  0.00     0.130 C 
BRANCH  32  33
HETATM   33  C   UNL     1      25.807  46.726  50.646  1.00  0.00     0.164 C 
BRANCH  33  34
HETATM   34  O   UNL     1      26.906  45.917  50.202  1.00  0.00    -0.390 OA
HETATM   35  H   UNL     1      27.317  45.539  51.000  1.00  0.00     0.210 HD
ENDBRANCH  33  34
BRANCH  33  36
HETATM   36  C   UNL     1      25.585  47.906  49.718  1.00  0.00    -0.029 A 
HETATM   37  C   UNL     1      26.684  48.624  49.223  1.00  0.00     0.010 A 
HETATM   38  C   UNL     1      26.496  49.719  48.378  1.00  0.00     0.001 A 
HETATM   39  C   UNL     1      25.208  50.112  48.020  1.00  0.00     0.000 A 
HETATM   40  C   UNL     1      24.107  49.397  48.488  1.00  0.00     0.001 A 
HETATM   41  C   UNL     1      24.295  48.296  49.326  1.00  0.00     0.010 A 
ENDBRANCH  33  36
ENDBRANCH  32  33
ENDBRANCH  30  32
ENDBRANCH  11  30
TORSDOF 11
ENDMDL
MODEL 8
REMARK VINA RESULT:      -8.6      2.881      7.605
REMARK  11 active torsions:
REMARK  status: ('A' for Active; 'I' for Inactive)
REMARK    1  A    between atoms: O_2  and  C_3 
REMARK    2  A    between atoms: C_6  and  C_7 
REMARK    3  A    between atoms: C_7  and  C_8 
REMARK    4  A    between atoms: C_8  and  N_9 
REMARK    5  A    between atoms: C_13  and  C_14 
REMARK    6  A    between atoms: C_14  and  C_15 
REMARK    7  A    between atoms: C_25  and  N_26 
REMARK    8  A    between atoms: N_26  and  C_27 
REMARK    9  A    between atoms: C_27  and  C_28 
REMARK   10  A    between atoms: C_28  and  O_29 
REMARK   11  A    between atoms: C_28  and  C_30 
ROOT
HETATM    1  C   UNL     1      26.623  41.635  50.579  1.00  0.00     0.074 A 
HETATM    2  C   UNL     1      26.698  41.235  49.146  1.00  0.00     0.266 A 
HETATM    3  O   UNL     1      26.057  41.863  48.298  1.00  0.00    -0.267 OA
HETATM    4  N   UNL     1      27.520  40.156  48.858  1.00  0.00    -0.273 N 
HETATM    5  C   UNL     1      28.248  39.565  49.876  1.00  0.00     0.138 A 
HETATM    6  N   UNL     1      28.219  39.945  51.113  1.00  0.00    -0.218 NA
HETATM    7  C   UNL     1      27.608  39.690  47.551  1.00  0.00     0.102 A 
HETATM    8  C   UNL     1      28.393  38.656  47.223  1.00  0.00     0.018 A 
HETATM    9  C   UNL     1      29.176  38.000  48.236  1.00  0.00     0.005 A 
HETATM   10  C   UNL     1      29.124  38.418  49.506  1.00  0.00     0.051 A 
HETATM   11  C   UNL     1      27.401  40.981  51.472  1.00  0.00     0.121 A 
ENDROOT
BRANCH   1  12
HETATM   12  C   UNL     1      25.642  42.633  50.982  1.00  0.00     0.045 C 
BRANCH  12  13
HETATM   13  C   UNL     1      25.744  43.944  50.738  1.00  0.00     0.077 C 
HETATM   14  S   UNL     1      27.147  44.816  50.263  1.00  0.00    -0.055 SA
HETATM   15  C   UNL     1      26.252  46.310  50.034  1.00  0.00     0.148 C 
HETATM   16  N   UNL     1      24.913  46.096  50.290  1.00  0.00    -0.298 N 
HETATM   17  S   UNL     1      26.996  47.728  49.566  1.00  0.00    -0.052 SA
HETATM   18  C   UNL     1      24.566  44.847  50.774  1.00  0.00     0.266 C 
HETATM   19  O   UNL     1      23.457  44.509  51.169  1.00  0.00    -0.266 OA
BRANCH  16  20
HETATM   20  C   UNL     1      23.854  47.062  50.018  1.00  0.00     0.138 C 
BRANCH  20  21
HETATM   21  C   UNL     1      23.518  47.214  48.534  1.00  0.00     0.059 C 
BRANCH  21  22
HETATM   22  C   UNL     1      22.220  46.504  48.232  1.00  0.00    -0.057 A 
HETATM   23  C   UNL     1      20.988  47.092  48.547  1.00  0.00     0.010 A 
HETATM   24  C   UNL     1      19.791  46.396  48.337  1.00  0.00     0.037 A 
HETATM   25  C   UNL     1      19.813  45.102  47.816  1.00  0.00     0.068 A 
HETATM   26  C   UNL     1      21.038  44.511  47.508  1.00  0.00     0.037 A 
HETATM   27  C   UNL     1      22.234  45.205  47.708  1.00  0.00     0.010 A 
BRANCH  25  28
HETATM   28  O   UNL     1      18.722  44.312  47.579  1.00  0.00    -0.356 OA
HETATM   29  C   UNL     1      17.820  44.749  46.571  1.00  0.00     0.210 C 
ENDBRANCH  25  28
ENDBRANCH  21  22
ENDBRANCH  20  21
ENDBRANCH  16  20
ENDBRANCH  12  13
ENDBRANCH   1  12
BRANCH  11  30
HETATM   30  N   UNL     1      27.371  41.293  52.828  1.00  0.00    -0.274 NA
HETATM   31  H   UNL     1      26.949  40.489  53.301  1.00  0.00     0.129 HD
BRANCH  30  32
HETATM   32  C   UNL     1      28.622  41.599  53.549  1.00  0.00     0.130 C 
BRANCH  32  33
HETATM   33  C   UNL     1      29.128  43.023  53.240  1.00  0.00     0.164 C 
BRANCH  33  34
HETATM   34  O   UNL     1      30.199  42.973  52.286  1.00  0.00    -0.390 OA
HETATM   35  H   UNL     1      30.108  43.760  51.720  1.00  0.00     0.210 HD
ENDBRANCH  33  34
BRANCH  33  36
HETATM   36  C   UNL     1      29.528  43.812  54.473  1.00  0.00    -0.029 A 
HETATM   37  C   UNL     1      30.602  43.377  55.265  1.00  0.00     0.010 A 
HETATM   38  C   UNL     1      30.974  44.085  56.408  1.00  0.00     0.001 A 
HETATM   39  C   UNL     1      30.277  45.233  56.778  1.00  0.00     0.000 A 
HETATM   40  C   UNL     1      29.220  45.688  55.991  1.00  0.00     0.001 A 
HETATM   41  C   UNL     1      28.853  44.987  54.842  1.00  0.00     0.010 A 
ENDBRANCH  33  36
ENDBRANCH  32  33
ENDBRANCH  30  32
ENDBRANCH  11  30
TORSDOF 11
ENDMDL
MODEL 9
REMARK VINA RESULT:      -8.6      4.743      8.902
REMARK  11 active torsions:
REMARK  status: ('A' for Active; 'I' for Inactive)
REMARK    1  A    between atoms: O_2  and  C_3 
REMARK    2  A    between atoms: C_6  and  C_7 
REMARK    3  A    between atoms: C_7  and  C_8 
REMARK    4  A    between atoms: C_8  and  N_9 
REMARK    5  A    between atoms: C_13  and  C_14 
REMARK    6  A    between atoms: C_14  and  C_15 
REMARK    7  A    between atoms: C_25  and  N_26 
REMARK    8  A    between atoms: N_26  and  C_27 
REMARK    9  A    between atoms: C_27  and  C_28 
REMARK   10  A    between atoms: C_28  and  O_29 
REMARK   11  A    between atoms: C_28  and  C_30 
ROOT
HETATM    1  C   UNL     1      20.567  45.514  47.939  1.00  0.00     0.074 A 
HETATM    2  C   UNL     1      20.780  45.289  46.482  1.00  0.00     0.266 A 
HETATM    3  O   UNL     1      21.538  44.392  46.103  1.00  0.00    -0.267 OA
HETATM    4  N   UNL     1      20.078  46.127  45.629  1.00  0.00    -0.273 N 
HETATM    5  C   UNL     1      19.202  47.057  46.158  1.00  0.00     0.138 A 
HETATM    6  N   UNL     1      18.981  47.218  47.424  1.00  0.00    -0.218 NA
HETATM    7  C   UNL     1      20.258  46.014  44.255  1.00  0.00     0.102 A 
HETATM    8  C   UNL     1      19.598  46.795  43.391  1.00  0.00     0.018 A 
HETATM    9  C   UNL     1      18.672  47.781  43.879  1.00  0.00     0.005 A 
HETATM   10  C   UNL     1      18.465  47.922  45.194  1.00  0.00     0.051 A 
HETATM   11  C   UNL     1      19.668  46.449  48.322  1.00  0.00     0.121 A 
ENDROOT
BRANCH   1  12
HETATM   12  C   UNL     1      21.407  44.803  48.893  1.00  0.00     0.045 C 
BRANCH  12  13
HETATM   13  C   UNL     1      22.616  45.210  49.295  1.00  0.00     0.077 C 
HETATM   14  S   UNL     1      23.386  46.707  48.951  1.00  0.00    -0.055 SA
HETATM   15  C   UNL     1      24.743  46.357  50.009  1.00  0.00     0.148 C 
HETATM   16  N   UNL     1      24.556  45.133  50.618  1.00  0.00    -0.298 N 
HETATM   17  S   UNL     1      26.021  47.414  50.196  1.00  0.00    -0.052 SA
HETATM   18  C   UNL     1      23.460  44.396  50.207  1.00  0.00     0.266 C 
HETATM   19  O   UNL     1      23.196  43.248  50.540  1.00  0.00    -0.266 OA
BRANCH  16  20
HETATM   20  C   UNL     1      25.387  44.610  51.698  1.00  0.00     0.138 C 
BRANCH  20  21
HETATM   21  C   UNL     1      25.164  45.302  53.044  1.00  0.00     0.059 C 
BRANCH  21  22
HETATM   22  C   UNL     1      26.488  45.490  53.745  1.00  0.00    -0.057 A 
HETATM   23  C   UNL     1      27.370  44.415  53.916  1.00  0.00     0.010 A 
HETATM   24  C   UNL     1      28.561  44.576  54.635  1.00  0.00     0.037 A 
HETATM   25  C   UNL     1      28.879  45.813  55.197  1.00  0.00     0.068 A 
HETATM   26  C   UNL     1      27.999  46.884  55.034  1.00  0.00     0.037 A 
HETATM   27  C   UNL     1      26.815  46.728  54.310  1.00  0.00     0.010 A 
BRANCH  25  28
HETATM   28  O   UNL     1      29.996  46.099  55.932  1.00  0.00    -0.356 OA
HETATM   29  C   UNL     1      29.940  45.811  57.323  1.00  0.00     0.210 C 
ENDBRANCH  25  28
ENDBRANCH  21  22
ENDBRANCH  20  21
ENDBRANCH  16  20
ENDBRANCH  12  13
ENDBRANCH   1  12
BRANCH  11  30
HETATM   30  N   UNL     1      19.428  46.721  49.666  1.00  0.00    -0.274 NA
HETATM   31  H   UNL     1      20.335  46.954  50.080  1.00  0.00     0.129 HD
BRANCH  30  32
HETATM   32  C   UNL     1      18.497  47.798  50.053  1.00  0.00     0.130 C 
BRANCH  32  33
HETATM   33  C   UNL     1      19.239  49.007  50.661  1.00  0.00     0.164 C 
BRANCH  33  34
HETATM   34  O   UNL     1      18.852  49.189  52.031  1.00  0.00    -0.390 OA
HETATM   35  H   UNL     1      19.041  50.117  52.255  1.00  0.00     0.210 HD
ENDBRANCH  33  34
BRANCH  33  36
HETATM   36  C   UNL     1      19.071  50.291  49.868  1.00  0.00    -0.029 A 
HETATM   37  C   UNL     1      20.152  50.807  49.136  1.00  0.00     0.010 A 
HETATM   38  C   UNL     1      20.017  51.992  48.411  1.00  0.00     0.001 A 
HETATM   39  C   UNL     1      18.805  52.677  48.411  1.00  0.00     0.000 A 
HETATM   40  C   UNL     1      17.717  52.166  49.117  1.00  0.00     0.001 A 
HETATM   41  C   UNL     1      17.847  50.977  49.835  1.00  0.00     0.010 A 
ENDBRANCH  33  36
ENDBRANCH  32  33
ENDBRANCH  30  32
ENDBRANCH  11  30
TORSDOF 11
ENDMDL
MODEL 10
REMARK VINA RESULT:      -8.6      1.448      2.015
REMARK  11 active torsions:
REMARK  status: ('A' for Active; 'I' for Inactive)
REMARK    1  A    between atoms: O_2  and  C_3 
REMARK    2  A    between atoms: C_6  and  C_7 
REMARK    3  A    between atoms: C_7  and  C_8 
REMARK    4  A    between atoms: C_8  and  N_9 
REMARK    5  A    between atoms: C_13  and  C_14 
REMARK    6  A    between atoms: C_14  and  C_15 
REMARK    7  A    between atoms: C_25  and  N_26 
REMARK    8  A    between atoms: N_26  and  C_27 
REMARK    9  A    between atoms: C_27  and  C_28 
REMARK   10  A    between atoms: C_28  and  O_29 
REMARK   11  A    between atoms: C_28  and  C_30 
ROOT
HETATM    1  C   UNL     1      24.721  45.837  50.340  1.00  0.00     0.074 A 
HETATM    2  C   UNL     1      24.094  46.982  49.621  1.00  0.00     0.266 A 
HETATM    3  O   UNL     1      22.876  46.995  49.428  1.00  0.00    -0.267 OA
HETATM    4  N   UNL     1      24.957  47.989  49.216  1.00  0.00    -0.273 N 
HETATM    5  C   UNL     1      26.299  47.908  49.542  1.00  0.00     0.138 A 
HETATM    6  N   UNL     1      26.833  46.937  50.210  1.00  0.00    -0.218 NA
HETATM    7  C   UNL     1      24.459  49.070  48.496  1.00  0.00     0.102 A 
HETATM    8  C   UNL     1      25.250  50.070  48.089  1.00  0.00     0.018 A 
HETATM    9  C   UNL     1      26.655  50.045  48.398  1.00  0.00     0.005 A 
HETATM   10  C   UNL     1      27.176  49.026  49.092  1.00  0.00     0.051 A 
HETATM   11  C   UNL     1      26.045  45.892  50.609  1.00  0.00     0.121 A 
ENDROOT
BRANCH   1  12
HETATM   12  C   UNL     1      23.914  44.660  50.629  1.00  0.00     0.045 C 
BRANCH  12  13
HETATM   13  C   UNL     1      23.816  43.589  49.834  1.00  0.00     0.077 C 
HETATM   14  S   UNL     1      22.767  43.375  48.489  1.00  0.00    -0.055 SA
HETATM   15  C   UNL     1      23.493  41.837  48.051  1.00  0.00     0.148 C 
HETATM   16  N   UNL     1      24.531  41.549  48.914  1.00  0.00    -0.298 N 
HETATM   17  S   UNL     1      22.949  40.933  46.759  1.00  0.00    -0.052 SA
HETATM   18  C   UNL     1      24.711  42.414  49.979  1.00  0.00     0.266 C 
HETATM   19  O   UNL     1      25.494  42.261  50.908  1.00  0.00    -0.266 OA
BRANCH  16  20
HETATM   20  C   UNL     1      25.474  40.450  48.735  1.00  0.00     0.138 C 
BRANCH  20  21
HETATM   21  C   UNL     1      26.668  40.795  47.844  1.00  0.00     0.059 C 
BRANCH  21  22
HETATM   22  C   UNL     1      27.284  39.526  47.305  1.00  0.00    -0.057 A 
HETATM   23  C   UNL     1      27.835  39.485  46.018  1.00  0.00     0.010 A 
HETATM   24  C   UNL     1      28.333  38.286  45.493  1.00  0.00     0.037 A 
HETATM   25  C   UNL     1      28.280  37.113  46.247  1.00  0.00     0.068 A 
HETATM   26  C   UNL     1      27.725  37.150  47.527  1.00  0.00     0.037 A 
HETATM   27  C   UNL     1      27.235  38.346  48.057  1.00  0.00     0.010 A 
BRANCH  25  28
HETATM   28  O   UNL     1      28.715  35.879  45.848  1.00  0.00    -0.356 OA
HETATM   29  C   UNL     1      28.003  35.261  44.785  1.00  0.00     0.210 C 
ENDBRANCH  25  28
ENDBRANCH  21  22
ENDBRANCH  20  21
ENDBRANCH  16  20
ENDBRANCH  12  13
ENDBRANCH   1  12
BRANCH  11  30
HETATM   30  N   UNL     1      26.698  44.852  51.265  1.00  0.00    -0.274 NA
HETATM   31  H   UNL     1      27.586  44.714  50.776  1.00  0.00     0.129 HD
BRANCH  30  32
HETATM   32  C   UNL     1      27.017  44.963  52.701  1.00  0.00     0.130 C 
BRANCH  32  33
HETATM   33  C   UNL     1      27.776  43.722  53.218  1.00  0.00     0.164 C 
BRANCH  33  34
HETATM   34  O   UNL     1      26.848  42.717  53.650  1.00  0.00    -0.390 OA
HETATM   35  H   UNL     1      26.085  42.761  53.048  1.00  0.00     0.210 HD
ENDBRANCH  33  34
BRANCH  33  36
HETATM   36  C   UNL     1      28.793  44.034  54.300  1.00  0.00    -0.029 A 
HETATM   37  C   UNL     1      29.819  43.119  54.581  1.00  0.00     0.010 A 
HETATM   38  C   UNL     1      30.755  43.385  55.581  1.00  0.00     0.001 A 
HETATM   39  C   UNL     1      30.676  44.566  56.315  1.00  0.00     0.000 A 
HETATM   40  C   UNL     1      29.675  45.494  56.035  1.00  0.00     0.001 A 
HETATM   41  C   UNL     1      28.744  45.233  55.029  1.00  0.00     0.010 A 
ENDBRANCH  33  36
ENDBRANCH  32  33
ENDBRANCH  30  32
ENDBRANCH  11  30
TORSDOF 11
ENDMDL
