MODEL 1
REMARK VINA RESULT:      -9.2      0.000      0.000
REMARK  6 active torsions:
REMARK  status: ('A' for Active; 'I' for Inactive)
REMARK    1  A    between atoms: O_2  and  C_3 
REMARK    2  A    between atoms: C_6  and  C_7 
REMARK    3  A    between atoms: C_13  and  C_14 
REMARK       I    between atoms: C_14  and  N_15 
REMARK    4  A    between atoms: N_15  and  C_16 
REMARK    5  A    between atoms: C_16  and  C_17 
REMARK    6  A    between atoms: C_24  and  C_25 
ROOT
HETATM    1  C   UNL     1      26.262  43.900  53.970  1.00  0.00     0.118 C 
HETATM    2  N   UNL     1      26.177  42.951  52.853  1.00  0.00    -0.365 N 
HETATM    3  C   UNL     1      26.381  43.351  51.570  1.00  0.00     0.138 A 
HETATM    4  N   UNL     1      26.474  44.692  51.268  1.00  0.00    -0.240 N 
HETATM    5  N   UNL     1      26.711  44.941  49.973  1.00  0.00    -0.181 NA
HETATM    6  C   UNL     1      26.672  43.728  49.417  1.00  0.00     0.160 A 
HETATM    7  C   UNL     1      26.484  42.688  50.361  1.00  0.00     0.096 A 
HETATM    8  C   UNL     1      26.337  45.760  52.242  1.00  0.00     0.221 C 
HETATM    9  C   UNL     1      25.632  45.224  53.504  1.00  0.00     0.066 C 
HETATM   10  H   UNL     1      25.796  42.036  53.083  1.00  0.00     0.161 HD
ENDROOT
BRANCH   7  11
HETATM   11  C   UNL     1      26.425  41.273  50.050  1.00  0.00     0.257 C 
HETATM   12  N   UNL     1      27.073  40.902  48.896  1.00  0.00    -0.352 N 
HETATM   13  H   UNL     1      27.431  41.629  48.294  1.00  0.00     0.163 HD
HETATM   14  O   UNL     1      25.810  40.485  50.757  1.00  0.00    -0.267 OA
BRANCH  12  15
HETATM   15  C   UNL     1      27.089  39.536  48.429  1.00  0.00     0.161 C 
BRANCH  15  16
HETATM   16  C   UNL     1      27.909  38.625  49.309  1.00  0.00    -0.041 A 
HETATM   17  C   UNL     1      27.402  37.366  49.667  1.00  0.00     0.009 A 
HETATM   18  C   UNL     1      28.166  36.480  50.428  1.00  0.00     0.001 A 
HETATM   19  C   UNL     1      29.449  36.837  50.837  1.00  0.00     0.000 A 
HETATM   20  C   UNL     1      29.971  38.078  50.476  1.00  0.00     0.001 A 
HETATM   21  C   UNL     1      29.211  38.963  49.709  1.00  0.00     0.009 A 
ENDBRANCH  15  16
ENDBRANCH  12  15
ENDBRANCH   7  11
BRANCH   1  22
HETATM   22  C   UNL     1      27.686  44.009  54.514  1.00  0.00    -0.035 A 
HETATM   23  C   UNL     1      28.102  45.121  55.266  1.00  0.00     0.012 A 
HETATM   24  C   UNL     1      29.404  45.217  55.778  1.00  0.00     0.037 A 
HETATM   25  C   UNL     1      30.318  44.187  55.570  1.00  0.00     0.068 A 
HETATM   26  C   UNL     1      29.910  43.059  54.863  1.00  0.00     0.037 A 
HETATM   27  C   UNL     1      28.614  42.967  54.346  1.00  0.00     0.012 A 
BRANCH  25  28
HETATM   28  O   UNL     1      31.609  44.154  56.013  1.00  0.00    -0.356 OA
HETATM   29  C   UNL     1      31.872  43.377  57.175  1.00  0.00     0.210 C 
ENDBRANCH  25  28
ENDBRANCH   1  22
BRANCH   8  30
HETATM   30  C   UNL     1      25.556  46.940  51.702  1.00  0.00     0.409 C 
HETATM   31  F   UNL     1      24.496  46.563  50.950  1.00  0.00    -0.169 F 
HETATM   32  F   UNL     1      25.048  47.657  52.745  1.00  0.00    -0.169 F 
HETATM   33  F   UNL     1      26.303  47.807  50.988  1.00  0.00    -0.169 F 
ENDBRANCH   8  30
TORSDOF 6
ENDMDL
MODEL 2
REMARK VINA RESULT:      -9.1      3.319      6.887
REMARK  6 active torsions:
REMARK  status: ('A' for Active; 'I' for Inactive)
REMARK    1  A    between atoms: O_2  and  C_3 
REMARK    2  A    between atoms: C_6  and  C_7 
REMARK    3  A    between atoms: C_13  and  C_14 
REMARK       I    between atoms: C_14  and  N_15 
REMARK    4  A    between atoms: N_15  and  C_16 
REMARK    5  A    between atoms: C_16  and  C_17 
REMARK    6  A    between atoms: C_24  and  C_25 
ROOT
HETATM    1  C   UNL     1      24.479  43.657  51.361  1.00  0.00     0.118 C 
HETATM    2  N   UNL     1      25.676  43.027  51.932  1.00  0.00    -0.365 N 
HETATM    3  C   UNL     1      26.534  42.313  51.158  1.00  0.00     0.138 A 
HETATM    4  N   UNL     1      26.197  41.992  49.862  1.00  0.00    -0.240 N 
HETATM    5  N   UNL     1      27.151  41.317  49.205  1.00  0.00    -0.181 NA
HETATM    6  C   UNL     1      28.082  41.117  50.140  1.00  0.00     0.160 A 
HETATM    7  C   UNL     1      27.767  41.726  51.381  1.00  0.00     0.096 A 
HETATM    8  C   UNL     1      24.936  42.344  49.235  1.00  0.00     0.221 C 
HETATM    9  C   UNL     1      23.896  42.686  50.319  1.00  0.00     0.066 C 
HETATM   10  H   UNL     1      25.724  43.020  52.949  1.00  0.00     0.161 HD
ENDROOT
BRANCH   7  11
HETATM   11  C   UNL     1      28.601  41.695  52.566  1.00  0.00     0.257 C 
HETATM   12  N   UNL     1      29.402  42.797  52.744  1.00  0.00    -0.352 N 
HETATM   13  H   UNL     1      29.450  43.479  52.001  1.00  0.00     0.163 HD
HETATM   14  O   UNL     1      28.603  40.733  53.325  1.00  0.00    -0.267 OA
BRANCH  12  15
HETATM   15  C   UNL     1      30.311  42.913  53.860  1.00  0.00     0.161 C 
BRANCH  15  16
HETATM   16  C   UNL     1      29.887  43.967  54.854  1.00  0.00    -0.041 A 
HETATM   17  C   UNL     1      30.708  44.250  55.957  1.00  0.00     0.009 A 
HETATM   18  C   UNL     1      30.370  45.263  56.856  1.00  0.00     0.001 A 
HETATM   19  C   UNL     1      29.211  46.010  56.663  1.00  0.00     0.000 A 
HETATM   20  C   UNL     1      28.394  45.751  55.564  1.00  0.00     0.001 A 
HETATM   21  C   UNL     1      28.734  44.742  54.660  1.00  0.00     0.009 A 
ENDBRANCH  15  16
ENDBRANCH  12  15
ENDBRANCH   7  11
BRANCH   1  22
HETATM   22  C   UNL     1      24.769  45.067  50.849  1.00  0.00    -0.035 A 
HETATM   23  C   UNL     1      23.929  45.698  49.915  1.00  0.00     0.012 A 
HETATM   24  C   UNL     1      24.186  46.997  49.455  1.00  0.00     0.037 A 
HETATM   25  C   UNL     1      25.280  47.710  49.938  1.00  0.00     0.068 A 
HETATM   26  C   UNL     1      26.099  47.117  50.895  1.00  0.00     0.037 A 
HETATM   27  C   UNL     1      25.847  45.818  51.349  1.00  0.00     0.012 A 
BRANCH  25  28
HETATM   28  O   UNL     1      25.640  48.976  49.576  1.00  0.00    -0.356 OA
HETATM   29  C   UNL     1      26.840  49.114  48.824  1.00  0.00     0.210 C 
ENDBRANCH  25  28
ENDBRANCH   1  22
BRANCH   8  30
HETATM   30  C   UNL     1      24.394  41.233  48.359  1.00  0.00     0.409 C 
HETATM   31  F   UNL     1      23.046  41.136  48.417  1.00  0.00    -0.169 F 
HETATM   32  F   UNL     1      24.703  41.497  47.058  1.00  0.00    -0.169 F 
HETATM   33  F   UNL     1      24.925  40.022  48.625  1.00  0.00    -0.169 F 
ENDBRANCH   8  30
TORSDOF 6
ENDMDL
MODEL 3
REMARK VINA RESULT:      -8.8      1.361      2.082
REMARK  6 active torsions:
REMARK  status: ('A' for Active; 'I' for Inactive)
REMARK    1  A    between atoms: O_2  and  C_3 
REMARK    2  A    between atoms: C_6  and  C_7 
REMARK    3  A    between atoms: C_13  and  C_14 
REMARK       I    between atoms: C_14  and  N_15 
REMARK    4  A    between atoms: N_15  and  C_16 
REMARK    5  A    between atoms: C_16  and  C_17 
REMARK    6  A    between atoms: C_24  and  C_25 
ROOT
HETATM    1  C   UNL     1      26.367  43.801  53.876  1.00  0.00     0.118 C 
HETATM    2  N   UNL     1      26.378  42.768  52.834  1.00  0.00    -0.365 N 
HETATM    3  C   UNL     1      26.639  43.078  51.537  1.00  0.00     0.138 A 
HETATM    4  N   UNL     1      26.700  44.395  51.136  1.00  0.00    -0.240 N 
HETATM    5  N   UNL     1      26.999  44.553  49.840  1.00  0.00    -0.181 NA
HETATM    6  C   UNL     1      27.034  43.301  49.379  1.00  0.00     0.160 A 
HETATM    7  C   UNL     1      26.831  42.329  50.390  1.00  0.00     0.096 A 
HETATM    8  C   UNL     1      26.472  45.527  52.015  1.00  0.00     0.221 C 
HETATM    9  C   UNL     1      25.718  45.060  53.277  1.00  0.00     0.066 C 
HETATM   10  H   UNL     1      26.017  41.859  53.115  1.00  0.00     0.161 HD
ENDROOT
BRANCH   7  11
HETATM   11  C   UNL     1      26.840  40.894  50.187  1.00  0.00     0.257 C 
HETATM   12  N   UNL     1      27.910  40.411  49.472  1.00  0.00    -0.352 N 
HETATM   13  H   UNL     1      28.536  41.077  49.042  1.00  0.00     0.163 HD
HETATM   14  O   UNL     1      25.934  40.181  50.601  1.00  0.00    -0.267 OA
BRANCH  12  15
HETATM   15  C   UNL     1      28.056  39.010  49.160  1.00  0.00     0.161 C 
BRANCH  15  16
HETATM   16  C   UNL     1      28.206  38.749  47.681  1.00  0.00    -0.041 A 
HETATM   17  C   UNL     1      28.663  37.498  47.240  1.00  0.00     0.009 A 
HETATM   18  C   UNL     1      28.751  37.210  45.877  1.00  0.00     0.001 A 
HETATM   19  C   UNL     1      28.379  38.168  44.937  1.00  0.00     0.000 A 
HETATM   20  C   UNL     1      27.910  39.410  45.359  1.00  0.00     0.001 A 
HETATM   21  C   UNL     1      27.815  39.697  46.723  1.00  0.00     0.009 A 
ENDBRANCH  15  16
ENDBRANCH  12  15
ENDBRANCH   7  11
BRANCH   1  22
HETATM   22  C   UNL     1      27.754  44.008  54.484  1.00  0.00    -0.035 A 
HETATM   23  C   UNL     1      28.057  45.142  55.257  1.00  0.00     0.012 A 
HETATM   24  C   UNL     1      29.324  45.327  55.826  1.00  0.00     0.037 A 
HETATM   25  C   UNL     1      30.317  44.365  55.658  1.00  0.00     0.068 A 
HETATM   26  C   UNL     1      30.023  43.215  54.931  1.00  0.00     0.037 A 
HETATM   27  C   UNL     1      28.760  43.035  54.356  1.00  0.00     0.012 A 
BRANCH  25  28
HETATM   28  O   UNL     1      31.587  44.421  56.158  1.00  0.00    -0.356 OA
HETATM   29  C   UNL     1      31.895  43.540  57.232  1.00  0.00     0.210 C 
ENDBRANCH  25  28
ENDBRANCH   1  22
BRANCH   8  30
HETATM   30  C   UNL     1      25.681  46.631  51.344  1.00  0.00     0.409 C 
HETATM   31  F   UNL     1      26.455  47.436  50.581  1.00  0.00    -0.169 F 
HETATM   32  F   UNL     1      24.762  46.076  50.504  1.00  0.00    -0.169 F 
HETATM   33  F   UNL     1      24.979  47.398  52.203  1.00  0.00    -0.169 F 
ENDBRANCH   8  30
TORSDOF 6
ENDMDL
MODEL 4
REMARK VINA RESULT:      -8.7      3.677      7.429
REMARK  6 active torsions:
REMARK  status: ('A' for Active; 'I' for Inactive)
REMARK    1  A    between atoms: O_2  and  C_3 
REMARK    2  A    between atoms: C_6  and  C_7 
REMARK    3  A    between atoms: C_13  and  C_14 
REMARK       I    between atoms: C_14  and  N_15 
REMARK    4  A    between atoms: N_15  and  C_16 
REMARK    5  A    between atoms: C_16  and  C_17 
REMARK    6  A    between atoms: C_24  and  C_25 
ROOT
HETATM    1  C   UNL     1      24.033  45.182  50.875  1.00  0.00     0.118 C 
HETATM    2  N   UNL     1      24.897  44.976  52.044  1.00  0.00    -0.365 N 
HETATM    3  C   UNL     1      26.078  44.311  51.940  1.00  0.00     0.138 A 
HETATM    4  N   UNL     1      26.397  43.641  50.780  1.00  0.00    -0.240 N 
HETATM    5  N   UNL     1      27.605  43.061  50.804  1.00  0.00    -0.181 NA
HETATM    6  C   UNL     1      28.027  43.286  52.050  1.00  0.00     0.160 A 
HETATM    7  C   UNL     1      27.127  44.074  52.810  1.00  0.00     0.096 A 
HETATM    8  C   UNL     1      25.529  43.558  49.619  1.00  0.00     0.221 C 
HETATM    9  C   UNL     1      24.082  43.898  50.029  1.00  0.00     0.066 C 
HETATM   10  H   UNL     1      24.480  45.208  52.943  1.00  0.00     0.161 HD
ENDROOT
BRANCH   7  11
HETATM   11  C   UNL     1      27.333  44.494  54.182  1.00  0.00     0.257 C 
HETATM   12  N   UNL     1      28.314  45.440  54.362  1.00  0.00    -0.352 N 
HETATM   13  H   UNL     1      28.893  45.683  53.572  1.00  0.00     0.163 HD
HETATM   14  O   UNL     1      26.692  44.008  55.106  1.00  0.00    -0.267 OA
BRANCH  12  15
HETATM   15  C   UNL     1      28.661  45.947  55.667  1.00  0.00     0.161 C 
BRANCH  15  16
HETATM   16  C   UNL     1      29.745  45.141  56.341  1.00  0.00    -0.041 A 
HETATM   17  C   UNL     1      30.370  44.098  55.641  1.00  0.00     0.009 A 
HETATM   18  C   UNL     1      31.417  43.378  56.218  1.00  0.00     0.001 A 
HETATM   19  C   UNL     1      31.857  43.694  57.501  1.00  0.00     0.000 A 
HETATM   20  C   UNL     1      31.256  44.737  58.203  1.00  0.00     0.001 A 
HETATM   21  C   UNL     1      30.213  45.463  57.624  1.00  0.00     0.009 A 
ENDBRANCH  15  16
ENDBRANCH  12  15
ENDBRANCH   7  11
BRANCH   1  22
HETATM   22  C   UNL     1      24.385  46.469  50.131  1.00  0.00    -0.035 A 
HETATM   23  C   UNL     1      23.422  47.176  49.390  1.00  0.00     0.012 A 
HETATM   24  C   UNL     1      23.739  48.364  48.717  1.00  0.00     0.037 A 
HETATM   25  C   UNL     1      25.026  48.892  48.791  1.00  0.00     0.068 A 
HETATM   26  C   UNL     1      25.982  48.227  49.554  1.00  0.00     0.037 A 
HETATM   27  C   UNL     1      25.667  47.037  50.219  1.00  0.00     0.012 A 
BRANCH  25  28
HETATM   28  O   UNL     1      25.464  50.036  48.187  1.00  0.00    -0.356 OA
HETATM   29  C   UNL     1      26.838  50.364  48.350  1.00  0.00     0.210 C 
ENDBRANCH  25  28
ENDBRANCH   1  22
BRANCH   8  30
HETATM   30  C   UNL     1      25.553  42.187  48.975  1.00  0.00     0.409 C 
HETATM   31  F   UNL     1      26.718  41.932  48.337  1.00  0.00    -0.169 F 
HETATM   32  F   UNL     1      25.433  41.235  49.944  1.00  0.00    -0.169 F 
HETATM   33  F   UNL     1      24.536  41.970  48.117  1.00  0.00    -0.169 F 
ENDBRANCH   8  30
TORSDOF 6
ENDMDL
MODEL 5
REMARK VINA RESULT:      -8.4      4.191      8.759
REMARK  6 active torsions:
REMARK  status: ('A' for Active; 'I' for Inactive)
REMARK    1  A    between atoms: O_2  and  C_3 
REMARK    2  A    between atoms: C_6  and  C_7 
REMARK    3  A    between atoms: C_13  and  C_14 
REMARK       I    between atoms: C_14  and  N_15 
REMARK    4  A    between atoms: N_15  and  C_16 
REMARK    5  A    between atoms: C_16  and  C_17 
REMARK    6  A    between atoms: C_24  and  C_25 
ROOT
HETATM    1  C   UNL     1      24.771  43.607  51.736  1.00  0.00     0.118 C 
HETATM    2  N   UNL     1      24.101  44.641  50.938  1.00  0.00    -0.365 N 
HETATM    3  C   UNL     1      24.618  45.893  50.829  1.00  0.00     0.138 A 
HETATM    4  N   UNL     1      25.674  46.280  51.625  1.00  0.00    -0.240 N 
HETATM    5  N   UNL     1      26.104  47.526  51.386  1.00  0.00    -0.181 NA
HETATM    6  C   UNL     1      25.236  47.981  50.480  1.00  0.00     0.160 A 
HETATM    7  C   UNL     1      24.289  47.006  50.077  1.00  0.00     0.096 A 
HETATM    8  C   UNL     1      26.288  45.435  52.634  1.00  0.00     0.221 C 
HETATM    9  C   UNL     1      25.330  44.283  52.999  1.00  0.00     0.066 C 
HETATM   10  H   UNL     1      23.161  44.411  50.623  1.00  0.00     0.161 HD
ENDROOT
BRANCH   7  11
HETATM   11  C   UNL     1      23.245  47.209  49.092  1.00  0.00     0.257 C 
HETATM   12  N   UNL     1      22.753  48.490  49.018  1.00  0.00    -0.352 N 
HETATM   13  H   UNL     1      23.052  49.157  49.714  1.00  0.00     0.163 HD
HETATM   14  O   UNL     1      22.820  46.286  48.407  1.00  0.00    -0.267 OA
BRANCH  12  15
HETATM   15  C   UNL     1      21.694  48.854  48.108  1.00  0.00     0.161 C 
BRANCH  15  16
HETATM   16  C   UNL     1      20.724  49.846  48.703  1.00  0.00    -0.041 A 
HETATM   17  C   UNL     1      20.602  51.123  48.135  1.00  0.00     0.009 A 
HETATM   18  C   UNL     1      19.669  52.037  48.627  1.00  0.00     0.001 A 
HETATM   19  C   UNL     1      18.841  51.685  49.690  1.00  0.00     0.000 A 
HETATM   20  C   UNL     1      18.940  50.415  50.255  1.00  0.00     0.001 A 
HETATM   21  C   UNL     1      19.869  49.498  49.759  1.00  0.00     0.009 A 
ENDBRANCH  15  16
ENDBRANCH  12  15
ENDBRANCH   7  11
BRANCH   1  22
HETATM   22  C   UNL     1      25.789  42.824  50.908  1.00  0.00    -0.035 A 
HETATM   23  C   UNL     1      26.783  42.038  51.517  1.00  0.00     0.012 A 
HETATM   24  C   UNL     1      27.710  41.308  50.760  1.00  0.00     0.037 A 
HETATM   25  C   UNL     1      27.650  41.326  49.368  1.00  0.00     0.068 A 
HETATM   26  C   UNL     1      26.647  42.066  48.748  1.00  0.00     0.037 A 
HETATM   27  C   UNL     1      25.727  42.800  49.504  1.00  0.00     0.012 A 
BRANCH  25  28
HETATM   28  O   UNL     1      28.487  40.663  48.517  1.00  0.00    -0.356 OA
HETATM   29  C   UNL     1      28.149  40.685  47.136  1.00  0.00     0.210 C 
ENDBRANCH  25  28
ENDBRANCH   1  22
BRANCH   8  30
HETATM   30  C   UNL     1      26.644  46.201  53.891  1.00  0.00     0.409 C 
HETATM   31  F   UNL     1      25.625  46.970  54.339  1.00  0.00    -0.169 F 
HETATM   32  F   UNL     1      26.922  45.317  54.891  1.00  0.00    -0.169 F 
HETATM   33  F   UNL     1      27.743  46.973  53.767  1.00  0.00    -0.169 F 
ENDBRANCH   8  30
TORSDOF 6
ENDMDL
MODEL 6
REMARK VINA RESULT:      -8.2     13.269     16.264
REMARK  6 active torsions:
REMARK  status: ('A' for Active; 'I' for Inactive)
REMARK    1  A    between atoms: O_2  and  C_3 
REMARK    2  A    between atoms: C_6  and  C_7 
REMARK    3  A    between atoms: C_13  and  C_14 
REMARK       I    between atoms: C_14  and  N_15 
REMARK    4  A    between atoms: N_15  and  C_16 
REMARK    5  A    between atoms: C_16  and  C_17 
REMARK    6  A    between atoms: C_24  and  C_25 
ROOT
HETATM    1  C   UNL     1      31.433  50.294  38.824  1.00  0.00     0.118 C 
HETATM    2  N   UNL     1      32.476  50.587  39.814  1.00  0.00    -0.365 N 
HETATM    3  C   UNL     1      32.181  51.208  40.986  1.00  0.00     0.138 A 
HETATM    4  N   UNL     1      30.933  51.758  41.186  1.00  0.00    -0.240 N 
HETATM    5  N   UNL     1      30.771  52.306  42.398  1.00  0.00    -0.181 NA
HETATM    6  C   UNL     1      31.980  52.189  42.951  1.00  0.00     0.160 A 
HETATM    7  C   UNL     1      32.905  51.500  42.129  1.00  0.00     0.096 A 
HETATM    8  C   UNL     1      29.871  51.753  40.196  1.00  0.00     0.221 C 
HETATM    9  C   UNL     1      30.466  51.490  38.798  1.00  0.00     0.066 C 
HETATM   10  H   UNL     1      33.433  50.451  39.496  1.00  0.00     0.161 HD
ENDROOT
BRANCH   7  11
HETATM   11  C   UNL     1      34.280  51.206  42.478  1.00  0.00     0.257 C 
HETATM   12  N   UNL     1      34.895  52.144  43.271  1.00  0.00    -0.352 N 
HETATM   13  H   UNL     1      34.407  53.010  43.453  1.00  0.00     0.163 HD
HETATM   14  O   UNL     1      34.849  50.204  42.060  1.00  0.00    -0.267 OA
BRANCH  12  15
HETATM   15  C   UNL     1      36.271  52.016  43.689  1.00  0.00     0.161 C 
BRANCH  15  16
HETATM   16  C   UNL     1      36.969  53.346  43.826  1.00  0.00    -0.041 A 
HETATM   17  C   UNL     1      37.272  53.842  45.104  1.00  0.00     0.009 A 
HETATM   18  C   UNL     1      37.972  55.040  45.257  1.00  0.00     0.001 A 
HETATM   19  C   UNL     1      38.384  55.755  44.136  1.00  0.00     0.000 A 
HETATM   20  C   UNL     1      38.104  55.269  42.861  1.00  0.00     0.001 A 
HETATM   21  C   UNL     1      37.409  54.067  42.706  1.00  0.00     0.009 A 
ENDBRANCH  15  16
ENDBRANCH  12  15
ENDBRANCH   7  11
BRANCH   1  22
HETATM   22  C   UNL     1      30.783  48.933  39.072  1.00  0.00    -0.035 A 
HETATM   23  C   UNL     1      31.400  47.960  39.877  1.00  0.00     0.012 A 
HETATM   24  C   UNL     1      30.799  46.716  40.117  1.00  0.00     0.037 A 
HETATM   25  C   UNL     1      29.550  46.423  39.576  1.00  0.00     0.068 A 
HETATM   26  C   UNL     1      28.905  47.391  38.810  1.00  0.00     0.037 A 
HETATM   27  C   UNL     1      29.508  48.629  38.565  1.00  0.00     0.012 A 
BRANCH  25  28
HETATM   28  O   UNL     1      28.857  45.256  39.733  1.00  0.00    -0.356 OA
HETATM   29  C   UNL     1      27.438  45.351  39.774  1.00  0.00     0.210 C 
ENDBRANCH  25  28
ENDBRANCH   1  22
BRANCH   8  30
HETATM   30  C   UNL     1      29.099  53.056  40.169  1.00  0.00     0.409 C 
HETATM   31  F   UNL     1      29.900  54.138  40.296  1.00  0.00    -0.169 F 
HETATM   32  F   UNL     1      28.475  53.182  38.964  1.00  0.00    -0.169 F 
HETATM   33  F   UNL     1      28.125  53.131  41.098  1.00  0.00    -0.169 F 
ENDBRANCH   8  30
TORSDOF 6
ENDMDL
MODEL 7
REMARK VINA RESULT:      -8.1      4.097      8.188
REMARK  6 active torsions:
REMARK  status: ('A' for Active; 'I' for Inactive)
REMARK    1  A    between atoms: O_2  and  C_3 
REMARK    2  A    between atoms: C_6  and  C_7 
REMARK    3  A    between atoms: C_13  and  C_14 
REMARK       I    between atoms: C_14  and  N_15 
REMARK    4  A    between atoms: N_15  and  C_16 
REMARK    5  A    between atoms: C_16  and  C_17 
REMARK    6  A    between atoms: C_24  and  C_25 
ROOT
HETATM    1  C   UNL     1      23.054  42.597  49.570  1.00  0.00     0.118 C 
HETATM    2  N   UNL     1      23.903  43.004  50.697  1.00  0.00    -0.365 N 
HETATM    3  C   UNL     1      25.253  43.090  50.567  1.00  0.00     0.138 A 
HETATM    4  N   UNL     1      25.874  42.605  49.437  1.00  0.00    -0.240 N 
HETATM    5  N   UNL     1      27.202  42.788  49.428  1.00  0.00    -0.181 NA
HETATM    6  C   UNL     1      27.446  43.317  50.629  1.00  0.00     0.160 A 
HETATM    7  C   UNL     1      26.270  43.546  51.386  1.00  0.00     0.096 A 
HETATM    8  C   UNL     1      25.181  41.956  48.339  1.00  0.00     0.221 C 
HETATM    9  C   UNL     1      23.792  41.482  48.811  1.00  0.00     0.066 C 
HETATM   10  H   UNL     1      23.439  43.048  51.602  1.00  0.00     0.161 HD
ENDROOT
BRANCH   7  11
HETATM   11  C   UNL     1      26.227  44.131  52.712  1.00  0.00     0.257 C 
HETATM   12  N   UNL     1      27.411  44.675  53.148  1.00  0.00    -0.352 N 
HETATM   13  H   UNL     1      28.239  44.529  52.589  1.00  0.00     0.163 HD
HETATM   14  O   UNL     1      25.209  44.103  53.393  1.00  0.00    -0.267 OA
BRANCH  12  15
HETATM   15  C   UNL     1      27.546  45.274  54.455  1.00  0.00     0.161 C 
BRANCH  15  16
HETATM   16  C   UNL     1      28.795  44.833  55.177  1.00  0.00    -0.041 A 
HETATM   17  C   UNL     1      29.478  43.686  54.744  1.00  0.00     0.009 A 
HETATM   18  C   UNL     1      30.670  43.292  55.355  1.00  0.00     0.001 A 
HETATM   19  C   UNL     1      31.198  44.042  56.402  1.00  0.00     0.000 A 
HETATM   20  C   UNL     1      30.540  45.192  56.833  1.00  0.00     0.001 A 
HETATM   21  C   UNL     1      29.350  45.591  56.219  1.00  0.00     0.009 A 
ENDBRANCH  15  16
ENDBRANCH  12  15
ENDBRANCH   7  11
BRANCH   1  22
HETATM   22  C   UNL     1      22.627  43.794  48.721  1.00  0.00    -0.035 A 
HETATM   23  C   UNL     1      21.969  43.625  47.490  1.00  0.00     0.012 A 
HETATM   24  C   UNL     1      21.565  44.721  46.717  1.00  0.00     0.037 A 
HETATM   25  C   UNL     1      21.786  46.020  47.168  1.00  0.00     0.068 A 
HETATM   26  C   UNL     1      22.398  46.207  48.405  1.00  0.00     0.037 A 
HETATM   27  C   UNL     1      22.809  45.112  49.173  1.00  0.00     0.012 A 
BRANCH  25  28
HETATM   28  O   UNL     1      21.442  47.170  46.516  1.00  0.00    -0.356 OA
HETATM   29  C   UNL     1      20.852  48.201  47.297  1.00  0.00     0.210 C 
ENDBRANCH  25  28
ENDBRANCH   1  22
BRANCH   8  30
HETATM   30  C   UNL     1      25.949  40.772  47.788  1.00  0.00     0.409 C 
HETATM   31  F   UNL     1      25.191  39.987  46.988  1.00  0.00    -0.169 F 
HETATM   32  F   UNL     1      26.977  41.225  47.016  1.00  0.00    -0.169 F 
HETATM   33  F   UNL     1      26.514  39.999  48.738  1.00  0.00    -0.169 F 
ENDBRANCH   8  30
TORSDOF 6
ENDMDL
MODEL 8
REMARK VINA RESULT:      -7.8      3.600      8.291
REMARK  6 active torsions:
REMARK  status: ('A' for Active; 'I' for Inactive)
REMARK    1  A    between atoms: O_2  and  C_3 
REMARK    2  A    between atoms: C_6  and  C_7 
REMARK    3  A    between atoms: C_13  and  C_14 
REMARK       I    between atoms: C_14  and  N_15 
REMARK    4  A    between atoms: N_15  and  C_16 
REMARK    5  A    between atoms: C_16  and  C_17 
REMARK    6  A    between atoms: C_24  and  C_25 
ROOT
HETATM    1  C   UNL     1      26.409  40.714  51.205  1.00  0.00     0.118 C 
HETATM    2  N   UNL     1      25.557  41.885  50.966  1.00  0.00    -0.365 N 
HETATM    3  C   UNL     1      26.082  43.137  50.900  1.00  0.00     0.138 A 
HETATM    4  N   UNL     1      27.394  43.360  51.255  1.00  0.00    -0.240 N 
HETATM    5  N   UNL     1      27.787  44.632  51.107  1.00  0.00    -0.181 NA
HETATM    6  C   UNL     1      26.667  45.258  50.740  1.00  0.00     0.160 A 
HETATM    7  C   UNL     1      25.566  44.380  50.577  1.00  0.00     0.096 A 
HETATM    8  C   UNL     1      28.294  42.330  51.741  1.00  0.00     0.221 C 
HETATM    9  C   UNL     1      27.478  41.119  52.235  1.00  0.00     0.066 C 
HETATM   10  H   UNL     1      24.555  41.717  51.024  1.00  0.00     0.161 HD
ENDROOT
BRANCH   7  11
HETATM   11  C   UNL     1      24.234  44.773  50.164  1.00  0.00     0.257 C 
HETATM   12  N   UNL     1      24.177  45.881  49.353  1.00  0.00    -0.352 N 
HETATM   13  H   UNL     1      25.026  46.406  49.202  1.00  0.00     0.163 HD
HETATM   14  O   UNL     1      23.238  44.169  50.546  1.00  0.00    -0.267 OA
BRANCH  12  15
HETATM   15  C   UNL     1      22.927  46.419  48.873  1.00  0.00     0.161 C 
BRANCH  15  16
HETATM   16  C   UNL     1      22.983  47.907  48.629  1.00  0.00    -0.041 A 
HETATM   17  C   UNL     1      24.157  48.615  48.929  1.00  0.00     0.009 A 
HETATM   18  C   UNL     1      24.257  49.980  48.654  1.00  0.00     0.001 A 
HETATM   19  C   UNL     1      23.187  50.655  48.073  1.00  0.00     0.000 A 
HETATM   20  C   UNL     1      22.020  49.963  47.756  1.00  0.00     0.001 A 
HETATM   21  C   UNL     1      21.921  48.596  48.023  1.00  0.00     0.009 A 
ENDBRANCH  15  16
ENDBRANCH  12  15
ENDBRANCH   7  11
BRANCH   1  22
HETATM   22  C   UNL     1      26.948  40.129  49.900  1.00  0.00    -0.035 A 
HETATM   23  C   UNL     1      28.202  39.498  49.840  1.00  0.00     0.012 A 
HETATM   24  C   UNL     1      28.692  38.949  48.647  1.00  0.00     0.037 A 
HETATM   25  C   UNL     1      27.925  38.995  47.485  1.00  0.00     0.068 A 
HETATM   26  C   UNL     1      26.662  39.579  47.536  1.00  0.00     0.037 A 
HETATM   27  C   UNL     1      26.177  40.133  48.725  1.00  0.00     0.012 A 
BRANCH  25  28
HETATM   28  O   UNL     1      28.282  38.499  46.263  1.00  0.00    -0.356 OA
HETATM   29  C   UNL     1      28.632  37.121  46.205  1.00  0.00     0.210 C 
ENDBRANCH  25  28
ENDBRANCH   1  22
BRANCH   8  30
HETATM   30  C   UNL     1      29.182  42.821  52.866  1.00  0.00     0.409 C 
HETATM   31  F   UNL     1      28.587  43.772  53.622  1.00  0.00    -0.169 F 
HETATM   32  F   UNL     1      29.457  41.783  53.706  1.00  0.00    -0.169 F 
HETATM   33  F   UNL     1      30.378  43.287  52.453  1.00  0.00    -0.169 F 
ENDBRANCH   8  30
TORSDOF 6
ENDMDL
MODEL 9
REMARK VINA RESULT:      -7.8      3.034      7.283
REMARK  6 active torsions:
REMARK  status: ('A' for Active; 'I' for Inactive)
REMARK    1  A    between atoms: O_2  and  C_3 
REMARK    2  A    between atoms: C_6  and  C_7 
REMARK    3  A    between atoms: C_13  and  C_14 
REMARK       I    between atoms: C_14  and  N_15 
REMARK    4  A    between atoms: N_15  and  C_16 
REMARK    5  A    between atoms: C_16  and  C_17 
REMARK    6  A    between atoms: C_24  and  C_25 
ROOT
HETATM    1  C   UNL     1      26.554  44.127  49.436  1.00  0.00     0.118 C 
HETATM    2  N   UNL     1      27.069  43.942  50.798  1.00  0.00    -0.365 N 
HETATM    3  C   UNL     1      26.595  44.678  51.838  1.00  0.00     0.138 A 
HETATM    4  N   UNL     1      25.765  45.753  51.605  1.00  0.00    -0.240 N 
HETATM    5  N   UNL     1      25.345  46.364  52.721  1.00  0.00    -0.181 NA
HETATM    6  C   UNL     1      26.003  45.722  53.688  1.00  0.00     0.160 A 
HETATM    7  C   UNL     1      26.791  44.646  53.207  1.00  0.00     0.096 A 
HETATM    8  C   UNL     1      25.360  46.202  50.285  1.00  0.00     0.221 C 
HETATM    9  C   UNL     1      26.325  45.633  49.226  1.00  0.00     0.066 C 
HETATM   10  H   UNL     1      27.903  43.363  50.877  1.00  0.00     0.161 HD
ENDROOT
BRANCH   7  11
HETATM   11  C   UNL     1      27.592  43.760  54.028  1.00  0.00     0.257 C 
HETATM   12  N   UNL     1      28.952  43.918  53.902  1.00  0.00    -0.352 N 
HETATM   13  H   UNL     1      29.296  44.535  53.181  1.00  0.00     0.163 HD
HETATM   14  O   UNL     1      27.079  42.915  54.750  1.00  0.00    -0.267 OA
BRANCH  12  15
HETATM   15  C   UNL     1      29.891  43.099  54.630  1.00  0.00     0.161 C 
BRANCH  15  16
HETATM   16  C   UNL     1      30.378  43.752  55.901  1.00  0.00    -0.041 A 
HETATM   17  C   UNL     1      31.394  43.139  56.650  1.00  0.00     0.009 A 
HETATM   18  C   UNL     1      31.906  43.753  57.794  1.00  0.00     0.001 A 
HETATM   19  C   UNL     1      31.412  44.990  58.202  1.00  0.00     0.000 A 
HETATM   20  C   UNL     1      30.414  45.617  57.461  1.00  0.00     0.001 A 
HETATM   21  C   UNL     1      29.905  45.008  56.312  1.00  0.00     0.009 A 
ENDBRANCH  15  16
ENDBRANCH  12  15
ENDBRANCH   7  11
BRANCH   1  22
HETATM   22  C   UNL     1      25.342  43.237  49.163  1.00  0.00    -0.035 A 
HETATM   23  C   UNL     1      24.042  43.768  49.091  1.00  0.00     0.012 A 
HETATM   24  C   UNL     1      22.930  42.956  48.828  1.00  0.00     0.037 A 
HETATM   25  C   UNL     1      23.094  41.592  48.603  1.00  0.00     0.068 A 
HETATM   26  C   UNL     1      24.379  41.056  48.629  1.00  0.00     0.037 A 
HETATM   27  C   UNL     1      25.487  41.865  48.900  1.00  0.00     0.012 A 
BRANCH  25  28
HETATM   28  O   UNL     1      22.100  40.694  48.336  1.00  0.00    -0.356 OA
HETATM   29  C   UNL     1      22.137  40.051  47.067  1.00  0.00     0.210 C 
ENDBRANCH  25  28
ENDBRANCH   1  22
BRANCH   8  30
HETATM   30  C   UNL     1      25.332  47.712  50.171  1.00  0.00     0.409 C 
HETATM   31  F   UNL     1      24.250  48.259  50.771  1.00  0.00    -0.169 F 
HETATM   32  F   UNL     1      26.422  48.230  50.805  1.00  0.00    -0.169 F 
HETATM   33  F   UNL     1      25.394  48.164  48.902  1.00  0.00    -0.169 F 
ENDBRANCH   8  30
TORSDOF 6
ENDMDL
MODEL 10
REMARK VINA RESULT:      -7.8      9.993     11.992
REMARK  6 active torsions:
REMARK  status: ('A' for Active; 'I' for Inactive)
REMARK    1  A    between atoms: O_2  and  C_3 
REMARK    2  A    between atoms: C_6  and  C_7 
REMARK    3  A    between atoms: C_13  and  C_14 
REMARK       I    between atoms: C_14  and  N_15 
REMARK    4  A    between atoms: N_15  and  C_16 
REMARK    5  A    between atoms: C_16  and  C_17 
REMARK    6  A    between atoms: C_24  and  C_25 
ROOT
HETATM    1  C   UNL     1      19.668  49.171  49.953  1.00  0.00     0.118 C 
HETATM    2  N   UNL     1      18.952  48.078  49.283  1.00  0.00    -0.365 N 
HETATM    3  C   UNL     1      18.067  48.325  48.282  1.00  0.00     0.138 A 
HETATM    4  N   UNL     1      17.670  49.616  48.008  1.00  0.00    -0.240 N 
HETATM    5  N   UNL     1      16.823  49.715  46.974  1.00  0.00    -0.181 NA
HETATM    6  C   UNL     1      16.598  48.442  46.641  1.00  0.00     0.160 A 
HETATM    7  C   UNL     1      17.355  47.522  47.408  1.00  0.00     0.096 A 
HETATM    8  C   UNL     1      18.115  50.781  48.750  1.00  0.00     0.221 C 
HETATM    9  C   UNL     1      18.683  50.342  50.114  1.00  0.00     0.066 C 
HETATM   10  H   UNL     1      19.034  47.165  49.725  1.00  0.00     0.161 HD
ENDROOT
BRANCH   7  11
HETATM   11  C   UNL     1      17.333  46.081  47.252  1.00  0.00     0.257 C 
HETATM   12  N   UNL     1      17.127  45.637  45.968  1.00  0.00    -0.352 N 
HETATM   13  H   UNL     1      16.889  46.316  45.260  1.00  0.00     0.163 HD
HETATM   14  O   UNL     1      17.458  45.329  48.211  1.00  0.00    -0.267 OA
BRANCH  12  15
HETATM   15  C   UNL     1      17.052  44.232  45.645  1.00  0.00     0.161 C 
BRANCH  15  16
HETATM   16  C   UNL     1      16.409  43.972  44.304  1.00  0.00    -0.041 A 
HETATM   17  C   UNL     1      16.923  42.966  43.472  1.00  0.00     0.009 A 
HETATM   18  C   UNL     1      16.309  42.663  42.256  1.00  0.00     0.001 A 
HETATM   19  C   UNL     1      15.170  43.358  41.857  1.00  0.00     0.000 A 
HETATM   20  C   UNL     1      14.639  44.349  42.680  1.00  0.00     0.001 A 
HETATM   21  C   UNL     1      15.248  44.649  43.900  1.00  0.00     0.009 A 
ENDBRANCH  15  16
ENDBRANCH  12  15
ENDBRANCH   7  11
BRANCH   1  22
HETATM   22  C   UNL     1      20.977  49.511  49.242  1.00  0.00    -0.035 A 
HETATM   23  C   UNL     1      21.441  50.834  49.151  1.00  0.00     0.012 A 
HETATM   24  C   UNL     1      22.649  51.147  48.511  1.00  0.00     0.037 A 
HETATM   25  C   UNL     1      23.438  50.136  47.967  1.00  0.00     0.068 A 
HETATM   26  C   UNL     1      23.014  48.815  48.085  1.00  0.00     0.037 A 
HETATM   27  C   UNL     1      21.805  48.505  48.717  1.00  0.00     0.012 A 
BRANCH  25  28
HETATM   28  O   UNL     1      24.630  50.304  47.321  1.00  0.00    -0.356 OA
HETATM   29  C   UNL     1      25.804  49.922  48.028  1.00  0.00     0.210 C 
ENDBRANCH  25  28
ENDBRANCH   1  22
BRANCH   8  30
HETATM   30  C   UNL     1      17.002  51.784  48.976  1.00  0.00     0.409 C 
HETATM   31  F   UNL     1      17.314  52.704  49.917  1.00  0.00    -0.169 F 
HETATM   32  F   UNL     1      16.783  52.477  47.823  1.00  0.00    -0.169 F 
HETATM   33  F   UNL     1      15.819  51.222  49.299  1.00  0.00    -0.169 F 
ENDBRANCH   8  30
TORSDOF 6
ENDMDL
