MODEL 1
REMARK VINA RESULT:     -10.0      0.000      0.000
REMARK  3 active torsions:
REMARK  status: ('A' for Active; 'I' for Inactive)
REMARK    1  A    between atoms: C_2  and  C_3 
REMARK    2  A    between atoms: C_18  and  C_19 
REMARK    3  A    between atoms: C_22  and  O_23 
ROOT
HETATM    1  C   UNL     1      24.847  42.555  50.495  1.00  0.00     0.060 C 
HETATM    2  C   UNL     1      26.294  43.136  50.433  1.00  0.00     0.210 C 
HETATM    3  N   UNL     1      26.909  42.859  49.108  1.00  0.00     0.110 N 
HETATM    4  C   UNL     1      26.867  41.492  48.573  1.00  0.00     0.367 C 
HETATM    5  C   UNL     1      27.715  40.547  49.417  1.00  0.00     0.230 C 
HETATM    6  O   UNL     1      28.843  40.191  49.090  1.00  0.00    -0.278 OA
HETATM    7  N   UNL     1      27.138  40.239  50.645  1.00  0.00    -0.227 NA
HETATM    8  C   UNL     1      27.490  41.164  51.659  1.00  0.00     0.024 A 
HETATM    9  C   UNL     1      27.189  42.543  51.568  1.00  0.00     0.007 A 
HETATM   10  C   UNL     1      28.253  40.640  52.706  1.00  0.00     0.025 A 
HETATM   11  C   UNL     1      28.776  41.482  53.682  1.00  0.00     0.014 A 
HETATM   12  C   UNL     1      28.582  42.865  53.609  1.00  0.00    -0.025 A 
HETATM   13  C   UNL     1      27.802  43.369  52.543  1.00  0.00     0.024 A 
HETATM   14  H   UNL     1      27.888  43.151  49.158  1.00  0.00     0.318 HD
HETATM   15  H   UNL     1      26.132  40.217  50.544  1.00  0.00     0.136 HD
ENDROOT
BRANCH  12  16
HETATM   16  C   UNL     1      29.187  43.766  54.613  1.00  0.00    -0.026 A 
HETATM   17  C   UNL     1      30.379  43.415  55.276  1.00  0.00     0.015 A 
HETATM   18  C   UNL     1      30.948  44.249  56.244  1.00  0.00     0.037 A 
HETATM   19  C   UNL     1      30.329  45.452  56.556  1.00  0.00     0.065 A 
HETATM   20  C   UNL     1      29.158  45.832  55.914  1.00  0.00     0.037 A 
HETATM   21  C   UNL     1      28.591  44.994  54.950  1.00  0.00     0.015 A 
BRANCH  19  22
HETATM   22  O   UNL     1      30.845  46.295  57.495  1.00  0.00    -0.361 OA
HETATM   23  H   UNL     1      31.263  45.763  58.191  1.00  0.00     0.217 HD
ENDBRANCH  19  22
ENDBRANCH  12  16
BRANCH   2  24
HETATM   24  C   UNL     1      26.068  44.690  50.557  1.00  0.00    -0.016 A 
HETATM   25  C   UNL     1      26.744  45.592  49.701  1.00  0.00     0.010 A 
HETATM   26  C   UNL     1      26.585  46.976  49.821  1.00  0.00     0.001 A 
HETATM   27  C   UNL     1      25.756  47.499  50.806  1.00  0.00     0.000 A 
HETATM   28  C   UNL     1      25.081  46.640  51.666  1.00  0.00     0.001 A 
HETATM   29  C   UNL     1      25.234  45.254  51.543  1.00  0.00     0.010 A 
ENDBRANCH   2  24
TORSDOF 3
ENDMDL
MODEL 2
REMARK VINA RESULT:      -8.9      2.751      6.275
REMARK  3 active torsions:
REMARK  status: ('A' for Active; 'I' for Inactive)
REMARK    1  A    between atoms: C_2  and  C_3 
REMARK    2  A    between atoms: C_18  and  C_19 
REMARK    3  A    between atoms: C_22  and  O_23 
ROOT
HETATM    1  C   UNL     1      25.396  44.691  54.456  1.00  0.00     0.060 C 
HETATM    2  C   UNL     1      26.458  44.658  53.313  1.00  0.00     0.210 C 
HETATM    3  N   UNL     1      26.588  46.001  52.687  1.00  0.00     0.110 N 
HETATM    4  C   UNL     1      25.375  46.709  52.258  1.00  0.00     0.367 C 
HETATM    5  C   UNL     1      24.697  45.985  51.101  1.00  0.00     0.230 C 
HETATM    6  O   UNL     1      24.811  46.341  49.932  1.00  0.00    -0.278 OA
HETATM    7  N   UNL     1      24.051  44.815  51.488  1.00  0.00    -0.227 NA
HETATM    8  C   UNL     1      24.905  43.685  51.452  1.00  0.00     0.024 A 
HETATM    9  C   UNL     1      26.086  43.599  52.226  1.00  0.00     0.007 A 
HETATM   10  C   UNL     1      24.561  42.705  50.516  1.00  0.00     0.025 A 
HETATM   11  C   UNL     1      25.404  41.622  50.293  1.00  0.00     0.014 A 
HETATM   12  C   UNL     1      26.625  41.516  50.969  1.00  0.00    -0.025 A 
HETATM   13  C   UNL     1      26.946  42.517  51.914  1.00  0.00     0.024 A 
HETATM   14  H   UNL     1      27.202  45.901  51.875  1.00  0.00     0.318 HD
HETATM   15  H   UNL     1      23.684  44.930  52.422  1.00  0.00     0.136 HD
ENDROOT
BRANCH  12  16
HETATM   16  C   UNL     1      27.548  40.397  50.688  1.00  0.00    -0.026 A 
HETATM   17  C   UNL     1      27.336  39.540  49.590  1.00  0.00     0.015 A 
HETATM   18  C   UNL     1      28.191  38.464  49.329  1.00  0.00     0.037 A 
HETATM   19  C   UNL     1      29.275  38.237  50.166  1.00  0.00     0.065 A 
HETATM   20  C   UNL     1      29.517  39.067  51.252  1.00  0.00     0.037 A 
HETATM   21  C   UNL     1      28.658  40.139  51.511  1.00  0.00     0.015 A 
BRANCH  19  22
HETATM   22  O   UNL     1      30.132  37.198  49.953  1.00  0.00    -0.361 OA
HETATM   23  H   UNL     1      29.692  36.375  50.222  1.00  0.00     0.217 HD
ENDBRANCH  19  22
ENDBRANCH  12  16
BRANCH   2  24
HETATM   24  C   UNL     1      27.800  44.336  54.072  1.00  0.00    -0.016 A 
HETATM   25  C   UNL     1      28.390  45.288  54.937  1.00  0.00     0.010 A 
HETATM   26  C   UNL     1      29.601  45.035  55.590  1.00  0.00     0.001 A 
HETATM   27  C   UNL     1      30.261  43.829  55.389  1.00  0.00     0.000 A 
HETATM   28  C   UNL     1      29.710  42.875  54.542  1.00  0.00     0.001 A 
HETATM   29  C   UNL     1      28.496  43.124  53.893  1.00  0.00     0.010 A 
ENDBRANCH   2  24
TORSDOF 3
ENDMDL
MODEL 3
REMARK VINA RESULT:      -8.6     15.161     17.750
REMARK  3 active torsions:
REMARK  status: ('A' for Active; 'I' for Inactive)
REMARK    1  A    between atoms: C_2  and  C_3 
REMARK    2  A    between atoms: C_18  and  C_19 
REMARK    3  A    between atoms: C_22  and  O_23 
ROOT
HETATM    1  C   UNL     1      39.449  42.959  62.774  1.00  0.00     0.060 C 
HETATM    2  C   UNL     1      39.372  43.491  64.240  1.00  0.00     0.210 C 
HETATM    3  N   UNL     1      39.054  42.381  65.178  1.00  0.00     0.110 N 
HETATM    4  C   UNL     1      37.921  41.496  64.879  1.00  0.00     0.367 C 
HETATM    5  C   UNL     1      36.599  42.250  64.964  1.00  0.00     0.230 C 
HETATM    6  O   UNL     1      35.853  42.182  65.936  1.00  0.00    -0.278 OA
HETATM    7  N   UNL     1      36.390  43.117  63.895  1.00  0.00    -0.227 NA
HETATM    8  C   UNL     1      36.929  44.407  64.128  1.00  0.00     0.024 A 
HETATM    9  C   UNL     1      38.305  44.623  64.375  1.00  0.00     0.007 A 
HETATM   10  C   UNL     1      35.991  45.440  64.207  1.00  0.00     0.025 A 
HETATM   11  C   UNL     1      36.389  46.722  64.573  1.00  0.00     0.014 A 
HETATM   12  C   UNL     1      37.722  46.987  64.906  1.00  0.00    -0.025 A 
HETATM   13  C   UNL     1      38.651  45.926  64.813  1.00  0.00     0.024 A 
HETATM   14  H   UNL     1      38.899  42.796  66.100  1.00  0.00     0.318 HD
HETATM   15  H   UNL     1      36.806  42.724  63.062  1.00  0.00     0.136 HD
ENDROOT
BRANCH  12  16
HETATM   16  C   UNL     1      38.133  48.334  65.352  1.00  0.00    -0.026 A 
HETATM   17  C   UNL     1      37.300  49.110  66.181  1.00  0.00     0.015 A 
HETATM   18  C   UNL     1      37.670  50.396  66.590  1.00  0.00     0.037 A 
HETATM   19  C   UNL     1      38.888  50.918  66.176  1.00  0.00     0.065 A 
HETATM   20  C   UNL     1      39.737  50.177  65.366  1.00  0.00     0.037 A 
HETATM   21  C   UNL     1      39.361  48.894  64.957  1.00  0.00     0.015 A 
BRANCH  19  22
HETATM   22  O   UNL     1      39.288  52.168  66.546  1.00  0.00    -0.361 OA
HETATM   23  H   UNL     1      40.251  52.229  66.436  1.00  0.00     0.217 HD
ENDBRANCH  19  22
ENDBRANCH  12  16
BRANCH   2  24
HETATM   24  C   UNL     1      40.843  43.974  64.529  1.00  0.00    -0.016 A 
HETATM   25  C   UNL     1      41.485  43.654  65.749  1.00  0.00     0.010 A 
HETATM   26  C   UNL     1      42.776  44.107  66.040  1.00  0.00     0.001 A 
HETATM   27  C   UNL     1      43.458  44.900  65.125  1.00  0.00     0.000 A 
HETATM   28  C   UNL     1      42.853  45.235  63.919  1.00  0.00     0.001 A 
HETATM   29  C   UNL     1      41.564  44.778  63.624  1.00  0.00     0.010 A 
ENDBRANCH   2  24
TORSDOF 3
ENDMDL
MODEL 4
REMARK VINA RESULT:      -8.6      6.992      9.474
REMARK  3 active torsions:
REMARK  status: ('A' for Active; 'I' for Inactive)
REMARK    1  A    between atoms: C_2  and  C_3 
REMARK    2  A    between atoms: C_18  and  C_19 
REMARK    3  A    between atoms: C_22  and  O_23 
ROOT
HETATM    1  C   UNL     1      17.849  47.707  49.853  1.00  0.00     0.060 C 
HETATM    2  C   UNL     1      18.724  48.007  48.596  1.00  0.00     0.210 C 
HETATM    3  N   UNL     1      18.009  47.601  47.356  1.00  0.00     0.110 N 
HETATM    4  C   UNL     1      17.420  46.258  47.279  1.00  0.00     0.367 C 
HETATM    5  C   UNL     1      18.501  45.184  47.277  1.00  0.00     0.230 C 
HETATM    6  O   UNL     1      18.880  44.619  46.256  1.00  0.00    -0.278 OA
HETATM    7  N   UNL     1      19.102  45.007  48.520  1.00  0.00    -0.227 NA
HETATM    8  C   UNL     1      20.213  45.865  48.715  1.00  0.00     0.024 A 
HETATM    9  C   UNL     1      20.101  47.274  48.678  1.00  0.00     0.007 A 
HETATM   10  C   UNL     1      21.449  45.223  48.837  1.00  0.00     0.025 A 
HETATM   11  C   UNL     1      22.623  45.966  48.889  1.00  0.00     0.014 A 
HETATM   12  C   UNL     1      22.590  47.361  48.778  1.00  0.00    -0.025 A 
HETATM   13  C   UNL     1      21.327  47.985  48.662  1.00  0.00     0.024 A 
HETATM   14  H   UNL     1      18.664  47.707  46.577  1.00  0.00     0.318 HD
HETATM   15  H   UNL     1      18.419  45.171  49.246  1.00  0.00     0.136 HD
ENDROOT
BRANCH  12  16
HETATM   16  C   UNL     1      23.841  48.147  48.773  1.00  0.00    -0.026 A 
HETATM   17  C   UNL     1      23.919  49.382  48.100  1.00  0.00     0.015 A 
HETATM   18  C   UNL     1      25.105  50.123  48.070  1.00  0.00     0.037 A 
HETATM   19  C   UNL     1      26.230  49.635  48.722  1.00  0.00     0.065 A 
HETATM   20  C   UNL     1      26.185  48.426  49.402  1.00  0.00     0.037 A 
HETATM   21  C   UNL     1      24.998  47.687  49.426  1.00  0.00     0.015 A 
BRANCH  19  22
HETATM   22  O   UNL     1      27.408  50.321  48.715  1.00  0.00    -0.361 OA
HETATM   23  H   UNL     1      27.417  50.914  47.947  1.00  0.00     0.217 HD
ENDBRANCH  19  22
ENDBRANCH  12  16
BRANCH   2  24
HETATM   24  C   UNL     1      18.845  49.577  48.603  1.00  0.00    -0.016 A 
HETATM   25  C   UNL     1      18.892  50.295  49.822  1.00  0.00     0.010 A 
HETATM   26  C   UNL     1      18.961  51.692  49.849  1.00  0.00     0.001 A 
HETATM   27  C   UNL     1      18.974  52.411  48.660  1.00  0.00     0.000 A 
HETATM   28  C   UNL     1      18.926  51.736  47.446  1.00  0.00     0.001 A 
HETATM   29  C   UNL     1      18.863  50.338  47.417  1.00  0.00     0.010 A 
ENDBRANCH   2  24
TORSDOF 3
ENDMDL
MODEL 5
REMARK VINA RESULT:      -8.6      6.724      9.625
REMARK  3 active torsions:
REMARK  status: ('A' for Active; 'I' for Inactive)
REMARK    1  A    between atoms: C_2  and  C_3 
REMARK    2  A    between atoms: C_18  and  C_19 
REMARK    3  A    between atoms: C_22  and  O_23 
ROOT
HETATM    1  C   UNL     1      19.088  47.682  46.656  1.00  0.00     0.060 C 
HETATM    2  C   UNL     1      19.895  47.380  47.958  1.00  0.00     0.210 C 
HETATM    3  N   UNL     1      18.971  47.055  49.077  1.00  0.00     0.110 N 
HETATM    4  C   UNL     1      17.841  47.951  49.354  1.00  0.00     0.367 C 
HETATM    5  C   UNL     1      18.326  49.308  49.849  1.00  0.00     0.230 C 
HETATM    6  O   UNL     1      18.325  49.626  51.035  1.00  0.00    -0.278 OA
HETATM    7  N   UNL     1      18.888  50.091  48.845  1.00  0.00    -0.227 NA
HETATM    8  C   UNL     1      20.277  49.859  48.687  1.00  0.00     0.024 A 
HETATM    9  C   UNL     1      20.802  48.589  48.353  1.00  0.00     0.007 A 
HETATM   10  C   UNL     1      21.103  50.944  48.994  1.00  0.00     0.025 A 
HETATM   11  C   UNL     1      22.485  50.790  49.012  1.00  0.00     0.014 A 
HETATM   12  C   UNL     1      23.067  49.542  48.768  1.00  0.00    -0.025 A 
HETATM   13  C   UNL     1      22.210  48.462  48.455  1.00  0.00     0.024 A 
HETATM   14  H   UNL     1      19.535  46.982  49.927  1.00  0.00     0.318 HD
HETATM   15  H   UNL     1      18.415  49.904  47.973  1.00  0.00     0.136 HD
ENDROOT
BRANCH  12  16
HETATM   16  C   UNL     1      24.533  49.364  48.846  1.00  0.00    -0.026 A 
HETATM   17  C   UNL     1      25.096  48.302  49.580  1.00  0.00     0.015 A 
HETATM   18  C   UNL     1      26.481  48.138  49.680  1.00  0.00     0.037 A 
HETATM   19  C   UNL     1      27.322  49.038  49.038  1.00  0.00     0.065 A 
HETATM   20  C   UNL     1      26.799  50.090  48.300  1.00  0.00     0.037 A 
HETATM   21  C   UNL     1      25.414  50.252  48.206  1.00  0.00     0.015 A 
BRANCH  19  22
HETATM   22  O   UNL     1      28.678  48.920  49.111  1.00  0.00    -0.361 OA
HETATM   23  H   UNL     1      29.052  49.789  49.331  1.00  0.00     0.217 HD
ENDBRANCH  19  22
ENDBRANCH  12  16
BRANCH   2  24
HETATM   24  C   UNL     1      20.703  46.079  47.592  1.00  0.00    -0.016 A 
HETATM   25  C   UNL     1      21.105  45.168  48.597  1.00  0.00     0.010 A 
HETATM   26  C   UNL     1      21.856  44.027  48.296  1.00  0.00     0.001 A 
HETATM   27  C   UNL     1      22.236  43.770  46.984  1.00  0.00     0.000 A 
HETATM   28  C   UNL     1      21.860  44.648  45.974  1.00  0.00     0.001 A 
HETATM   29  C   UNL     1      21.103  45.786  46.273  1.00  0.00     0.010 A 
ENDBRANCH   2  24
TORSDOF 3
ENDMDL
MODEL 6
REMARK VINA RESULT:      -8.5      2.301      5.052
REMARK  3 active torsions:
REMARK  status: ('A' for Active; 'I' for Inactive)
REMARK    1  A    between atoms: C_2  and  C_3 
REMARK    2  A    between atoms: C_18  and  C_19 
REMARK    3  A    between atoms: C_22  and  O_23 
ROOT
HETATM    1  C   UNL     1      26.748  41.099  47.058  1.00  0.00     0.060 C 
HETATM    2  C   UNL     1      26.347  40.808  48.538  1.00  0.00     0.210 C 
HETATM    3  N   UNL     1      24.977  40.235  48.602  1.00  0.00     0.110 N 
HETATM    4  C   UNL     1      23.886  40.908  47.884  1.00  0.00     0.367 C 
HETATM    5  C   UNL     1      23.589  42.273  48.495  1.00  0.00     0.230 C 
HETATM    6  O   UNL     1      22.647  42.472  49.256  1.00  0.00    -0.278 OA
HETATM    7  N   UNL     1      24.561  43.227  48.209  1.00  0.00    -0.227 NA
HETATM    8  C   UNL     1      25.611  43.236  49.160  1.00  0.00     0.024 A 
HETATM    9  C   UNL     1      26.422  42.104  49.408  1.00  0.00     0.007 A 
HETATM   10  C   UNL     1      25.721  44.405  49.917  1.00  0.00     0.025 A 
HETATM   11  C   UNL     1      26.621  44.474  50.976  1.00  0.00     0.014 A 
HETATM   12  C   UNL     1      27.398  43.363  51.324  1.00  0.00    -0.025 A 
HETATM   13  C   UNL     1      27.271  42.194  50.539  1.00  0.00     0.024 A 
HETATM   14  H   UNL     1      24.717  40.173  49.589  1.00  0.00     0.318 HD
HETATM   15  H   UNL     1      24.941  43.050  47.290  1.00  0.00     0.136 HD
ENDROOT
BRANCH  12  16
HETATM   16  C   UNL     1      28.311  43.416  52.485  1.00  0.00    -0.026 A 
HETATM   17  C   UNL     1      29.492  42.649  52.514  1.00  0.00     0.015 A 
HETATM   18  C   UNL     1      30.351  42.674  53.618  1.00  0.00     0.037 A 
HETATM   19  C   UNL     1      30.037  43.476  54.707  1.00  0.00     0.065 A 
HETATM   20  C   UNL     1      28.886  44.250  54.708  1.00  0.00     0.037 A 
HETATM   21  C   UNL     1      28.028  44.219  53.604  1.00  0.00     0.015 A 
BRANCH  19  22
HETATM   22  O   UNL     1      30.843  43.528  55.806  1.00  0.00    -0.361 OA
HETATM   23  H   UNL     1      30.284  43.630  56.594  1.00  0.00     0.217 HD
ENDBRANCH  19  22
ENDBRANCH  12  16
BRANCH   2  24
HETATM   24  C   UNL     1      27.369  39.694  48.979  1.00  0.00    -0.016 A 
HETATM   25  C   UNL     1      28.756  39.849  48.748  1.00  0.00     0.010 A 
HETATM   26  C   UNL     1      29.675  38.854  49.098  1.00  0.00     0.001 A 
HETATM   27  C   UNL     1      29.232  37.672  49.679  1.00  0.00     0.000 A 
HETATM   28  C   UNL     1      27.875  37.486  49.916  1.00  0.00     0.001 A 
HETATM   29  C   UNL     1      26.956  38.483  49.571  1.00  0.00     0.010 A 
ENDBRANCH   2  24
TORSDOF 3
ENDMDL
MODEL 7
REMARK VINA RESULT:      -7.8      2.026      4.492
REMARK  3 active torsions:
REMARK  status: ('A' for Active; 'I' for Inactive)
REMARK    1  A    between atoms: C_2  and  C_3 
REMARK    2  A    between atoms: C_18  and  C_19 
REMARK    3  A    between atoms: C_22  and  O_23 
ROOT
HETATM    1  C   UNL     1      27.121  42.671  49.073  1.00  0.00     0.060 C 
HETATM    2  C   UNL     1      26.785  42.239  50.535  1.00  0.00     0.210 C 
HETATM    3  N   UNL     1      25.392  41.724  50.616  1.00  0.00     0.110 N 
HETATM    4  C   UNL     1      24.301  42.519  50.037  1.00  0.00     0.367 C 
HETATM    5  C   UNL     1      24.105  43.822  50.804  1.00  0.00     0.230 C 
HETATM    6  O   UNL     1      23.216  43.980  51.635  1.00  0.00    -0.278 OA
HETATM    7  N   UNL     1      25.108  44.757  50.565  1.00  0.00    -0.227 NA
HETATM    8  C   UNL     1      26.206  44.616  51.450  1.00  0.00     0.024 A 
HETATM    9  C   UNL     1      26.970  43.429  51.531  1.00  0.00     0.007 A 
HETATM   10  C   UNL     1      26.414  45.691  52.319  1.00  0.00     0.025 A 
HETATM   11  C   UNL     1      27.370  45.604  53.325  1.00  0.00     0.014 A 
HETATM   12  C   UNL     1      28.107  44.429  53.510  1.00  0.00    -0.025 A 
HETATM   13  C   UNL     1      27.881  43.359  52.614  1.00  0.00     0.024 A 
HETATM   14  H   UNL     1      25.181  41.568  51.605  1.00  0.00     0.318 HD
HETATM   15  H   UNL     1      25.430  44.663  49.612  1.00  0.00     0.136 HD
ENDROOT
BRANCH  12  16
HETATM   16  C   UNL     1      29.081  44.315  54.616  1.00  0.00    -0.026 A 
HETATM   17  C   UNL     1      29.228  45.349  55.561  1.00  0.00     0.015 A 
HETATM   18  C   UNL     1      30.163  45.261  56.598  1.00  0.00     0.037 A 
HETATM   19  C   UNL     1      30.960  44.129  56.703  1.00  0.00     0.065 A 
HETATM   20  C   UNL     1      30.834  43.088  55.794  1.00  0.00     0.037 A 
HETATM   21  C   UNL     1      29.901  43.182  54.756  1.00  0.00     0.015 A 
BRANCH  19  22
HETATM   22  O   UNL     1      31.887  44.001  57.694  1.00  0.00    -0.361 OA
HETATM   23  H   UNL     1      32.536  43.331  57.427  1.00  0.00     0.217 HD
ENDBRANCH  19  22
ENDBRANCH  12  16
BRANCH   2  24
HETATM   24  C   UNL     1      27.770  41.039  50.797  1.00  0.00    -0.016 A 
HETATM   25  C   UNL     1      28.055  40.099  49.778  1.00  0.00     0.010 A 
HETATM   26  C   UNL     1      28.897  39.005  50.003  1.00  0.00     0.001 A 
HETATM   27  C   UNL     1      29.470  38.814  51.255  1.00  0.00     0.000 A 
HETATM   28  C   UNL     1      29.207  39.718  52.278  1.00  0.00     0.001 A 
HETATM   29  C   UNL     1      28.370  40.816  52.052  1.00  0.00     0.010 A 
ENDBRANCH   2  24
TORSDOF 3
ENDMDL
MODEL 8
REMARK VINA RESULT:      -7.7     15.521     18.153
REMARK  3 active torsions:
REMARK  status: ('A' for Active; 'I' for Inactive)
REMARK    1  A    between atoms: C_2  and  C_3 
REMARK    2  A    between atoms: C_18  and  C_19 
REMARK    3  A    between atoms: C_22  and  O_23 
ROOT
HETATM    1  C   UNL     1      39.108  47.493  67.011  1.00  0.00     0.060 C 
HETATM    2  C   UNL     1      39.437  47.009  65.564  1.00  0.00     0.210 C 
HETATM    3  N   UNL     1      39.328  48.138  64.602  1.00  0.00     0.110 N 
HETATM    4  C   UNL     1      38.120  48.974  64.615  1.00  0.00     0.367 C 
HETATM    5  C   UNL     1      36.898  48.179  64.171  1.00  0.00     0.230 C 
HETATM    6  O   UNL     1      36.428  48.254  63.039  1.00  0.00    -0.278 OA
HETATM    7  N   UNL     1      36.455  47.270  65.127  1.00  0.00    -0.227 NA
HETATM    8  C   UNL     1      37.089  46.008  65.013  1.00  0.00     0.024 A 
HETATM    9  C   UNL     1      38.489  45.846  65.129  1.00  0.00     0.007 A 
HETATM   10  C   UNL     1      36.247  44.947  64.668  1.00  0.00     0.025 A 
HETATM   11  C   UNL     1      36.779  43.692  64.390  1.00  0.00     0.014 A 
HETATM   12  C   UNL     1      38.162  43.483  64.409  1.00  0.00    -0.025 A 
HETATM   13  C   UNL     1      38.990  44.571  64.766  1.00  0.00     0.024 A 
HETATM   14  H   UNL     1      39.435  47.749  63.661  1.00  0.00     0.318 HD
HETATM   15  H   UNL     1      36.623  47.649  66.049  1.00  0.00     0.136 HD
ENDROOT
BRANCH  12  16
HETATM   16  C   UNL     1      38.731  42.166  64.055  1.00  0.00    -0.026 A 
HETATM   17  C   UNL     1      39.325  41.346  65.033  1.00  0.00     0.015 A 
HETATM   18  C   UNL     1      39.887  40.108  64.705  1.00  0.00     0.037 A 
HETATM   19  C   UNL     1      39.854  39.673  63.387  1.00  0.00     0.065 A 
HETATM   20  C   UNL     1      39.268  40.452  62.399  1.00  0.00     0.037 A 
HETATM   21  C   UNL     1      38.711  41.691  62.732  1.00  0.00     0.015 A 
BRANCH  19  22
HETATM   22  O   UNL     1      40.393  38.476  63.019  1.00  0.00    -0.361 OA
HETATM   23  H   UNL     1      39.823  37.764  63.353  1.00  0.00     0.217 HD
ENDBRANCH  19  22
ENDBRANCH  12  16
BRANCH   2  24
HETATM   24  C   UNL     1      40.951  46.586  65.657  1.00  0.00    -0.016 A 
HETATM   25  C   UNL     1      41.492  46.088  66.867  1.00  0.00     0.010 A 
HETATM   26  C   UNL     1      42.842  45.743  66.980  1.00  0.00     0.001 A 
HETATM   27  C   UNL     1      43.693  45.895  65.892  1.00  0.00     0.000 A 
HETATM   28  C   UNL     1      43.194  46.385  64.690  1.00  0.00     0.001 A 
HETATM   29  C   UNL     1      41.841  46.725  64.574  1.00  0.00     0.010 A 
ENDBRANCH   2  24
TORSDOF 3
ENDMDL
MODEL 9
REMARK VINA RESULT:      -7.7      8.507     11.721
REMARK  3 active torsions:
REMARK  status: ('A' for Active; 'I' for Inactive)
REMARK    1  A    between atoms: C_2  and  C_3 
REMARK    2  A    between atoms: C_18  and  C_19 
REMARK    3  A    between atoms: C_22  and  O_23 
ROOT
HETATM    1  C   UNL     1      17.156  49.407  45.658  1.00  0.00     0.060 C 
HETATM    2  C   UNL     1      17.670  48.967  47.065  1.00  0.00     0.210 C 
HETATM    3  N   UNL     1      16.549  48.936  48.041  1.00  0.00     0.110 N 
HETATM    4  C   UNL     1      15.660  50.100  48.146  1.00  0.00     0.367 C 
HETATM    5  C   UNL     1      16.404  51.310  48.697  1.00  0.00     0.230 C 
HETATM    6  O   UNL     1      16.321  51.669  49.868  1.00  0.00    -0.278 OA
HETATM    7  N   UNL     1      17.282  51.881  47.779  1.00  0.00    -0.227 NA
HETATM    8  C   UNL     1      18.572  51.297  47.825  1.00  0.00     0.024 A 
HETATM    9  C   UNL     1      18.794  49.923  47.579  1.00  0.00     0.007 A 
HETATM   10  C   UNL     1      19.599  52.150  48.240  1.00  0.00     0.025 A 
HETATM   11  C   UNL     1      20.879  51.652  48.459  1.00  0.00     0.014 A 
HETATM   12  C   UNL     1      21.149  50.288  48.310  1.00  0.00    -0.025 A 
HETATM   13  C   UNL     1      20.094  49.448  47.884  1.00  0.00     0.024 A 
HETATM   14  H   UNL     1      16.952  48.759  48.964  1.00  0.00     0.318 HD
HETATM   15  H   UNL     1      16.901  51.782  46.849  1.00  0.00     0.136 HD
ENDROOT
BRANCH  12  16
HETATM   16  C   UNL     1      22.494  49.748  48.600  1.00  0.00    -0.026 A 
HETATM   17  C   UNL     1      23.654  50.444  48.209  1.00  0.00     0.015 A 
HETATM   18  C   UNL     1      24.931  49.932  48.458  1.00  0.00     0.037 A 
HETATM   19  C   UNL     1      25.061  48.713  49.111  1.00  0.00     0.065 A 
HETATM   20  C   UNL     1      23.938  48.006  49.518  1.00  0.00     0.037 A 
HETATM   21  C   UNL     1      22.663  48.520  49.264  1.00  0.00     0.015 A 
BRANCH  19  22
HETATM   22  O   UNL     1      26.285  48.173  49.372  1.00  0.00    -0.361 OA
HETATM   23  H   UNL     1      26.585  48.491  50.239  1.00  0.00     0.217 HD
ENDBRANCH  19  22
ENDBRANCH  12  16
BRANCH   2  24
HETATM   24  C   UNL     1      18.159  47.489  46.827  1.00  0.00    -0.016 A 
HETATM   25  C   UNL     1      18.078  46.524  47.859  1.00  0.00     0.010 A 
HETATM   26  C   UNL     1      18.543  45.217  47.680  1.00  0.00     0.001 A 
HETATM   27  C   UNL     1      19.111  44.841  46.469  1.00  0.00     0.000 A 
HETATM   28  C   UNL     1      19.209  45.767  45.437  1.00  0.00     0.001 A 
HETATM   29  C   UNL     1      18.739  47.073  45.613  1.00  0.00     0.010 A 
ENDBRANCH   2  24
TORSDOF 3
ENDMDL
MODEL 10
REMARK VINA RESULT:      -7.3      3.018      6.654
REMARK  3 active torsions:
REMARK  status: ('A' for Active; 'I' for Inactive)
REMARK    1  A    between atoms: C_2  and  C_3 
REMARK    2  A    between atoms: C_18  and  C_19 
REMARK    3  A    between atoms: C_22  and  O_23 
ROOT
HETATM    1  C   UNL     1      26.892  42.451  54.454  1.00  0.00     0.060 C 
HETATM    2  C   UNL     1      27.698  43.281  53.407  1.00  0.00     0.210 C 
HETATM    3  N   UNL     1      29.158  43.152  53.656  1.00  0.00     0.110 N 
HETATM    4  C   UNL     1      29.674  43.373  55.013  1.00  0.00     0.367 C 
HETATM    5  C   UNL     1      29.501  44.827  55.436  1.00  0.00     0.230 C 
HETATM    6  O   UNL     1      30.416  45.644  55.408  1.00  0.00    -0.278 OA
HETATM    7  N   UNL     1      28.182  45.162  55.726  1.00  0.00    -0.227 NA
HETATM    8  C   UNL     1      27.467  45.601  54.584  1.00  0.00     0.024 A 
HETATM    9  C   UNL     1      27.285  44.787  53.442  1.00  0.00     0.007 A 
HETATM   10  C   UNL     1      27.050  46.935  54.617  1.00  0.00     0.025 A 
HETATM   11  C   UNL     1      26.467  47.515  53.496  1.00  0.00     0.014 A 
HETATM   12  C   UNL     1      26.327  46.789  52.308  1.00  0.00    -0.025 A 
HETATM   13  C   UNL     1      26.752  45.441  52.303  1.00  0.00     0.024 A 
HETATM   14  H   UNL     1      29.634  43.802  53.025  1.00  0.00     0.318 HD
HETATM   15  H   UNL     1      27.715  44.360  56.127  1.00  0.00     0.136 HD
ENDROOT
BRANCH  12  16
HETATM   16  C   UNL     1      25.763  47.424  51.099  1.00  0.00    -0.026 A 
HETATM   17  C   UNL     1      26.572  48.189  50.236  1.00  0.00     0.015 A 
HETATM   18  C   UNL     1      26.042  48.813  49.101  1.00  0.00     0.037 A 
HETATM   19  C   UNL     1      24.692  48.671  48.814  1.00  0.00     0.065 A 
HETATM   20  C   UNL     1      23.868  47.916  49.637  1.00  0.00     0.037 A 
HETATM   21  C   UNL     1      24.401  47.297  50.773  1.00  0.00     0.015 A 
BRANCH  19  22
HETATM   22  O   UNL     1      24.131  49.263  47.721  1.00  0.00    -0.361 OA
HETATM   23  H   UNL     1      24.746  49.936  47.385  1.00  0.00     0.217 HD
ENDBRANCH  19  22
ENDBRANCH  12  16
BRANCH   2  24
HETATM   24  C   UNL     1      27.365  42.569  52.043  1.00  0.00    -0.016 A 
HETATM   25  C   UNL     1      26.086  42.696  51.451  1.00  0.00     0.010 A 
HETATM   26  C   UNL     1      25.760  42.040  50.260  1.00  0.00     0.001 A 
HETATM   27  C   UNL     1      26.698  41.229  49.632  1.00  0.00     0.000 A 
HETATM   28  C   UNL     1      27.963  41.080  50.190  1.00  0.00     0.001 A 
HETATM   29  C   UNL     1      28.293  41.741  51.379  1.00  0.00     0.010 A 
ENDBRANCH   2  24
TORSDOF 3
ENDMDL
