MODEL 1
REMARK VINA RESULT:      -8.3      0.000      0.000
REMARK  7 active torsions:
REMARK  status: ('A' for Active; 'I' for Inactive)
REMARK    1  A    between atoms: S_2  and  C_3 
REMARK    2  A    between atoms: C_3  and  C_4 
REMARK    3  A    between atoms: C_4  and  C_5 
REMARK    4  A    between atoms: C_5  and  N_6 
REMARK    5  A    between atoms: C_5  and  C_10 
REMARK       I    between atoms: N_6  and  C_7 
REMARK       I    between atoms: C_7  and  N_8 
REMARK       I    between atoms: C_10  and  N_11 
REMARK    6  A    between atoms: N_11  and  N_12 
REMARK       I    between atoms: N_12  and  C_13 
REMARK    7  A    between atoms: C_13  and  C_14 
ROOT
HETATM    1  C   UNL     1      24.215  48.045  49.513  1.00  0.00     0.259 C 
HETATM    2  N   UNL     1      24.057  46.897  50.258  1.00  0.00    -0.265 N 
HETATM    3  O   UNL     1      25.251  48.714  49.545  1.00  0.00    -0.269 OA
HETATM    4  H   UNL     1      23.269  46.253  50.143  1.00  0.00     0.190 HD
ENDROOT
BRANCH   2   5
HETATM    5  N   UNL     1      25.126  46.468  51.048  1.00  0.00    -0.263 N 
HETATM    6  C   UNL     1      25.046  45.262  51.726  1.00  0.00     0.278 C 
HETATM    7  O   UNL     1      24.029  44.573  51.634  1.00  0.00    -0.265 OA
HETATM    8  H   UNL     1      25.983  47.017  51.009  1.00  0.00     0.190 HD
BRANCH   6   9
HETATM    9  C   UNL     1      26.214  44.905  52.523  1.00  0.00     0.097 A 
HETATM   10  S   UNL     1      27.167  43.538  52.120  1.00  0.00    -0.082 SA
HETATM   11  C   UNL     1      28.286  43.815  53.390  1.00  0.00     0.017 A 
HETATM   12  C   UNL     1      27.935  44.938  54.144  1.00  0.00     0.004 A 
HETATM   13  C   UNL     1      29.430  43.049  53.687  1.00  0.00     0.020 A 
HETATM   14  C   UNL     1      26.732  45.549  53.632  1.00  0.00     0.068 A 
HETATM   15  C   UNL     1      28.776  45.285  55.233  1.00  0.00     0.014 A 
HETATM   16 CL   UNL     1      26.066  46.954  54.374  1.00  0.00    -0.082 Cl
HETATM   17  C   UNL     1      29.915  44.530  55.531  1.00  0.00     0.001 A 
HETATM   18  C   UNL     1      30.237  43.422  54.763  1.00  0.00     0.001 A 
ENDBRANCH   6   9
ENDBRANCH   2   5
BRANCH   1  19
HETATM   19  C   UNL     1      23.011  48.414  48.631  1.00  0.00     0.180 C 
BRANCH  19  20
HETATM   20  C   UNL     1      22.926  49.924  48.357  1.00  0.00     0.045 C 
BRANCH  20  21
HETATM   21  C   UNL     1      22.119  50.766  49.348  1.00  0.00     0.076 C 
BRANCH  21  22
HETATM   22  S   UNL     1      20.550  51.370  48.651  1.00  0.00    -0.173 SA
HETATM   23  C   UNL     1      19.448  50.911  50.012  1.00  0.00     0.089 C 
ENDBRANCH  21  22
ENDBRANCH  20  21
ENDBRANCH  19  20
BRANCH  19  24
HETATM   24  N   UNL     1      21.825  47.954  49.355  1.00  0.00    -0.330 N 
HETATM   25  C   UNL     1      20.715  47.497  48.726  1.00  0.00     0.314 C 
HETATM   26  N   UNL     1      19.738  47.134  49.592  1.00  0.00    -0.352 N 
HETATM   27  O   UNL     1      20.571  47.408  47.517  1.00  0.00    -0.248 OA
HETATM   28  H   UNL     1      20.030  46.709  50.460  1.00  0.00     0.160 HD
HETATM   29  H   UNL     1      18.956  46.676  49.139  1.00  0.00     0.160 HD
HETATM   30  H   UNL     1      21.768  48.178  50.341  1.00  0.00     0.165 HD
ENDBRANCH  19  24
ENDBRANCH   1  19
TORSDOF 7
ENDMDL
MODEL 2
REMARK VINA RESULT:      -8.0      3.286      4.483
REMARK  7 active torsions:
REMARK  status: ('A' for Active; 'I' for Inactive)
REMARK    1  A    between atoms: S_2  and  C_3 
REMARK    2  A    between atoms: C_3  and  C_4 
REMARK    3  A    between atoms: C_4  and  C_5 
REMARK    4  A    between atoms: C_5  and  N_6 
REMARK    5  A    between atoms: C_5  and  C_10 
REMARK       I    between atoms: N_6  and  C_7 
REMARK       I    between atoms: C_7  and  N_8 
REMARK       I    between atoms: C_10  and  N_11 
REMARK    6  A    between atoms: N_11  and  N_12 
REMARK       I    between atoms: N_12  and  C_13 
REMARK    7  A    between atoms: C_13  and  C_14 
ROOT
HETATM    1  C   UNL     1      25.472  46.786  51.303  1.00  0.00     0.259 C 
HETATM    2  N   UNL     1      25.478  45.640  52.069  1.00  0.00    -0.265 N 
HETATM    3  O   UNL     1      26.244  47.724  51.513  1.00  0.00    -0.269 OA
HETATM    4  H   UNL     1      24.949  44.798  51.829  1.00  0.00     0.190 HD
ENDROOT
BRANCH   2   5
HETATM    5  N   UNL     1      26.419  45.537  53.097  1.00  0.00    -0.263 N 
HETATM    6  C   UNL     1      27.518  44.706  52.948  1.00  0.00     0.278 C 
HETATM    7  O   UNL     1      27.659  44.055  51.912  1.00  0.00    -0.265 OA
HETATM    8  H   UNL     1      26.317  46.172  53.886  1.00  0.00     0.190 HD
BRANCH   6   9
HETATM    9  C   UNL     1      28.440  44.668  54.078  1.00  0.00     0.097 A 
HETATM   10  S   UNL     1      28.327  45.822  55.341  1.00  0.00    -0.082 SA
HETATM   11  C   UNL     1      29.610  45.119  56.237  1.00  0.00     0.017 A 
HETATM   12  C   UNL     1      30.148  44.013  55.575  1.00  0.00     0.004 A 
HETATM   13  C   UNL     1      30.102  45.552  57.483  1.00  0.00     0.020 A 
HETATM   14  C   UNL     1      29.464  43.773  54.327  1.00  0.00     0.068 A 
HETATM   15  C   UNL     1      31.223  43.332  56.205  1.00  0.00     0.014 A 
HETATM   16 CL   UNL     1      29.924  42.470  53.299  1.00  0.00    -0.082 Cl
HETATM   17  C   UNL     1      31.714  43.755  57.443  1.00  0.00     0.001 A 
HETATM   18  C   UNL     1      31.157  44.856  58.075  1.00  0.00     0.001 A 
ENDBRANCH   6   9
ENDBRANCH   2   5
BRANCH   1  19
HETATM   19  C   UNL     1      24.442  46.793  50.161  1.00  0.00     0.180 C 
BRANCH  19  20
HETATM   20  C   UNL     1      24.381  45.450  49.418  1.00  0.00     0.045 C 
BRANCH  20  21
HETATM   21  C   UNL     1      23.031  44.730  49.393  1.00  0.00     0.076 C 
BRANCH  21  22
HETATM   22  S   UNL     1      23.122  43.030  50.039  1.00  0.00    -0.173 SA
HETATM   23  C   UNL     1      23.083  42.134  48.467  1.00  0.00     0.089 C 
ENDBRANCH  21  22
ENDBRANCH  20  21
ENDBRANCH  19  20
BRANCH  19  24
HETATM   24  N   UNL     1      24.851  47.867  49.256  1.00  0.00    -0.330 N 
HETATM   25  C   UNL     1      24.152  49.020  49.123  1.00  0.00     0.314 C 
HETATM   26  N   UNL     1      24.709  49.866  48.222  1.00  0.00    -0.352 N 
HETATM   27  O   UNL     1      23.131  49.304  49.729  1.00  0.00    -0.248 OA
HETATM   28  H   UNL     1      25.717  49.885  48.175  1.00  0.00     0.160 HD
HETATM   29  H   UNL     1      24.267  50.777  48.209  1.00  0.00     0.160 HD
HETATM   30  H   UNL     1      25.560  47.646  48.566  1.00  0.00     0.165 HD
ENDBRANCH  19  24
ENDBRANCH   1  19
TORSDOF 7
ENDMDL
MODEL 3
REMARK VINA RESULT:      -7.8      5.193      6.975
REMARK  7 active torsions:
REMARK  status: ('A' for Active; 'I' for Inactive)
REMARK    1  A    between atoms: S_2  and  C_3 
REMARK    2  A    between atoms: C_3  and  C_4 
REMARK    3  A    between atoms: C_4  and  C_5 
REMARK    4  A    between atoms: C_5  and  N_6 
REMARK    5  A    between atoms: C_5  and  C_10 
REMARK       I    between atoms: N_6  and  C_7 
REMARK       I    between atoms: C_7  and  N_8 
REMARK       I    between atoms: C_10  and  N_11 
REMARK    6  A    between atoms: N_11  and  N_12 
REMARK       I    between atoms: N_12  and  C_13 
REMARK    7  A    between atoms: C_13  and  C_14 
ROOT
HETATM    1  C   UNL     1      27.181  41.213  50.837  1.00  0.00     0.259 C 
HETATM    2  N   UNL     1      26.470  41.950  51.759  1.00  0.00    -0.265 N 
HETATM    3  O   UNL     1      28.398  41.034  50.934  1.00  0.00    -0.269 OA
HETATM    4  H   UNL     1      25.447  41.995  51.778  1.00  0.00     0.190 HD
ENDROOT
BRANCH   2   5
HETATM    5  N   UNL     1      27.156  42.482  52.853  1.00  0.00    -0.263 N 
HETATM    6  C   UNL     1      27.552  43.810  52.844  1.00  0.00     0.278 C 
HETATM    7  O   UNL     1      27.302  44.518  51.867  1.00  0.00    -0.265 OA
HETATM    8  H   UNL     1      27.246  41.891  53.678  1.00  0.00     0.190 HD
BRANCH   6   9
HETATM    9  C   UNL     1      28.262  44.267  54.033  1.00  0.00     0.097 A 
HETATM   10  S   UNL     1      27.591  45.480  55.043  1.00  0.00    -0.082 SA
HETATM   11  C   UNL     1      28.893  45.415  56.158  1.00  0.00     0.017 A 
HETATM   12  C   UNL     1      29.858  44.486  55.763  1.00  0.00     0.004 A 
HETATM   13  C   UNL     1      29.029  46.173  57.338  1.00  0.00     0.020 A 
HETATM   14  C   UNL     1      29.479  43.839  54.530  1.00  0.00     0.068 A 
HETATM   15  C   UNL     1      30.996  44.329  56.596  1.00  0.00     0.014 A 
HETATM   16 CL   UNL     1      30.489  42.646  53.807  1.00  0.00    -0.082 Cl
HETATM   17  C   UNL     1      31.136  45.076  57.770  1.00  0.00     0.001 A 
HETATM   18  C   UNL     1      30.159  45.989  58.136  1.00  0.00     0.001 A 
ENDBRANCH   6   9
ENDBRANCH   2   5
BRANCH   1  19
HETATM   19  C   UNL     1      26.339  40.621  49.695  1.00  0.00     0.180 C 
BRANCH  19  20
HETATM   20  C   UNL     1      24.998  41.350  49.517  1.00  0.00     0.045 C 
BRANCH  20  21
HETATM   21  C   UNL     1      24.948  42.467  48.472  1.00  0.00     0.076 C 
BRANCH  21  22
HETATM   22  S   UNL     1      24.566  44.095  49.191  1.00  0.00    -0.173 SA
HETATM   23  C   UNL     1      23.037  43.662  50.057  1.00  0.00     0.089 C 
ENDBRANCH  21  22
ENDBRANCH  20  21
ENDBRANCH  19  20
BRANCH  19  24
HETATM   24  N   UNL     1      26.121  39.216  50.041  1.00  0.00    -0.330 N 
HETATM   25  C   UNL     1      26.890  38.213  49.551  1.00  0.00     0.314 C 
HETATM   26  N   UNL     1      26.502  36.993  49.997  1.00  0.00    -0.352 N 
HETATM   27  O   UNL     1      27.836  38.351  48.792  1.00  0.00    -0.248 OA
HETATM   28  H   UNL     1      26.157  36.941  50.945  1.00  0.00     0.160 HD
HETATM   29  H   UNL     1      27.144  36.254  49.739  1.00  0.00     0.160 HD
HETATM   30  H   UNL     1      25.247  38.981  50.494  1.00  0.00     0.165 HD
ENDBRANCH  19  24
ENDBRANCH   1  19
TORSDOF 7
ENDMDL
MODEL 4
REMARK VINA RESULT:      -7.8      6.176      9.188
REMARK  7 active torsions:
REMARK  status: ('A' for Active; 'I' for Inactive)
REMARK    1  A    between atoms: S_2  and  C_3 
REMARK    2  A    between atoms: C_3  and  C_4 
REMARK    3  A    between atoms: C_4  and  C_5 
REMARK    4  A    between atoms: C_5  and  N_6 
REMARK    5  A    between atoms: C_5  and  C_10 
REMARK       I    between atoms: N_6  and  C_7 
REMARK       I    between atoms: C_7  and  N_8 
REMARK       I    between atoms: C_10  and  N_11 
REMARK    6  A    between atoms: N_11  and  N_12 
REMARK       I    between atoms: N_12  and  C_13 
REMARK    7  A    between atoms: C_13  and  C_14 
ROOT
HETATM    1  C   UNL     1      28.137  39.894  49.602  1.00  0.00     0.259 C 
HETATM    2  N   UNL     1      28.733  40.231  50.798  1.00  0.00    -0.265 N 
HETATM    3  O   UNL     1      27.360  40.653  49.015  1.00  0.00    -0.269 OA
HETATM    4  H   UNL     1      29.482  39.683  51.229  1.00  0.00     0.190 HD
ENDROOT
BRANCH   2   5
HETATM    5  N   UNL     1      28.466  41.492  51.338  1.00  0.00    -0.263 N 
HETATM    6  C   UNL     1      28.361  41.648  52.711  1.00  0.00     0.278 C 
HETATM    7  O   UNL     1      28.496  40.673  53.452  1.00  0.00    -0.265 OA
HETATM    8  H   UNL     1      28.468  42.283  50.697  1.00  0.00     0.190 HD
BRANCH   6   9
HETATM    9  C   UNL     1      28.080  43.002  53.174  1.00  0.00     0.097 A 
HETATM   10  S   UNL     1      26.663  43.825  52.670  1.00  0.00    -0.082 SA
HETATM   11  C   UNL     1      27.008  45.212  53.619  1.00  0.00     0.017 A 
HETATM   12  C   UNL     1      28.212  45.070  54.311  1.00  0.00     0.004 A 
HETATM   13  C   UNL     1      26.219  46.375  53.728  1.00  0.00     0.020 A 
HETATM   14  C   UNL     1      28.820  43.791  54.036  1.00  0.00     0.068 A 
HETATM   15  C   UNL     1      28.624  46.149  55.137  1.00  0.00     0.014 A 
HETATM   16 CL   UNL     1      30.320  43.347  54.757  1.00  0.00    -0.082 Cl
HETATM   17  C   UNL     1      27.845  47.304  55.253  1.00  0.00     0.001 A 
HETATM   18  C   UNL     1      26.653  47.414  54.553  1.00  0.00     0.001 A 
ENDBRANCH   6   9
ENDBRANCH   2   5
BRANCH   1  19
HETATM   19  C   UNL     1      28.527  38.513  49.052  1.00  0.00     0.180 C 
BRANCH  19  20
HETATM   20  C   UNL     1      27.492  37.965  48.057  1.00  0.00     0.045 C 
BRANCH  20  21
HETATM   21  C   UNL     1      27.957  37.760  46.613  1.00  0.00     0.076 C 
BRANCH  21  22
HETATM   22  S   UNL     1      27.841  39.274  45.610  1.00  0.00    -0.173 SA
HETATM   23  C   UNL     1      26.045  39.327  45.395  1.00  0.00     0.089 C 
ENDBRANCH  21  22
ENDBRANCH  20  21
ENDBRANCH  19  20
BRANCH  19  24
HETATM   24  N   UNL     1      28.640  37.633  50.216  1.00  0.00    -0.330 N 
HETATM   25  C   UNL     1      29.824  37.369  50.822  1.00  0.00     0.314 C 
HETATM   26  N   UNL     1      29.694  36.522  51.872  1.00  0.00    -0.352 N 
HETATM   27  O   UNL     1      30.907  37.824  50.490  1.00  0.00    -0.248 OA
HETATM   28  H   UNL     1      28.856  36.609  52.429  1.00  0.00     0.160 HD
HETATM   29  H   UNL     1      30.548  36.419  52.406  1.00  0.00     0.160 HD
HETATM   30  H   UNL     1      27.841  37.053  50.438  1.00  0.00     0.165 HD
ENDBRANCH  19  24
ENDBRANCH   1  19
TORSDOF 7
ENDMDL
MODEL 5
REMARK VINA RESULT:      -7.7      1.927      2.458
REMARK  7 active torsions:
REMARK  status: ('A' for Active; 'I' for Inactive)
REMARK    1  A    between atoms: S_2  and  C_3 
REMARK    2  A    between atoms: C_3  and  C_4 
REMARK    3  A    between atoms: C_4  and  C_5 
REMARK    4  A    between atoms: C_5  and  N_6 
REMARK    5  A    between atoms: C_5  and  C_10 
REMARK       I    between atoms: N_6  and  C_7 
REMARK       I    between atoms: C_7  and  N_8 
REMARK       I    between atoms: C_10  and  N_11 
REMARK    6  A    between atoms: N_11  and  N_12 
REMARK       I    between atoms: N_12  and  C_13 
REMARK    7  A    between atoms: C_13  and  C_14 
ROOT
HETATM    1  C   UNL     1      24.676  47.271  50.133  1.00  0.00     0.259 C 
HETATM    2  N   UNL     1      24.513  46.960  51.465  1.00  0.00    -0.265 N 
HETATM    3  O   UNL     1      25.772  47.206  49.570  1.00  0.00    -0.269 OA
HETATM    4  H   UNL     1      23.599  46.872  51.917  1.00  0.00     0.190 HD
ENDROOT
BRANCH   2   5
HETATM    5  N   UNL     1      25.630  46.527  52.185  1.00  0.00    -0.263 N 
HETATM    6  C   UNL     1      25.594  45.314  52.854  1.00  0.00     0.278 C 
HETATM    7  O   UNL     1      24.575  44.623  52.817  1.00  0.00    -0.265 OA
HETATM    8  H   UNL     1      26.481  47.078  52.099  1.00  0.00     0.190 HD
BRANCH   6   9
HETATM    9  C   UNL     1      26.809  44.952  53.575  1.00  0.00     0.097 A 
HETATM   10  S   UNL     1      27.574  43.442  53.303  1.00  0.00    -0.082 SA
HETATM   11  C   UNL     1      28.856  43.779  54.391  1.00  0.00     0.017 A 
HETATM   12  C   UNL     1      28.704  45.034  54.985  1.00  0.00     0.004 A 
HETATM   13  C   UNL     1      29.949  42.943  54.689  1.00  0.00     0.020 A 
HETATM   14  C   UNL     1      27.512  45.693  54.507  1.00  0.00     0.068 A 
HETATM   15  C   UNL     1      29.697  45.445  55.913  1.00  0.00     0.014 A 
HETATM   16 CL   UNL     1      27.074  47.258  55.076  1.00  0.00    -0.082 Cl
HETATM   17  C   UNL     1      30.786  44.620  56.211  1.00  0.00     0.001 A 
HETATM   18  C   UNL     1      30.910  43.380  55.603  1.00  0.00     0.001 A 
ENDBRANCH   6   9
ENDBRANCH   2   5
BRANCH   1  19
HETATM   19  C   UNL     1      23.388  47.687  49.404  1.00  0.00     0.180 C 
BRANCH  19  20
HETATM   20  C   UNL     1      22.809  46.553  48.544  1.00  0.00     0.045 C 
BRANCH  20  21
HETATM   21  C   UNL     1      21.609  46.896  47.658  1.00  0.00     0.076 C 
BRANCH  21  22
HETATM   22  S   UNL     1      20.254  47.693  48.576  1.00  0.00    -0.173 SA
HETATM   23  C   UNL     1      19.903  49.048  47.428  1.00  0.00     0.089 C 
ENDBRANCH  21  22
ENDBRANCH  20  21
ENDBRANCH  19  20
BRANCH  19  24
HETATM   24  N   UNL     1      23.748  48.835  48.571  1.00  0.00    -0.330 N 
HETATM   25  C   UNL     1      23.372  50.103  48.868  1.00  0.00     0.314 C 
HETATM   26  N   UNL     1      23.808  51.003  47.954  1.00  0.00    -0.352 N 
HETATM   27  O   UNL     1      22.714  50.437  49.841  1.00  0.00    -0.248 OA
HETATM   28  H   UNL     1      24.714  50.835  47.542  1.00  0.00     0.160 HD
HETATM   29  H   UNL     1      23.641  51.963  48.231  1.00  0.00     0.160 HD
HETATM   30  H   UNL     1      24.112  48.640  47.646  1.00  0.00     0.165 HD
ENDBRANCH  19  24
ENDBRANCH   1  19
TORSDOF 7
ENDMDL
MODEL 6
REMARK VINA RESULT:      -7.5      3.580      9.558
REMARK  7 active torsions:
REMARK  status: ('A' for Active; 'I' for Inactive)
REMARK    1  A    between atoms: S_2  and  C_3 
REMARK    2  A    between atoms: C_3  and  C_4 
REMARK    3  A    between atoms: C_4  and  C_5 
REMARK    4  A    between atoms: C_5  and  N_6 
REMARK    5  A    between atoms: C_5  and  C_10 
REMARK       I    between atoms: N_6  and  C_7 
REMARK       I    between atoms: C_7  and  N_8 
REMARK       I    between atoms: C_10  and  N_11 
REMARK    6  A    between atoms: N_11  and  N_12 
REMARK       I    between atoms: N_12  and  C_13 
REMARK    7  A    between atoms: C_13  and  C_14 
ROOT
HETATM    1  C   UNL     1      24.230  47.074  49.793  1.00  0.00     0.259 C 
HETATM    2  N   UNL     1      23.569  48.281  49.868  1.00  0.00    -0.265 N 
HETATM    3  O   UNL     1      23.669  46.036  49.434  1.00  0.00    -0.269 OA
HETATM    4  H   UNL     1      24.042  49.174  50.026  1.00  0.00     0.190 HD
ENDROOT
BRANCH   2   5
HETATM    5  N   UNL     1      22.225  48.324  49.490  1.00  0.00    -0.263 N 
HETATM    6  C   UNL     1      21.538  49.527  49.511  1.00  0.00     0.278 C 
HETATM    7  O   UNL     1      22.113  50.555  49.870  1.00  0.00    -0.265 OA
HETATM    8  H   UNL     1      21.824  47.472  49.101  1.00  0.00     0.190 HD
BRANCH   6   9
HETATM    9  C   UNL     1      20.140  49.465  49.099  1.00  0.00     0.097 A 
HETATM   10  S   UNL     1      19.288  47.977  49.109  1.00  0.00    -0.082 SA
HETATM   11  C   UNL     1      17.818  48.698  48.597  1.00  0.00     0.017 A 
HETATM   12  C   UNL     1      17.967  50.072  48.395  1.00  0.00     0.004 A 
HETATM   13  C   UNL     1      16.588  48.044  48.389  1.00  0.00     0.020 A 
HETATM   14  C   UNL     1      19.316  50.495  48.683  1.00  0.00     0.068 A 
HETATM   15  C   UNL     1      16.825  50.799  47.966  1.00  0.00     0.014 A 
HETATM   16 CL   UNL     1      19.785  52.144  48.515  1.00  0.00    -0.082 Cl
HETATM   17  C   UNL     1      15.600  50.156  47.761  1.00  0.00     0.001 A 
HETATM   18  C   UNL     1      15.485  48.791  47.972  1.00  0.00     0.001 A 
ENDBRANCH   6   9
ENDBRANCH   2   5
BRANCH   1  19
HETATM   19  C   UNL     1      25.718  47.127  50.176  1.00  0.00     0.180 C 
BRANCH  19  20
HETATM   20  C   UNL     1      25.937  47.025  51.694  1.00  0.00     0.045 C 
BRANCH  20  21
HETATM   21  C   UNL     1      25.419  45.763  52.387  1.00  0.00     0.076 C 
BRANCH  21  22
HETATM   22  S   UNL     1      26.331  44.263  51.902  1.00  0.00    -0.173 SA
HETATM   23  C   UNL     1      24.947  43.300  51.243  1.00  0.00     0.089 C 
ENDBRANCH  21  22
ENDBRANCH  20  21
ENDBRANCH  19  20
BRANCH  19  24
HETATM   24  N   UNL     1      26.220  48.404  49.667  1.00  0.00    -0.330 N 
HETATM   25  C   UNL     1      27.401  48.517  49.011  1.00  0.00     0.314 C 
HETATM   26  N   UNL     1      27.669  49.793  48.639  1.00  0.00    -0.352 N 
HETATM   27  O   UNL     1      28.165  47.598  48.763  1.00  0.00    -0.248 OA
HETATM   28  H   UNL     1      26.884  50.362  48.356  1.00  0.00     0.160 HD
HETATM   29  H   UNL     1      28.483  49.868  48.041  1.00  0.00     0.160 HD
HETATM   30  H   UNL     1      25.765  49.246  49.997  1.00  0.00     0.165 HD
ENDBRANCH  19  24
ENDBRANCH   1  19
TORSDOF 7
ENDMDL
MODEL 7
REMARK VINA RESULT:      -7.4      3.407      8.640
REMARK  7 active torsions:
REMARK  status: ('A' for Active; 'I' for Inactive)
REMARK    1  A    between atoms: S_2  and  C_3 
REMARK    2  A    between atoms: C_3  and  C_4 
REMARK    3  A    between atoms: C_4  and  C_5 
REMARK    4  A    between atoms: C_5  and  N_6 
REMARK    5  A    between atoms: C_5  and  C_10 
REMARK       I    between atoms: N_6  and  C_7 
REMARK       I    between atoms: C_7  and  N_8 
REMARK       I    between atoms: C_10  and  N_11 
REMARK    6  A    between atoms: N_11  and  N_12 
REMARK       I    between atoms: N_12  and  C_13 
REMARK    7  A    between atoms: C_13  and  C_14 
ROOT
HETATM    1  C   UNL     1      26.564  44.194  53.400  1.00  0.00     0.259 C 
HETATM    2  N   UNL     1      27.155  45.008  52.458  1.00  0.00    -0.265 N 
HETATM    3  O   UNL     1      25.365  44.273  53.680  1.00  0.00    -0.269 OA
HETATM    4  H   UNL     1      28.107  44.869  52.110  1.00  0.00     0.190 HD
ENDROOT
BRANCH   2   5
HETATM    5  N   UNL     1      26.351  45.927  51.779  1.00  0.00    -0.263 N 
HETATM    6  C   UNL     1      26.441  46.041  50.401  1.00  0.00     0.278 C 
HETATM    7  O   UNL     1      27.235  45.335  49.778  1.00  0.00    -0.265 OA
HETATM    8  H   UNL     1      25.638  46.411  52.322  1.00  0.00     0.190 HD
BRANCH   6   9
HETATM    9  C   UNL     1      25.560  47.029  49.789  1.00  0.00     0.097 A 
HETATM   10  S   UNL     1      23.890  46.705  49.578  1.00  0.00    -0.082 SA
HETATM   11  C   UNL     1      23.569  48.250  48.907  1.00  0.00     0.017 A 
HETATM   12  C   UNL     1      24.731  49.019  48.819  1.00  0.00     0.004 A 
HETATM   13  C   UNL     1      22.319  48.740  48.482  1.00  0.00     0.020 A 
HETATM   14  C   UNL     1      25.872  48.295  49.326  1.00  0.00     0.068 A 
HETATM   15  C   UNL     1      24.613  50.327  48.278  1.00  0.00     0.014 A 
HETATM   16 CL   UNL     1      27.442  49.004  49.336  1.00  0.00    -0.082 Cl
HETATM   17  C   UNL     1      23.374  50.820  47.857  1.00  0.00     0.001 A 
HETATM   18  C   UNL     1      22.238  50.032  47.960  1.00  0.00     0.001 A 
ENDBRANCH   6   9
ENDBRANCH   2   5
BRANCH   1  19
HETATM   19  C   UNL     1      27.509  43.177  54.059  1.00  0.00     0.180 C 
BRANCH  19  20
HETATM   20  C   UNL     1      28.989  43.542  53.866  1.00  0.00     0.045 C 
BRANCH  20  21
HETATM   21  C   UNL     1      29.757  44.011  55.104  1.00  0.00     0.076 C 
BRANCH  21  22
HETATM   22  S   UNL     1      29.194  45.632  55.714  1.00  0.00    -0.173 SA
HETATM   23  C   UNL     1      30.155  45.698  57.247  1.00  0.00     0.089 C 
ENDBRANCH  21  22
ENDBRANCH  20  21
ENDBRANCH  19  20
BRANCH  19  24
HETATM   24  N   UNL     1      27.210  41.887  53.438  1.00  0.00    -0.330 N 
HETATM   25  C   UNL     1      27.422  41.641  52.122  1.00  0.00     0.314 C 
HETATM   26  N   UNL     1      27.064  40.384  51.762  1.00  0.00    -0.352 N 
HETATM   27  O   UNL     1      27.883  42.435  51.318  1.00  0.00    -0.248 OA
HETATM   28  H   UNL     1      27.222  39.651  52.439  1.00  0.00     0.160 HD
HETATM   29  H   UNL     1      27.335  40.150  50.815  1.00  0.00     0.160 HD
HETATM   30  H   UNL     1      26.640  41.238  53.967  1.00  0.00     0.165 HD
ENDBRANCH  19  24
ENDBRANCH   1  19
TORSDOF 7
ENDMDL
MODEL 8
REMARK VINA RESULT:      -7.4      4.320      5.670
REMARK  7 active torsions:
REMARK  status: ('A' for Active; 'I' for Inactive)
REMARK    1  A    between atoms: S_2  and  C_3 
REMARK    2  A    between atoms: C_3  and  C_4 
REMARK    3  A    between atoms: C_4  and  C_5 
REMARK    4  A    between atoms: C_5  and  N_6 
REMARK    5  A    between atoms: C_5  and  C_10 
REMARK       I    between atoms: N_6  and  C_7 
REMARK       I    between atoms: C_7  and  N_8 
REMARK       I    between atoms: C_10  and  N_11 
REMARK    6  A    between atoms: N_11  and  N_12 
REMARK       I    between atoms: N_12  and  C_13 
REMARK    7  A    between atoms: C_13  and  C_14 
ROOT
HETATM    1  C   UNL     1      26.026  42.537  50.624  1.00  0.00     0.259 C 
HETATM    2  N   UNL     1      25.627  43.048  51.841  1.00  0.00    -0.265 N 
HETATM    3  O   UNL     1      27.198  42.231  50.390  1.00  0.00    -0.269 OA
HETATM    4  H   UNL     1      24.647  43.176  52.105  1.00  0.00     0.190 HD
ENDROOT
BRANCH   2   5
HETATM    5  N   UNL     1      26.587  43.190  52.846  1.00  0.00    -0.263 N 
HETATM    6  C   UNL     1      27.216  44.410  53.036  1.00  0.00     0.278 C 
HETATM    7  O   UNL     1      26.931  45.366  52.313  1.00  0.00    -0.265 OA
HETATM    8  H   UNL     1      26.712  42.406  53.484  1.00  0.00     0.190 HD
BRANCH   6   9
HETATM    9  C   UNL     1      28.202  44.454  54.110  1.00  0.00     0.097 A 
HETATM   10  S   UNL     1      28.090  45.627  55.355  1.00  0.00    -0.082 SA
HETATM   11  C   UNL     1      29.463  45.023  56.188  1.00  0.00     0.017 A 
HETATM   12  C   UNL     1      30.030  43.938  55.516  1.00  0.00     0.004 A 
HETATM   13  C   UNL     1      29.998  45.513  57.395  1.00  0.00     0.020 A 
HETATM   14  C   UNL     1      29.292  43.628  54.315  1.00  0.00     0.068 A 
HETATM   15  C   UNL     1      31.179  43.337  56.095  1.00  0.00     0.014 A 
HETATM   16 CL   UNL     1      29.772  42.333  53.287  1.00  0.00    -0.082 Cl
HETATM   17  C   UNL     1      31.713  43.817  57.294  1.00  0.00     0.001 A 
HETATM   18  C   UNL     1      31.126  44.896  57.937  1.00  0.00     0.001 A 
ENDBRANCH   6   9
ENDBRANCH   2   5
BRANCH   1  19
HETATM   19  C   UNL     1      24.898  42.364  49.595  1.00  0.00     0.180 C 
BRANCH  19  20
HETATM   20  C   UNL     1      25.387  41.712  48.293  1.00  0.00     0.045 C 
BRANCH  20  21
HETATM   21  C   UNL     1      24.599  40.503  47.782  1.00  0.00     0.076 C 
BRANCH  21  22
HETATM   22  S   UNL     1      22.823  40.848  47.581  1.00  0.00    -0.173 SA
HETATM   23  C   UNL     1      22.937  42.186  46.367  1.00  0.00     0.089 C 
ENDBRANCH  21  22
ENDBRANCH  20  21
ENDBRANCH  19  20
BRANCH  19  24
HETATM   24  N   UNL     1      24.379  43.708  49.336  1.00  0.00    -0.330 N 
HETATM   25  C   UNL     1      23.238  44.174  49.900  1.00  0.00     0.314 C 
HETATM   26  N   UNL     1      22.943  45.438  49.510  1.00  0.00    -0.352 N 
HETATM   27  O   UNL     1      22.527  43.555  50.676  1.00  0.00    -0.248 OA
HETATM   28  H   UNL     1      23.721  46.066  49.366  1.00  0.00     0.160 HD
HETATM   29  H   UNL     1      22.165  45.839  50.020  1.00  0.00     0.160 HD
HETATM   30  H   UNL     1      24.779  44.217  48.557  1.00  0.00     0.165 HD
ENDBRANCH  19  24
ENDBRANCH   1  19
TORSDOF 7
ENDMDL
MODEL 9
REMARK VINA RESULT:      -7.4      5.084      6.706
REMARK  7 active torsions:
REMARK  status: ('A' for Active; 'I' for Inactive)
REMARK    1  A    between atoms: S_2  and  C_3 
REMARK    2  A    between atoms: C_3  and  C_4 
REMARK    3  A    between atoms: C_4  and  C_5 
REMARK    4  A    between atoms: C_5  and  N_6 
REMARK    5  A    between atoms: C_5  and  C_10 
REMARK       I    between atoms: N_6  and  C_7 
REMARK       I    between atoms: C_7  and  N_8 
REMARK       I    between atoms: C_10  and  N_11 
REMARK    6  A    between atoms: N_11  and  N_12 
REMARK       I    between atoms: N_12  and  C_13 
REMARK    7  A    between atoms: C_13  and  C_14 
ROOT
HETATM    1  C   UNL     1      26.124  41.519  50.683  1.00  0.00     0.259 C 
HETATM    2  N   UNL     1      25.796  42.593  51.482  1.00  0.00    -0.265 N 
HETATM    3  O   UNL     1      27.145  40.850  50.865  1.00  0.00    -0.269 OA
HETATM    4  H   UNL     1      24.893  43.072  51.440  1.00  0.00     0.190 HD
ENDROOT
BRANCH   2   5
HETATM    5  N   UNL     1      26.640  42.905  52.550  1.00  0.00    -0.263 N 
HETATM    6  C   UNL     1      27.320  44.112  52.565  1.00  0.00     0.278 C 
HETATM    7  O   UNL     1      27.184  44.905  51.632  1.00  0.00    -0.265 OA
HETATM    8  H   UNL     1      26.638  42.269  53.346  1.00  0.00     0.190 HD
BRANCH   6   9
HETATM    9  C   UNL     1      28.176  44.343  53.724  1.00  0.00     0.097 A 
HETATM   10  S   UNL     1      27.803  45.574  54.858  1.00  0.00    -0.082 SA
HETATM   11  C   UNL     1      29.138  45.192  55.865  1.00  0.00     0.017 A 
HETATM   12  C   UNL     1      29.889  44.139  55.339  1.00  0.00     0.004 A 
HETATM   13  C   UNL     1      29.485  45.821  57.077  1.00  0.00     0.020 A 
HETATM   14  C   UNL     1      29.322  43.666  54.099  1.00  0.00     0.068 A 
HETATM   15  C   UNL     1      31.030  43.717  56.072  1.00  0.00     0.014 A 
HETATM   16 CL   UNL     1      30.049  42.372  53.227  1.00  0.00    -0.082 Cl
HETATM   17  C   UNL     1      31.377  44.335  57.278  1.00  0.00     0.001 A 
HETATM   18  C   UNL     1      30.610  45.377  57.774  1.00  0.00     0.001 A 
ENDBRANCH   6   9
ENDBRANCH   2   5
BRANCH   1  19
HETATM   19  C   UNL     1      25.115  41.212  49.565  1.00  0.00     0.180 C 
BRANCH  19  20
HETATM   20  C   UNL     1      25.800  40.791  48.256  1.00  0.00     0.045 C 
BRANCH  20  21
HETATM   21  C   UNL     1      26.140  39.308  48.095  1.00  0.00     0.076 C 
BRANCH  21  22
HETATM   22  S   UNL     1      27.753  39.032  47.297  1.00  0.00    -0.173 SA
HETATM   23  C   UNL     1      28.500  40.649  47.620  1.00  0.00     0.089 C 
ENDBRANCH  21  22
ENDBRANCH  20  21
ENDBRANCH  19  20
BRANCH  19  24
HETATM   24  N   UNL     1      24.342  42.440  49.372  1.00  0.00    -0.330 N 
HETATM   25  C   UNL     1      23.039  42.434  48.998  1.00  0.00     0.314 C 
HETATM   26  N   UNL     1      22.529  43.683  48.870  1.00  0.00    -0.352 N 
HETATM   27  O   UNL     1      22.366  41.437  48.791  1.00  0.00    -0.248 OA
HETATM   28  H   UNL     1      22.859  44.382  49.521  1.00  0.00     0.160 HD
HETATM   29  H   UNL     1      21.528  43.689  48.715  1.00  0.00     0.160 HD
HETATM   30  H   UNL     1      24.859  43.309  49.319  1.00  0.00     0.165 HD
ENDBRANCH  19  24
ENDBRANCH   1  19
TORSDOF 7
ENDMDL
MODEL 10
REMARK VINA RESULT:      -7.2      2.536      3.339
REMARK  7 active torsions:
REMARK  status: ('A' for Active; 'I' for Inactive)
REMARK    1  A    between atoms: S_2  and  C_3 
REMARK    2  A    between atoms: C_3  and  C_4 
REMARK    3  A    between atoms: C_4  and  C_5 
REMARK    4  A    between atoms: C_5  and  N_6 
REMARK    5  A    between atoms: C_5  and  C_10 
REMARK       I    between atoms: N_6  and  C_7 
REMARK       I    between atoms: C_7  and  N_8 
REMARK       I    between atoms: C_10  and  N_11 
REMARK    6  A    between atoms: N_11  and  N_12 
REMARK       I    between atoms: N_12  and  C_13 
REMARK    7  A    between atoms: C_13  and  C_14 
ROOT
HETATM    1  C   UNL     1      24.421  45.712  49.762  1.00  0.00     0.259 C 
HETATM    2  N   UNL     1      24.509  46.273  51.018  1.00  0.00    -0.265 N 
HETATM    3  O   UNL     1      25.323  45.020  49.284  1.00  0.00    -0.269 OA
HETATM    4  H   UNL     1      23.724  46.730  51.489  1.00  0.00     0.190 HD
ENDROOT
BRANCH   2   5
HETATM    5  N   UNL     1      25.652  46.015  51.779  1.00  0.00    -0.263 N 
HETATM    6  C   UNL     1      25.631  45.018  52.742  1.00  0.00     0.278 C 
HETATM    7  O   UNL     1      24.603  44.367  52.929  1.00  0.00    -0.265 OA
HETATM    8  H   UNL     1      26.506  46.504  51.517  1.00  0.00     0.190 HD
BRANCH   6   9
HETATM    9  C   UNL     1      26.874  44.828  53.482  1.00  0.00     0.097 A 
HETATM   10  S   UNL     1      27.430  46.018  54.583  1.00  0.00    -0.082 SA
HETATM   11  C   UNL     1      28.799  45.095  55.049  1.00  0.00     0.017 A 
HETATM   12  C   UNL     1      28.856  43.883  54.357  1.00  0.00     0.004 A 
HETATM   13  C   UNL     1      29.774  45.457  55.998  1.00  0.00     0.020 A 
HETATM   14  C   UNL     1      27.740  43.750  53.452  1.00  0.00     0.068 A 
HETATM   15  C   UNL     1      29.943  43.016  54.643  1.00  0.00     0.014 A 
HETATM   16 CL   UNL     1      27.559  42.350  52.466  1.00  0.00    -0.082 Cl
HETATM   17  C   UNL     1      30.913  43.367  55.587  1.00  0.00     0.001 A 
HETATM   18  C   UNL     1      30.827  44.577  56.258  1.00  0.00     0.001 A 
ENDBRANCH   6   9
ENDBRANCH   2   5
BRANCH   1  19
HETATM   19  C   UNL     1      23.108  46.003  49.016  1.00  0.00     0.180 C 
BRANCH  19  20
HETATM   20  C   UNL     1      22.899  45.070  47.813  1.00  0.00     0.045 C 
BRANCH  20  21
HETATM   21  C   UNL     1      21.581  44.294  47.757  1.00  0.00     0.076 C 
BRANCH  21  22
HETATM   22  S   UNL     1      20.330  45.095  46.706  1.00  0.00    -0.173 SA
HETATM   23  C   UNL     1      18.979  45.188  47.906  1.00  0.00     0.089 C 
ENDBRANCH  21  22
ENDBRANCH  20  21
ENDBRANCH  19  20
BRANCH  19  24
HETATM   24  N   UNL     1      23.193  47.397  48.580  1.00  0.00    -0.330 N 
HETATM   25  C   UNL     1      22.120  48.225  48.559  1.00  0.00     0.314 C 
HETATM   26  N   UNL     1      22.428  49.466  48.110  1.00  0.00    -0.352 N 
HETATM   27  O   UNL     1      20.986  47.924  48.898  1.00  0.00    -0.248 OA
HETATM   28  H   UNL     1      23.335  49.831  48.361  1.00  0.00     0.160 HD
HETATM   29  H   UNL     1      21.665  50.124  48.209  1.00  0.00     0.160 HD
HETATM   30  H   UNL     1      24.034  47.680  48.090  1.00  0.00     0.165 HD
ENDBRANCH  19  24
ENDBRANCH   1  19
TORSDOF 7
ENDMDL
