MODEL 1
REMARK VINA RESULT:      -8.8      0.000      0.000
REMARK  3 active torsions:
REMARK  status: ('A' for Active; 'I' for Inactive)
REMARK    1  A    between atoms: O_2  and  C_3 
REMARK    2  A    between atoms: C_4  and  N_5 
REMARK       I    between atoms: N_5  and  C_6 
REMARK       I    between atoms: C_6  and  N_7 
REMARK    3  A    between atoms: C_8  and  C_9 
ROOT
HETATM    1  N   UNL     1      27.335  41.363  49.294  1.00  0.00    -0.306 N 
HETATM    2  C   UNL     1      26.318  41.540  50.197  1.00  0.00     0.323 C 
HETATM    3  N   UNL     1      26.054  42.875  50.503  1.00  0.00    -0.324 N 
HETATM    4  C   UNL     1      27.066  43.949  50.453  1.00  0.00     0.139 C 
HETATM    5  C   UNL     1      26.416  45.270  50.012  1.00  0.00     0.032 C 
HETATM    6  C   UNL     1      25.175  45.623  50.833  1.00  0.00     0.004 C 
HETATM    7  C   UNL     1      24.190  44.459  50.847  1.00  0.00     0.020 C 
HETATM    8  C   UNL     1      24.856  43.164  51.296  1.00  0.00     0.128 C 
HETATM    9  O   UNL     1      25.686  40.623  50.713  1.00  0.00    -0.247 OA
HETATM   10  H   UNL     1      27.490  42.118  48.640  1.00  0.00     0.171 HD
ENDROOT
BRANCH   4  11
HETATM   11  C   UNL     1      27.784  44.033  51.781  1.00  0.00     0.033 A 
HETATM   12  N   UNL     1      28.881  43.244  52.064  1.00  0.00    -0.357 N 
HETATM   13  H   UNL     1      29.261  42.541  51.443  1.00  0.00     0.166 HD
HETATM   14  C   UNL     1      29.360  43.500  53.327  1.00  0.00     0.042 A 
HETATM   15  C   UNL     1      28.561  44.502  53.871  1.00  0.00    -0.007 A 
HETATM   16  C   UNL     1      30.429  42.923  54.022  1.00  0.00     0.030 A 
HETATM   17  C   UNL     1      27.590  44.838  52.890  1.00  0.00     0.041 A 
HETATM   18  C   UNL     1      28.836  44.955  55.175  1.00  0.00     0.014 A 
HETATM   19  C   UNL     1      29.900  44.388  55.887  1.00  0.00     0.001 A 
HETATM   20  C   UNL     1      30.683  43.387  55.316  1.00  0.00     0.002 A 
ENDBRANCH   4  11
BRANCH   1  21
HETATM   21  C   UNL     1      27.949  40.153  48.901  1.00  0.00     0.072 A 
HETATM   22  C   UNL     1      27.758  39.751  47.564  1.00  0.00     0.095 A 
HETATM   23  C   UNL     1      28.310  38.557  47.092  1.00  0.00     0.042 A 
HETATM   24  C   UNL     1      29.098  37.783  47.942  1.00  0.00     0.045 A 
HETATM   25  C   UNL     1      29.316  38.205  49.251  1.00  0.00     0.118 A 
HETATM   26  C   UNL     1      28.749  39.378  49.739  1.00  0.00     0.074 A 
HETATM   27  F   UNL     1      30.085  37.460  50.056  1.00  0.00    -0.206 F 
BRANCH  22  28
HETATM   28  O   UNL     1      26.954  40.545  46.779  1.00  0.00    -0.354 OA
HETATM   29  C   UNL     1      27.549  40.852  45.518  1.00  0.00     0.210 C 
ENDBRANCH  22  28
ENDBRANCH   1  21
TORSDOF 3
ENDMDL
MODEL 2
REMARK VINA RESULT:      -8.7      3.537      6.984
REMARK  3 active torsions:
REMARK  status: ('A' for Active; 'I' for Inactive)
REMARK    1  A    between atoms: O_2  and  C_3 
REMARK    2  A    between atoms: C_4  and  N_5 
REMARK       I    between atoms: N_5  and  C_6 
REMARK       I    between atoms: C_6  and  N_7 
REMARK    3  A    between atoms: C_8  and  C_9 
ROOT
HETATM    1  N   UNL     1      28.115  43.846  53.052  1.00  0.00    -0.306 N 
HETATM    2  C   UNL     1      26.747  43.809  52.950  1.00  0.00     0.323 C 
HETATM    3  N   UNL     1      26.278  43.566  51.659  1.00  0.00    -0.324 N 
HETATM    4  C   UNL     1      27.005  43.947  50.432  1.00  0.00     0.139 C 
HETATM    5  C   UNL     1      26.752  42.913  49.324  1.00  0.00     0.032 C 
HETATM    6  C   UNL     1      25.265  42.632  49.104  1.00  0.00     0.004 C 
HETATM    7  C   UNL     1      24.586  42.263  50.418  1.00  0.00     0.020 C 
HETATM    8  C   UNL     1      24.845  43.308  51.498  1.00  0.00     0.128 C 
HETATM    9  O   UNL     1      25.981  43.980  53.894  1.00  0.00    -0.247 OA
HETATM   10  H   UNL     1      28.629  43.301  52.373  1.00  0.00     0.171 HD
ENDROOT
BRANCH   4  11
HETATM   11  C   UNL     1      26.642  45.362  50.044  1.00  0.00     0.033 A 
HETATM   12  N   UNL     1      27.600  46.278  49.658  1.00  0.00    -0.357 N 
HETATM   13  H   UNL     1      28.595  46.097  49.638  1.00  0.00     0.166 HD
HETATM   14  C   UNL     1      27.029  47.490  49.354  1.00  0.00     0.042 A 
HETATM   15  C   UNL     1      25.655  47.350  49.528  1.00  0.00    -0.007 A 
HETATM   16  C   UNL     1      27.622  48.691  48.944  1.00  0.00     0.030 A 
HETATM   17  C   UNL     1      25.423  46.011  49.943  1.00  0.00     0.041 A 
HETATM   18  C   UNL     1      24.823  48.459  49.283  1.00  0.00     0.014 A 
HETATM   19  C   UNL     1      25.398  49.669  48.875  1.00  0.00     0.001 A 
HETATM   20  C   UNL     1      26.777  49.780  48.709  1.00  0.00     0.002 A 
ENDBRANCH   4  11
BRANCH   1  21
HETATM   21  C   UNL     1      28.895  44.224  54.166  1.00  0.00     0.072 A 
HETATM   22  C   UNL     1      28.668  45.511  54.692  1.00  0.00     0.095 A 
HETATM   23  C   UNL     1      29.408  45.980  55.780  1.00  0.00     0.042 A 
HETATM   24  C   UNL     1      30.346  45.142  56.382  1.00  0.00     0.045 A 
HETATM   25  C   UNL     1      30.539  43.857  55.885  1.00  0.00     0.118 A 
HETATM   26  C   UNL     1      29.826  43.390  54.784  1.00  0.00     0.074 A 
HETATM   27  F   UNL     1      31.434  43.056  56.478  1.00  0.00    -0.206 F 
BRANCH  22  28
HETATM   28  O   UNL     1      27.744  46.299  54.043  1.00  0.00    -0.354 OA
HETATM   29  C   UNL     1      27.437  47.492  54.763  1.00  0.00     0.210 C 
ENDBRANCH  22  28
ENDBRANCH   1  21
TORSDOF 3
ENDMDL
MODEL 3
REMARK VINA RESULT:      -8.5      3.462      7.073
REMARK  3 active torsions:
REMARK  status: ('A' for Active; 'I' for Inactive)
REMARK    1  A    between atoms: O_2  and  C_3 
REMARK    2  A    between atoms: C_4  and  N_5 
REMARK       I    between atoms: N_5  and  C_6 
REMARK       I    between atoms: C_6  and  N_7 
REMARK    3  A    between atoms: C_8  and  C_9 
ROOT
HETATM    1  N   UNL     1      25.526  45.276  52.552  1.00  0.00    -0.306 N 
HETATM    2  C   UNL     1      25.711  45.382  51.196  1.00  0.00     0.323 C 
HETATM    3  N   UNL     1      24.878  44.557  50.441  1.00  0.00    -0.324 N 
HETATM    4  C   UNL     1      24.340  43.268  50.919  1.00  0.00     0.139 C 
HETATM    5  C   UNL     1      22.934  43.034  50.342  1.00  0.00     0.032 C 
HETATM    6  C   UNL     1      22.882  43.205  48.823  1.00  0.00     0.004 C 
HETATM    7  C   UNL     1      23.469  44.551  48.412  1.00  0.00     0.020 C 
HETATM    8  C   UNL     1      24.865  44.755  48.990  1.00  0.00     0.128 C 
HETATM    9  O   UNL     1      26.537  46.122  50.669  1.00  0.00    -0.247 OA
HETATM   10  H   UNL     1      24.603  44.998  52.857  1.00  0.00     0.171 HD
ENDROOT
BRANCH   4  11
HETATM   11  C   UNL     1      25.321  42.161  50.610  1.00  0.00     0.033 A 
HETATM   12  N   UNL     1      26.472  41.982  51.351  1.00  0.00    -0.357 N 
HETATM   13  H   UNL     1      26.763  42.578  52.115  1.00  0.00     0.166 HD
HETATM   14  C   UNL     1      27.200  40.915  50.882  1.00  0.00     0.042 A 
HETATM   15  C   UNL     1      26.489  40.373  49.815  1.00  0.00    -0.007 A 
HETATM   16  C   UNL     1      28.426  40.397  51.316  1.00  0.00     0.030 A 
HETATM   17  C   UNL     1      25.309  41.149  49.664  1.00  0.00     0.041 A 
HETATM   18  C   UNL     1      27.022  39.257  49.142  1.00  0.00     0.014 A 
HETATM   19  C   UNL     1      28.248  38.727  49.560  1.00  0.00     0.001 A 
HETATM   20  C   UNL     1      28.938  39.291  50.632  1.00  0.00     0.002 A 
ENDBRANCH   4  11
BRANCH   1  21
HETATM   21  C   UNL     1      26.305  45.843  53.583  1.00  0.00     0.072 A 
HETATM   22  C   UNL     1      27.310  45.026  54.140  1.00  0.00     0.095 A 
HETATM   23  C   UNL     1      28.116  45.495  55.181  1.00  0.00     0.042 A 
HETATM   24  C   UNL     1      27.955  46.802  55.637  1.00  0.00     0.045 A 
HETATM   25  C   UNL     1      26.988  47.618  55.058  1.00  0.00     0.118 A 
HETATM   26  C   UNL     1      26.161  47.153  54.039  1.00  0.00     0.074 A 
HETATM   27  F   UNL     1      26.849  48.875  55.495  1.00  0.00    -0.206 F 
BRANCH  22  28
HETATM   28  O   UNL     1      27.408  43.739  53.662  1.00  0.00    -0.354 OA
HETATM   29  C   UNL     1      28.558  43.055  54.157  1.00  0.00     0.210 C 
ENDBRANCH  22  28
ENDBRANCH   1  21
TORSDOF 3
ENDMDL
MODEL 4
REMARK VINA RESULT:      -8.3      3.289      6.879
REMARK  3 active torsions:
REMARK  status: ('A' for Active; 'I' for Inactive)
REMARK    1  A    between atoms: O_2  and  C_3 
REMARK    2  A    between atoms: C_4  and  N_5 
REMARK       I    between atoms: N_5  and  C_6 
REMARK       I    between atoms: C_6  and  N_7 
REMARK    3  A    between atoms: C_8  and  C_9 
ROOT
HETATM    1  N   UNL     1      25.814  45.042  51.043  1.00  0.00    -0.306 N 
HETATM    2  C   UNL     1      25.698  44.268  52.170  1.00  0.00     0.323 C 
HETATM    3  N   UNL     1      26.895  43.684  52.585  1.00  0.00    -0.324 N 
HETATM    4  C   UNL     1      28.002  43.334  51.675  1.00  0.00     0.139 C 
HETATM    5  C   UNL     1      29.352  43.523  52.384  1.00  0.00     0.032 C 
HETATM    6  C   UNL     1      29.414  42.815  53.739  1.00  0.00     0.004 C 
HETATM    7  C   UNL     1      28.230  43.218  54.611  1.00  0.00     0.020 C 
HETATM    8  C   UNL     1      26.903  43.013  53.888  1.00  0.00     0.128 C 
HETATM    9  O   UNL     1      24.645  44.081  52.772  1.00  0.00    -0.247 OA
HETATM   10  H   UNL     1      26.718  45.465  50.882  1.00  0.00     0.171 HD
ENDROOT
BRANCH   4  11
HETATM   11  C   UNL     1      27.789  41.942  51.125  1.00  0.00     0.033 A 
HETATM   12  N   UNL     1      28.816  41.023  51.057  1.00  0.00    -0.357 N 
HETATM   13  H   UNL     1      29.774  41.208  51.326  1.00  0.00     0.166 HD
HETATM   14  C   UNL     1      28.379  39.834  50.525  1.00  0.00     0.042 A 
HETATM   15  C   UNL     1      27.021  39.979  50.258  1.00  0.00    -0.007 A 
HETATM   16  C   UNL     1      29.080  38.651  50.258  1.00  0.00     0.030 A 
HETATM   17  C   UNL     1      26.659  41.296  50.652  1.00  0.00     0.041 A 
HETATM   18  C   UNL     1      26.319  38.896  49.697  1.00  0.00     0.014 A 
HETATM   19  C   UNL     1      27.003  37.706  49.422  1.00  0.00     0.001 A 
HETATM   20  C   UNL     1      28.364  37.589  49.699  1.00  0.00     0.002 A 
ENDBRANCH   4  11
BRANCH   1  21
HETATM   21  C   UNL     1      24.781  45.631  50.282  1.00  0.00     0.072 A 
HETATM   22  C   UNL     1      24.816  47.033  50.144  1.00  0.00     0.095 A 
HETATM   23  C   UNL     1      23.823  47.706  49.427  1.00  0.00     0.042 A 
HETATM   24  C   UNL     1      22.816  46.973  48.801  1.00  0.00     0.045 A 
HETATM   25  C   UNL     1      22.807  45.586  48.907  1.00  0.00     0.118 A 
HETATM   26  C   UNL     1      23.776  44.908  49.641  1.00  0.00     0.074 A 
HETATM   27  F   UNL     1      21.842  44.891  48.292  1.00  0.00    -0.206 F 
BRANCH  22  28
HETATM   28  O   UNL     1      25.823  47.703  50.802  1.00  0.00    -0.354 OA
HETATM   29  C   UNL     1      26.763  48.296  49.907  1.00  0.00     0.210 C 
ENDBRANCH  22  28
ENDBRANCH   1  21
TORSDOF 3
ENDMDL
MODEL 5
REMARK VINA RESULT:      -8.3      1.616      2.193
REMARK  3 active torsions:
REMARK  status: ('A' for Active; 'I' for Inactive)
REMARK    1  A    between atoms: O_2  and  C_3 
REMARK    2  A    between atoms: C_4  and  N_5 
REMARK       I    between atoms: N_5  and  C_6 
REMARK       I    between atoms: C_6  and  N_7 
REMARK    3  A    between atoms: C_8  and  C_9 
ROOT
HETATM    1  N   UNL     1      26.685  41.929  48.377  1.00  0.00    -0.306 N 
HETATM    2  C   UNL     1      25.709  42.036  49.336  1.00  0.00     0.323 C 
HETATM    3  N   UNL     1      25.531  43.330  49.825  1.00  0.00    -0.324 N 
HETATM    4  C   UNL     1      26.599  44.347  49.877  1.00  0.00     0.139 C 
HETATM    5  C   UNL     1      26.010  45.747  49.640  1.00  0.00     0.032 C 
HETATM    6  C   UNL     1      24.818  46.050  50.550  1.00  0.00     0.004 C 
HETATM    7  C   UNL     1      23.770  44.947  50.450  1.00  0.00     0.020 C 
HETATM    8  C   UNL     1      24.378  43.570  50.697  1.00  0.00     0.128 C 
HETATM    9  O   UNL     1      25.045  41.091  49.751  1.00  0.00    -0.247 OA
HETATM   10  H   UNL     1      26.860  42.757  47.822  1.00  0.00     0.171 HD
ENDROOT
BRANCH   4  11
HETATM   11  C   UNL     1      27.364  44.216  51.174  1.00  0.00     0.033 A 
HETATM   12  N   UNL     1      28.469  43.397  51.286  1.00  0.00    -0.357 N 
HETATM   13  H   UNL     1      28.827  42.808  50.545  1.00  0.00     0.166 HD
HETATM   14  C   UNL     1      28.993  43.446  52.556  1.00  0.00     0.042 A 
HETATM   15  C   UNL     1      28.215  44.340  53.285  1.00  0.00    -0.007 A 
HETATM   16  C   UNL     1      30.086  42.767  53.109  1.00  0.00     0.030 A 
HETATM   17  C   UNL     1      27.209  44.828  52.407  1.00  0.00     0.041 A 
HETATM   18  C   UNL     1      28.536  44.575  54.635  1.00  0.00     0.014 A 
HETATM   19  C   UNL     1      29.624  43.904  55.207  1.00  0.00     0.001 A 
HETATM   20  C   UNL     1      30.385  43.014  54.452  1.00  0.00     0.002 A 
ENDBRANCH   4  11
BRANCH   1  21
HETATM   21  C   UNL     1      27.217  40.754  47.804  1.00  0.00     0.072 A 
HETATM   22  C   UNL     1      28.147  40.035  48.581  1.00  0.00     0.095 A 
HETATM   23  C   UNL     1      28.742  38.871  48.088  1.00  0.00     0.042 A 
HETATM   24  C   UNL     1      28.373  38.393  46.832  1.00  0.00     0.045 A 
HETATM   25  C   UNL     1      27.426  39.084  46.084  1.00  0.00     0.118 A 
HETATM   26  C   UNL     1      26.846  40.259  46.554  1.00  0.00     0.074 A 
HETATM   27  F   UNL     1      27.070  38.610  44.884  1.00  0.00    -0.206 F 
BRANCH  22  28
HETATM   28  O   UNL     1      28.486  40.568  49.805  1.00  0.00    -0.354 OA
HETATM   29  C   UNL     1      28.696  39.568  50.800  1.00  0.00     0.210 C 
ENDBRANCH  22  28
ENDBRANCH   1  21
TORSDOF 3
ENDMDL
MODEL 6
REMARK VINA RESULT:      -8.3      6.537     10.199
REMARK  3 active torsions:
REMARK  status: ('A' for Active; 'I' for Inactive)
REMARK    1  A    between atoms: O_2  and  C_3 
REMARK    2  A    between atoms: C_4  and  N_5 
REMARK       I    between atoms: N_5  and  C_6 
REMARK       I    between atoms: C_6  and  N_7 
REMARK    3  A    between atoms: C_8  and  C_9 
ROOT
HETATM    1  N   UNL     1      23.495  48.926  49.496  1.00  0.00    -0.306 N 
HETATM    2  C   UNL     1      22.883  49.598  48.469  1.00  0.00     0.323 C 
HETATM    3  N   UNL     1      21.566  49.971  48.738  1.00  0.00    -0.324 N 
HETATM    4  C   UNL     1      20.670  49.235  49.651  1.00  0.00     0.139 C 
HETATM    5  C   UNL     1      19.726  50.213  50.370  1.00  0.00     0.032 C 
HETATM    6  C   UNL     1      18.998  51.151  49.406  1.00  0.00     0.004 C 
HETATM    7  C   UNL     1      19.991  51.858  48.491  1.00  0.00     0.020 C 
HETATM    8  C   UNL     1      20.908  50.867  47.783  1.00  0.00     0.128 C 
HETATM    9  O   UNL     1      23.420  49.853  47.395  1.00  0.00    -0.247 OA
HETATM   10  H   UNL     1      23.161  49.130  50.428  1.00  0.00     0.171 HD
ENDROOT
BRANCH   4  11
HETATM   11  C   UNL     1      19.955  48.142  48.891  1.00  0.00     0.033 A 
HETATM   12  N   UNL     1      20.575  46.948  48.581  1.00  0.00    -0.357 N 
HETATM   13  H   UNL     1      21.538  46.726  48.797  1.00  0.00     0.166 HD
HETATM   14  C   UNL     1      19.726  46.116  47.890  1.00  0.00     0.042 A 
HETATM   15  C   UNL     1      18.511  46.784  47.766  1.00  0.00    -0.007 A 
HETATM   16  C   UNL     1      19.943  44.836  47.367  1.00  0.00     0.030 A 
HETATM   17  C   UNL     1      18.660  48.042  48.409  1.00  0.00     0.041 A 
HETATM   18  C   UNL     1      17.454  46.149  47.088  1.00  0.00     0.014 A 
HETATM   19  C   UNL     1      17.652  44.869  46.556  1.00  0.00     0.001 A 
HETATM   20  C   UNL     1      18.880  44.225  46.695  1.00  0.00     0.002 A 
ENDBRANCH   4  11
BRANCH   1  21
HETATM   21  C   UNL     1      24.750  48.278  49.486  1.00  0.00     0.072 A 
HETATM   22  C   UNL     1      24.741  46.876  49.624  1.00  0.00     0.095 A 
HETATM   23  C   UNL     1      25.936  46.152  49.647  1.00  0.00     0.042 A 
HETATM   24  C   UNL     1      27.146  46.824  49.482  1.00  0.00     0.045 A 
HETATM   25  C   UNL     1      27.148  48.204  49.306  1.00  0.00     0.118 A 
HETATM   26  C   UNL     1      25.966  48.938  49.309  1.00  0.00     0.074 A 
HETATM   27  F   UNL     1      28.316  48.838  49.137  1.00  0.00    -0.206 F 
BRANCH  22  28
HETATM   28  O   UNL     1      23.517  46.272  49.804  1.00  0.00    -0.354 OA
HETATM   29  C   UNL     1      23.486  44.934  49.308  1.00  0.00     0.210 C 
ENDBRANCH  22  28
ENDBRANCH   1  21
TORSDOF 3
ENDMDL
MODEL 7
REMARK VINA RESULT:      -8.1      2.535      6.814
REMARK  3 active torsions:
REMARK  status: ('A' for Active; 'I' for Inactive)
REMARK    1  A    between atoms: O_2  and  C_3 
REMARK    2  A    between atoms: C_4  and  N_5 
REMARK       I    between atoms: N_5  and  C_6 
REMARK       I    between atoms: C_6  and  N_7 
REMARK    3  A    between atoms: C_8  and  C_9 
ROOT
HETATM    1  N   UNL     1      26.762  43.991  52.626  1.00  0.00    -0.306 N 
HETATM    2  C   UNL     1      26.779  44.353  51.302  1.00  0.00     0.323 C 
HETATM    3  N   UNL     1      25.740  43.807  50.549  1.00  0.00    -0.324 N 
HETATM    4  C   UNL     1      25.085  42.520  50.856  1.00  0.00     0.139 C 
HETATM    5  C   UNL     1      23.597  42.579  50.478  1.00  0.00     0.032 C 
HETATM    6  C   UNL     1      23.368  43.067  49.046  1.00  0.00     0.004 C 
HETATM    7  C   UNL     1      24.089  44.389  48.806  1.00  0.00     0.020 C 
HETATM    8  C   UNL     1      25.564  44.302  49.181  1.00  0.00     0.128 C 
HETATM    9  O   UNL     1      27.628  45.083  50.798  1.00  0.00    -0.247 OA
HETATM   10  H   UNL     1      25.857  43.768  53.017  1.00  0.00     0.171 HD
ENDROOT
BRANCH   4  11
HETATM   11  C   UNL     1      25.842  41.393  50.193  1.00  0.00     0.033 A 
HETATM   12  N   UNL     1      27.025  40.907  50.713  1.00  0.00    -0.357 N 
HETATM   13  H   UNL     1      27.488  41.276  51.533  1.00  0.00     0.166 HD
HETATM   14  C   UNL     1      27.522  39.887  49.937  1.00  0.00     0.042 A 
HETATM   15  C   UNL     1      26.623  39.691  48.893  1.00  0.00    -0.007 A 
HETATM   16  C   UNL     1      28.693  39.132  50.080  1.00  0.00     0.030 A 
HETATM   17  C   UNL     1      25.569  40.627  49.072  1.00  0.00     0.041 A 
HETATM   18  C   UNL     1      26.898  38.694  47.938  1.00  0.00     0.014 A 
HETATM   19  C   UNL     1      28.065  37.931  48.063  1.00  0.00     0.001 A 
HETATM   20  C   UNL     1      28.947  38.149  49.119  1.00  0.00     0.002 A 
ENDBRANCH   4  11
BRANCH   1  21
HETATM   21  C   UNL     1      27.747  44.235  53.607  1.00  0.00     0.072 A 
HETATM   22  C   UNL     1      27.516  45.316  54.482  1.00  0.00     0.095 A 
HETATM   23  C   UNL     1      28.446  45.646  55.471  1.00  0.00     0.042 A 
HETATM   24  C   UNL     1      29.591  44.865  55.623  1.00  0.00     0.045 A 
HETATM   25  C   UNL     1      29.796  43.775  54.782  1.00  0.00     0.118 A 
HETATM   26  C   UNL     1      28.889  43.453  53.776  1.00  0.00     0.074 A 
HETATM   27  F   UNL     1      30.892  43.024  54.944  1.00  0.00    -0.206 F 
BRANCH  22  28
HETATM   28  O   UNL     1      26.379  46.062  54.270  1.00  0.00    -0.354 OA
HETATM   29  C   UNL     1      26.528  47.420  54.682  1.00  0.00     0.210 C 
ENDBRANCH  22  28
ENDBRANCH   1  21
TORSDOF 3
ENDMDL
MODEL 8
REMARK VINA RESULT:      -8.1      2.876      6.718
REMARK  3 active torsions:
REMARK  status: ('A' for Active; 'I' for Inactive)
REMARK    1  A    between atoms: O_2  and  C_3 
REMARK    2  A    between atoms: C_4  and  N_5 
REMARK       I    between atoms: N_5  and  C_6 
REMARK       I    between atoms: C_6  and  N_7 
REMARK    3  A    between atoms: C_8  and  C_9 
ROOT
HETATM    1  N   UNL     1      26.335  44.198  52.475  1.00  0.00    -0.306 N 
HETATM    2  C   UNL     1      26.288  44.652  51.180  1.00  0.00     0.323 C 
HETATM    3  N   UNL     1      25.245  44.114  50.426  1.00  0.00    -0.324 N 
HETATM    4  C   UNL     1      24.657  42.781  50.663  1.00  0.00     0.139 C 
HETATM    5  C   UNL     1      23.155  42.799  50.340  1.00  0.00     0.032 C 
HETATM    6  C   UNL     1      22.854  43.375  48.955  1.00  0.00     0.004 C 
HETATM    7  C   UNL     1      23.508  44.741  48.785  1.00  0.00     0.020 C 
HETATM    8  C   UNL     1      24.999  44.694  49.103  1.00  0.00     0.128 C 
HETATM    9  O   UNL     1      27.086  45.452  50.701  1.00  0.00    -0.247 OA
HETATM   10  H   UNL     1      25.455  43.908  52.879  1.00  0.00     0.171 HD
ENDROOT
BRANCH   4  11
HETATM   11  C   UNL     1      25.436  41.737  49.895  1.00  0.00     0.033 A 
HETATM   12  N   UNL     1      26.744  41.429  50.211  1.00  0.00    -0.357 N 
HETATM   13  H   UNL     1      27.285  41.885  50.935  1.00  0.00     0.166 HD
HETATM   14  C   UNL     1      27.236  40.453  49.377  1.00  0.00     0.042 A 
HETATM   15  C   UNL     1      26.208  40.104  48.506  1.00  0.00    -0.007 A 
HETATM   16  C   UNL     1      28.505  39.863  49.327  1.00  0.00     0.030 A 
HETATM   17  C   UNL     1      25.083  40.901  48.849  1.00  0.00     0.041 A 
HETATM   18  C   UNL     1      26.450  39.116  47.533  1.00  0.00     0.014 A 
HETATM   19  C   UNL     1      27.713  38.515  47.466  1.00  0.00     0.001 A 
HETATM   20  C   UNL     1      28.723  38.886  48.352  1.00  0.00     0.002 A 
ENDBRANCH   4  11
BRANCH   1  21
HETATM   21  C   UNL     1      27.344  44.417  53.437  1.00  0.00     0.072 A 
HETATM   22  C   UNL     1      28.369  43.453  53.512  1.00  0.00     0.095 A 
HETATM   23  C   UNL     1      29.398  43.575  54.449  1.00  0.00     0.042 A 
HETATM   24  C   UNL     1      29.435  44.689  55.285  1.00  0.00     0.045 A 
HETATM   25  C   UNL     1      28.442  45.659  55.181  1.00  0.00     0.118 A 
HETATM   26  C   UNL     1      27.397  45.534  54.270  1.00  0.00     0.074 A 
HETATM   27  F   UNL     1      28.493  46.732  55.981  1.00  0.00    -0.206 F 
BRANCH  22  28
HETATM   28  O   UNL     1      28.268  42.365  52.674  1.00  0.00    -0.354 OA
HETATM   29  C   UNL     1      28.438  41.125  53.361  1.00  0.00     0.210 C 
ENDBRANCH  22  28
ENDBRANCH   1  21
TORSDOF 3
ENDMDL
MODEL 9
REMARK VINA RESULT:      -8.0      5.134      8.818
REMARK  3 active torsions:
REMARK  status: ('A' for Active; 'I' for Inactive)
REMARK    1  A    between atoms: O_2  and  C_3 
REMARK    2  A    between atoms: C_4  and  N_5 
REMARK       I    between atoms: N_5  and  C_6 
REMARK       I    between atoms: C_6  and  N_7 
REMARK    3  A    between atoms: C_8  and  C_9 
ROOT
HETATM    1  N   UNL     1      24.333  47.296  50.930  1.00  0.00    -0.306 N 
HETATM    2  C   UNL     1      24.757  47.975  49.815  1.00  0.00     0.323 C 
HETATM    3  N   UNL     1      23.763  48.730  49.195  1.00  0.00    -0.324 N 
HETATM    4  C   UNL     1      22.326  48.395  49.236  1.00  0.00     0.139 C 
HETATM    5  C   UNL     1      21.482  49.680  49.251  1.00  0.00     0.032 C 
HETATM    6  C   UNL     1      21.863  50.652  48.133  1.00  0.00     0.004 C 
HETATM    7  C   UNL     1      23.361  50.932  48.149  1.00  0.00     0.020 C 
HETATM    8  C   UNL     1      24.175  49.643  48.125  1.00  0.00     0.128 C 
HETATM    9  O   UNL     1      25.903  47.930  49.377  1.00  0.00    -0.247 OA
HETATM   10  H   UNL     1      23.556  47.704  51.433  1.00  0.00     0.171 HD
ENDROOT
BRANCH   4  11
HETATM   11  C   UNL     1      21.989  47.455  48.101  1.00  0.00     0.033 A 
HETATM   12  N   UNL     1      22.620  46.236  47.957  1.00  0.00    -0.357 N 
HETATM   13  H   UNL     1      23.361  45.896  48.557  1.00  0.00     0.166 HD
HETATM   14  C   UNL     1      22.146  45.563  46.857  1.00  0.00     0.042 A 
HETATM   15  C   UNL     1      21.162  46.362  46.281  1.00  0.00    -0.007 A 
HETATM   16  C   UNL     1      22.514  44.318  46.331  1.00  0.00     0.030 A 
HETATM   17  C   UNL     1      21.061  47.535  47.076  1.00  0.00     0.041 A 
HETATM   18  C   UNL     1      20.508  45.904  45.122  1.00  0.00     0.014 A 
HETATM   19  C   UNL     1      20.865  44.663  44.580  1.00  0.00     0.001 A 
HETATM   20  C   UNL     1      21.854  43.884  45.178  1.00  0.00     0.002 A 
ENDBRANCH   4  11
BRANCH   1  21
HETATM   21  C   UNL     1      25.036  46.330  51.681  1.00  0.00     0.072 A 
HETATM   22  C   UNL     1      24.714  44.980  51.439  1.00  0.00     0.095 A 
HETATM   23  C   UNL     1      25.344  43.956  52.151  1.00  0.00     0.042 A 
HETATM   24  C   UNL     1      26.336  44.275  53.076  1.00  0.00     0.045 A 
HETATM   25  C   UNL     1      26.679  45.607  53.284  1.00  0.00     0.118 A 
HETATM   26  C   UNL     1      26.040  46.637  52.599  1.00  0.00     0.074 A 
HETATM   27  F   UNL     1      27.643  45.902  54.166  1.00  0.00    -0.206 F 
BRANCH  22  28
HETATM   28  O   UNL     1      23.712  44.729  50.529  1.00  0.00    -0.354 OA
HETATM   29  C   UNL     1      23.642  43.353  50.155  1.00  0.00     0.210 C 
ENDBRANCH  22  28
ENDBRANCH   1  21
TORSDOF 3
ENDMDL
MODEL 10
REMARK VINA RESULT:      -7.9     16.839     18.796
REMARK  3 active torsions:
REMARK  status: ('A' for Active; 'I' for Inactive)
REMARK    1  A    between atoms: O_2  and  C_3 
REMARK    2  A    between atoms: C_4  and  N_5 
REMARK       I    between atoms: N_5  and  C_6 
REMARK       I    between atoms: C_6  and  N_7 
REMARK    3  A    between atoms: C_8  and  C_9 
ROOT
HETATM    1  N   UNL     1      36.056  45.534  65.845  1.00  0.00    -0.306 N 
HETATM    2  C   UNL     1      36.674  46.192  66.879  1.00  0.00     0.323 C 
HETATM    3  N   UNL     1      37.226  47.422  66.522  1.00  0.00    -0.324 N 
HETATM    4  C   UNL     1      37.720  47.743  65.169  1.00  0.00     0.139 C 
HETATM    5  C   UNL     1      37.472  49.227  64.853  1.00  0.00     0.032 C 
HETATM    6  C   UNL     1      37.997  50.161  65.945  1.00  0.00     0.004 C 
HETATM    7  C   UNL     1      37.456  49.752  67.310  1.00  0.00     0.020 C 
HETATM    8  C   UNL     1      37.721  48.279  67.603  1.00  0.00     0.128 C 
HETATM    9  O   UNL     1      36.755  45.755  68.023  1.00  0.00    -0.247 OA
HETATM   10  H   UNL     1      35.680  46.113  65.107  1.00  0.00     0.171 HD
ENDROOT
BRANCH   4  11
HETATM   11  C   UNL     1      39.166  47.323  65.041  1.00  0.00     0.033 A 
HETATM   12  N   UNL     1      39.531  46.176  64.366  1.00  0.00    -0.357 N 
HETATM   13  H   UNL     1      38.883  45.522  63.947  1.00  0.00     0.166 HD
HETATM   14  C   UNL     1      40.896  46.007  64.384  1.00  0.00     0.042 A 
HETATM   15  C   UNL     1      41.432  47.090  65.074  1.00  0.00    -0.007 A 
HETATM   16  C   UNL     1      41.686  44.983  63.849  1.00  0.00     0.030 A 
HETATM   17  C   UNL     1      40.344  47.914  65.466  1.00  0.00     0.041 A 
HETATM   18  C   UNL     1      42.828  47.162  65.243  1.00  0.00     0.014 A 
HETATM   19  C   UNL     1      43.635  46.147  64.717  1.00  0.00     0.001 A 
HETATM   20  C   UNL     1      43.069  45.074  64.030  1.00  0.00     0.002 A 
ENDBRANCH   4  11
BRANCH   1  21
HETATM   21  C   UNL     1      35.547  44.217  65.832  1.00  0.00     0.072 A 
HETATM   22  C   UNL     1      36.299  43.254  65.131  1.00  0.00     0.095 A 
HETATM   23  C   UNL     1      35.861  41.930  65.045  1.00  0.00     0.042 A 
HETATM   24  C   UNL     1      34.694  41.550  65.704  1.00  0.00     0.045 A 
HETATM   25  C   UNL     1      33.975  42.496  66.429  1.00  0.00     0.118 A 
HETATM   26  C   UNL     1      34.387  43.824  66.498  1.00  0.00     0.074 A 
HETATM   27  F   UNL     1      32.860  42.119  67.068  1.00  0.00    -0.206 F 
BRANCH  22  28
HETATM   28  O   UNL     1      37.432  43.693  64.484  1.00  0.00    -0.354 OA
HETATM   29  C   UNL     1      37.804  42.850  63.394  1.00  0.00     0.210 C 
ENDBRANCH  22  28
ENDBRANCH   1  21
TORSDOF 3
ENDMDL
