MODEL 1
REMARK VINA RESULT:     -10.3      0.000      0.000
REMARK  3 active torsions:
REMARK  status: ('A' for Active; 'I' for Inactive)
REMARK    1  A    between atoms: C_5  and  C_6 
REMARK       I    between atoms: C_6  and  N_7 
REMARK    2  A    between atoms: N_7  and  C_8 
REMARK    3  A    between atoms: C_13  and  C_14 
ROOT
HETATM    1  C   UNL     1      26.991  42.157  52.133  1.00  0.00     0.137 A 
HETATM    2  N   UNL     1      26.909  40.807  51.901  1.00  0.00    -0.262 N 
HETATM    3  H   UNL     1      27.314  40.072  52.476  1.00  0.00     0.191 HD
HETATM    4  N   UNL     1      26.182  40.485  50.812  1.00  0.00    -0.185 NA
HETATM    5  C   UNL     1      25.820  41.674  50.322  1.00  0.00     0.155 A 
HETATM    6  C   UNL     1      26.308  42.756  51.091  1.00  0.00     0.039 A 
ENDROOT
BRANCH   1   7
HETATM    7  N   UNL     1      27.632  42.713  53.226  1.00  0.00    -0.307 N 
HETATM    8  C   UNL     1      28.895  43.269  53.132  1.00  0.00     0.258 C 
HETATM    9  O   UNL     1      29.559  43.310  52.099  1.00  0.00    -0.267 OA
HETATM   10  H   UNL     1      27.174  42.638  54.127  1.00  0.00     0.170 HD
BRANCH   8  11
HETATM   11  C   UNL     1      29.477  43.779  54.398  1.00  0.00     0.044 A 
HETATM   12  C   UNL     1      28.981  44.924  55.073  1.00  0.00     0.008 A 
HETATM   13  C   UNL     1      29.577  45.281  56.288  1.00  0.00     0.043 A 
HETATM   14  C   UNL     1      27.980  45.911  54.818  1.00  0.00     0.032 A 
HETATM   15  C   UNL     1      30.653  44.577  56.846  1.00  0.00     0.030 A 
HETATM   16  N   UNL     1      28.920  46.394  56.764  1.00  0.00    -0.365 N 
HETATM   17  C   UNL     1      31.150  43.480  56.143  1.00  0.00     0.003 A 
HETATM   18  C   UNL     1      30.574  43.085  54.939  1.00  0.00     0.018 A 
HETATM   19  H   UNL     1      29.142  46.862  57.633  1.00  0.00     0.165 HD
HETATM   20  C   UNL     1      27.955  46.785  55.880  1.00  0.00     0.089 A 
ENDBRANCH   8  11
ENDBRANCH   1   7
BRANCH   6  21
HETATM   21  C   UNL     1      26.164  44.182  50.893  1.00  0.00    -0.018 A 
HETATM   22  C   UNL     1      26.999  44.851  49.986  1.00  0.00     0.052 A 
HETATM   23  C   UNL     1      26.833  46.211  49.837  1.00  0.00     0.105 A 
HETATM   24  C   UNL     1      25.875  46.905  50.537  1.00  0.00     0.105 A 
HETATM   25  O   UNL     1      27.561  47.013  49.015  1.00  0.00    -0.323 OA
HETATM   26  O   UNL     1      25.879  48.233  50.243  1.00  0.00    -0.323 OA
HETATM   27  C   UNL     1      25.028  46.278  51.425  1.00  0.00     0.040 A 
HETATM   28  C   UNL     1      26.946  48.293  49.273  1.00  0.00     0.352 A 
HETATM   29  C   UNL     1      25.175  44.897  51.601  1.00  0.00     0.015 A 
ENDBRANCH   6  21
TORSDOF 3
ENDMDL
MODEL 2
REMARK VINA RESULT:      -9.9      1.081      2.056
REMARK  3 active torsions:
REMARK  status: ('A' for Active; 'I' for Inactive)
REMARK    1  A    between atoms: C_5  and  C_6 
REMARK       I    between atoms: C_6  and  N_7 
REMARK    2  A    between atoms: N_7  and  C_8 
REMARK    3  A    between atoms: C_13  and  C_14 
ROOT
HETATM    1  C   UNL     1      26.464  43.214  51.878  1.00  0.00     0.137 A 
HETATM    2  N   UNL     1      26.403  41.848  51.758  1.00  0.00    -0.262 N 
HETATM    3  H   UNL     1      26.715  41.169  52.449  1.00  0.00     0.191 HD
HETATM    4  N   UNL     1      25.834  41.428  50.611  1.00  0.00    -0.185 NA
HETATM    5  C   UNL     1      25.557  42.567  49.971  1.00  0.00     0.155 A 
HETATM    6  C   UNL     1      25.941  43.715  50.701  1.00  0.00     0.039 A 
ENDROOT
BRANCH   1   7
HETATM    7  N   UNL     1      26.950  43.868  52.998  1.00  0.00    -0.307 N 
HETATM    8  C   UNL     1      28.304  44.039  53.218  1.00  0.00     0.258 C 
HETATM    9  O   UNL     1      29.187  43.626  52.467  1.00  0.00    -0.267 OA
HETATM   10  H   UNL     1      26.278  44.161  53.698  1.00  0.00     0.170 HD
BRANCH   8  11
HETATM   11  C   UNL     1      28.677  44.713  54.486  1.00  0.00     0.044 A 
HETATM   12  C   UNL     1      29.720  44.252  55.330  1.00  0.00     0.008 A 
HETATM   13  C   UNL     1      30.017  45.000  56.476  1.00  0.00     0.043 A 
HETATM   14  C   UNL     1      30.601  43.128  55.352  1.00  0.00     0.032 A 
HETATM   15  C   UNL     1      29.313  46.157  56.835  1.00  0.00     0.030 A 
HETATM   16  N   UNL     1      31.067  44.381  57.117  1.00  0.00    -0.365 N 
HETATM   17  C   UNL     1      28.265  46.567  56.011  1.00  0.00     0.003 A 
HETATM   18  C   UNL     1      27.950  45.858  54.855  1.00  0.00     0.018 A 
HETATM   19  H   UNL     1      31.491  44.713  57.973  1.00  0.00     0.165 HD
HETATM   20  C   UNL     1      31.425  43.246  56.446  1.00  0.00     0.089 A 
ENDBRANCH   8  11
ENDBRANCH   1   7
BRANCH   6  21
HETATM   21  C   UNL     1      25.840  45.117  50.358  1.00  0.00    -0.018 A 
HETATM   22  C   UNL     1      26.929  45.772  49.763  1.00  0.00     0.052 A 
HETATM   23  C   UNL     1      26.791  47.111  49.463  1.00  0.00     0.105 A 
HETATM   24  C   UNL     1      25.628  47.795  49.719  1.00  0.00     0.105 A 
HETATM   25  O   UNL     1      27.746  47.898  48.899  1.00  0.00    -0.323 OA
HETATM   26  O   UNL     1      25.702  49.101  49.347  1.00  0.00    -0.323 OA
HETATM   27  C   UNL     1      24.534  47.180  50.289  1.00  0.00     0.040 A 
HETATM   28  C   UNL     1      27.046  49.158  48.822  1.00  0.00     0.352 A 
HETATM   29  C   UNL     1      24.644  45.822  50.609  1.00  0.00     0.015 A 
ENDBRANCH   6  21
TORSDOF 3
ENDMDL
MODEL 3
REMARK VINA RESULT:      -9.5      2.565      6.872
REMARK  3 active torsions:
REMARK  status: ('A' for Active; 'I' for Inactive)
REMARK    1  A    between atoms: C_5  and  C_6 
REMARK       I    between atoms: C_6  and  N_7 
REMARK    2  A    between atoms: N_7  and  C_8 
REMARK    3  A    between atoms: C_13  and  C_14 
ROOT
HETATM    1  C   UNL     1      26.918  46.446  54.081  1.00  0.00     0.137 A 
HETATM    2  N   UNL     1      25.961  47.383  53.781  1.00  0.00    -0.262 N 
HETATM    3  H   UNL     1      25.403  47.423  52.931  1.00  0.00     0.191 HD
HETATM    4  N   UNL     1      25.763  48.289  54.759  1.00  0.00    -0.185 NA
HETATM    5  C   UNL     1      26.648  47.931  55.693  1.00  0.00     0.155 A 
HETATM    6  C   UNL     1      27.410  46.800  55.322  1.00  0.00     0.039 A 
ENDROOT
BRANCH   1   7
HETATM    7  N   UNL     1      27.242  45.385  53.252  1.00  0.00    -0.307 N 
HETATM    8  C   UNL     1      26.280  44.537  52.736  1.00  0.00     0.258 C 
HETATM    9  O   UNL     1      25.076  44.630  52.969  1.00  0.00    -0.267 OA
HETATM   10  H   UNL     1      28.225  45.202  53.086  1.00  0.00     0.170 HD
BRANCH   8  11
HETATM   11  C   UNL     1      26.780  43.414  51.905  1.00  0.00     0.044 A 
HETATM   12  C   UNL     1      27.525  42.330  52.436  1.00  0.00     0.008 A 
HETATM   13  C   UNL     1      27.900  41.300  51.564  1.00  0.00     0.043 A 
HETATM   14  C   UNL     1      28.069  41.986  53.711  1.00  0.00     0.032 A 
HETATM   15  C   UNL     1      27.597  41.311  50.196  1.00  0.00     0.030 A 
HETATM   16  N   UNL     1      28.583  40.358  52.301  1.00  0.00    -0.365 N 
HETATM   17  C   UNL     1      26.900  42.408  49.690  1.00  0.00     0.003 A 
HETATM   18  C   UNL     1      26.497  43.444  50.528  1.00  0.00     0.018 A 
HETATM   19  H   UNL     1      28.964  39.502  51.922  1.00  0.00     0.165 HD
HETATM   20  C   UNL     1      28.693  40.766  53.600  1.00  0.00     0.089 A 
ENDBRANCH   8  11
ENDBRANCH   1   7
BRANCH   6  21
HETATM   21  C   UNL     1      28.474  46.118  56.028  1.00  0.00    -0.018 A 
HETATM   22  C   UNL     1      29.252  45.159  55.365  1.00  0.00     0.052 A 
HETATM   23  C   UNL     1      30.247  44.527  56.080  1.00  0.00     0.105 A 
HETATM   24  C   UNL     1      30.492  44.824  57.399  1.00  0.00     0.105 A 
HETATM   25  O   UNL     1      31.082  43.568  55.598  1.00  0.00    -0.323 OA
HETATM   26  O   UNL     1      31.514  44.090  57.914  1.00  0.00    -0.323 OA
HETATM   27  C   UNL     1      29.756  45.771  58.078  1.00  0.00     0.040 A 
HETATM   28  C   UNL     1      31.888  43.300  56.765  1.00  0.00     0.352 A 
HETATM   29  C   UNL     1      28.736  46.428  57.380  1.00  0.00     0.015 A 
ENDBRANCH   6  21
TORSDOF 3
ENDMDL
MODEL 4
REMARK VINA RESULT:      -9.4      2.898      6.887
REMARK  3 active torsions:
REMARK  status: ('A' for Active; 'I' for Inactive)
REMARK    1  A    between atoms: C_5  and  C_6 
REMARK       I    between atoms: C_6  and  N_7 
REMARK    2  A    between atoms: N_7  and  C_8 
REMARK    3  A    between atoms: C_13  and  C_14 
ROOT
HETATM    1  C   UNL     1      27.070  46.265  54.198  1.00  0.00     0.137 A 
HETATM    2  N   UNL     1      26.107  47.169  53.825  1.00  0.00    -0.262 N 
HETATM    3  H   UNL     1      25.555  47.143  52.971  1.00  0.00     0.191 HD
HETATM    4  N   UNL     1      25.894  48.141  54.734  1.00  0.00    -0.185 NA
HETATM    5  C   UNL     1      26.775  47.860  55.698  1.00  0.00     0.155 A 
HETATM    6  C   UNL     1      27.550  46.711  55.414  1.00  0.00     0.039 A 
ENDROOT
BRANCH   1   7
HETATM    7  N   UNL     1      27.410  45.150  53.450  1.00  0.00    -0.307 N 
HETATM    8  C   UNL     1      26.846  43.909  53.685  1.00  0.00     0.258 C 
HETATM    9  O   UNL     1      26.022  43.678  54.567  1.00  0.00    -0.267 OA
HETATM   10  H   UNL     1      28.145  45.254  52.760  1.00  0.00     0.170 HD
BRANCH   8  11
HETATM   11  C   UNL     1      27.345  42.797  52.838  1.00  0.00     0.044 A 
HETATM   12  C   UNL     1      27.071  42.698  51.450  1.00  0.00     0.008 A 
HETATM   13  C   UNL     1      27.639  41.632  50.743  1.00  0.00     0.043 A 
HETATM   14  C   UNL     1      26.287  43.427  50.505  1.00  0.00     0.032 A 
HETATM   15  C   UNL     1      28.436  40.651  51.350  1.00  0.00     0.030 A 
HETATM   16  N   UNL     1      27.259  41.757  49.424  1.00  0.00    -0.365 N 
HETATM   17  C   UNL     1      28.656  40.748  52.724  1.00  0.00     0.003 A 
HETATM   18  C   UNL     1      28.121  41.802  53.459  1.00  0.00     0.018 A 
HETATM   19  H   UNL     1      27.535  41.121  48.687  1.00  0.00     0.165 HD
HETATM   20  C   UNL     1      26.439  42.838  49.271  1.00  0.00     0.089 A 
ENDBRANCH   8  11
ENDBRANCH   1   7
BRANCH   6  21
HETATM   21  C   UNL     1      28.614  46.092  56.175  1.00  0.00    -0.018 A 
HETATM   22  C   UNL     1      29.437  45.130  55.572  1.00  0.00     0.052 A 
HETATM   23  C   UNL     1      30.431  44.559  56.338  1.00  0.00     0.105 A 
HETATM   24  C   UNL     1      30.632  44.917  57.649  1.00  0.00     0.105 A 
HETATM   25  O   UNL     1      31.306  43.606  55.918  1.00  0.00    -0.323 OA
HETATM   26  O   UNL     1      31.661  44.237  58.220  1.00  0.00    -0.323 OA
HETATM   27  C   UNL     1      29.852  45.869  58.269  1.00  0.00     0.040 A 
HETATM   28  C   UNL     1      32.088  43.412  57.116  1.00  0.00     0.352 A 
HETATM   29  C   UNL     1      28.831  46.465  57.518  1.00  0.00     0.015 A 
ENDBRANCH   6  21
TORSDOF 3
ENDMDL
MODEL 5
REMARK VINA RESULT:      -9.3      5.470      9.278
REMARK  3 active torsions:
REMARK  status: ('A' for Active; 'I' for Inactive)
REMARK    1  A    between atoms: C_5  and  C_6 
REMARK       I    between atoms: C_6  and  N_7 
REMARK    2  A    between atoms: N_7  and  C_8 
REMARK    3  A    between atoms: C_13  and  C_14 
ROOT
HETATM    1  C   UNL     1      25.255  49.151  49.091  1.00  0.00     0.137 A 
HETATM    2  N   UNL     1      26.067  49.967  48.343  1.00  0.00    -0.262 N 
HETATM    3  H   UNL     1      25.768  50.759  47.777  1.00  0.00     0.191 HD
HETATM    4  N   UNL     1      27.376  49.660  48.432  1.00  0.00    -0.185 NA
HETATM    5  C   UNL     1      27.387  48.595  49.238  1.00  0.00     0.155 A 
HETATM    6  C   UNL     1      26.095  48.219  49.669  1.00  0.00     0.039 A 
ENDROOT
BRANCH   1   7
HETATM    7  N   UNL     1      23.885  49.320  49.200  1.00  0.00    -0.307 N 
HETATM    8  C   UNL     1      23.127  49.851  48.172  1.00  0.00     0.258 C 
HETATM    9  O   UNL     1      23.586  50.229  47.095  1.00  0.00    -0.267 OA
HETATM   10  H   UNL     1      23.455  49.105  50.092  1.00  0.00     0.170 HD
BRANCH   8  11
HETATM   11  C   UNL     1      21.680  50.020  48.451  1.00  0.00     0.044 A 
HETATM   12  C   UNL     1      20.791  48.928  48.624  1.00  0.00     0.008 A 
HETATM   13  C   UNL     1      19.456  49.210  48.936  1.00  0.00     0.043 A 
HETATM   14  C   UNL     1      20.884  47.506  48.530  1.00  0.00     0.032 A 
HETATM   15  C   UNL     1      18.959  50.515  49.054  1.00  0.00     0.030 A 
HETATM   16  N   UNL     1      18.799  48.007  49.081  1.00  0.00    -0.365 N 
HETATM   17  C   UNL     1      19.843  51.572  48.838  1.00  0.00     0.003 A 
HETATM   18  C   UNL     1      21.182  51.332  48.541  1.00  0.00     0.018 A 
HETATM   19  H   UNL     1      17.819  47.915  49.314  1.00  0.00     0.165 HD
HETATM   20  C   UNL     1      19.654  46.971  48.834  1.00  0.00     0.089 A 
ENDBRANCH   8  11
ENDBRANCH   1   7
BRANCH   6  21
HETATM   21  C   UNL     1      25.675  47.124  50.517  1.00  0.00    -0.018 A 
HETATM   22  C   UNL     1      26.015  47.121  51.877  1.00  0.00     0.052 A 
HETATM   23  C   UNL     1      25.603  46.052  52.644  1.00  0.00     0.105 A 
HETATM   24  C   UNL     1      24.869  45.019  52.113  1.00  0.00     0.105 A 
HETATM   25  O   UNL     1      25.856  45.884  53.970  1.00  0.00    -0.323 OA
HETATM   26  O   UNL     1      24.566  44.070  53.038  1.00  0.00    -0.323 OA
HETATM   27  C   UNL     1      24.504  44.996  50.784  1.00  0.00     0.040 A 
HETATM   28  C   UNL     1      25.189  44.627  54.214  1.00  0.00     0.352 A 
HETATM   29  C   UNL     1      24.912  46.066  49.978  1.00  0.00     0.015 A 
ENDBRANCH   6  21
TORSDOF 3
ENDMDL
MODEL 6
REMARK VINA RESULT:      -9.1      1.785      2.082
REMARK  3 active torsions:
REMARK  status: ('A' for Active; 'I' for Inactive)
REMARK    1  A    between atoms: C_5  and  C_6 
REMARK       I    between atoms: C_6  and  N_7 
REMARK    2  A    between atoms: N_7  and  C_8 
REMARK    3  A    between atoms: C_13  and  C_14 
ROOT
HETATM    1  C   UNL     1      28.317  41.752  51.239  1.00  0.00     0.137 A 
HETATM    2  N   UNL     1      28.722  40.451  51.068  1.00  0.00    -0.262 N 
HETATM    3  H   UNL     1      29.450  39.974  51.595  1.00  0.00     0.191 HD
HETATM    4  N   UNL     1      28.029  39.787  50.123  1.00  0.00    -0.185 NA
HETATM    5  C   UNL     1      27.181  40.708  49.658  1.00  0.00     0.155 A 
HETATM    6  C   UNL     1      27.323  41.959  50.302  1.00  0.00     0.039 A 
ENDROOT
BRANCH   1   7
HETATM    7  N   UNL     1      28.844  42.602  52.197  1.00  0.00    -0.307 N 
HETATM    8  C   UNL     1      28.551  42.464  53.541  1.00  0.00     0.258 C 
HETATM    9  O   UNL     1      27.802  41.605  54.004  1.00  0.00    -0.267 OA
HETATM   10  H   UNL     1      29.403  43.383  51.874  1.00  0.00     0.170 HD
BRANCH   8  11
HETATM   11  C   UNL     1      29.147  43.480  54.444  1.00  0.00     0.044 A 
HETATM   12  C   UNL     1      28.554  44.746  54.684  1.00  0.00     0.008 A 
HETATM   13  C   UNL     1      29.180  45.603  55.598  1.00  0.00     0.043 A 
HETATM   14  C   UNL     1      27.418  45.457  54.188  1.00  0.00     0.032 A 
HETATM   15  C   UNL     1      30.373  45.276  56.256  1.00  0.00     0.030 A 
HETATM   16  N   UNL     1      28.418  46.747  55.686  1.00  0.00    -0.365 N 
HETATM   17  C   UNL     1      30.959  44.042  55.971  1.00  0.00     0.003 A 
HETATM   18  C   UNL     1      30.359  43.157  55.080  1.00  0.00     0.018 A 
HETATM   19  H   UNL     1      28.636  47.535  56.280  1.00  0.00     0.165 HD
HETATM   20  C   UNL     1      27.352  46.670  54.835  1.00  0.00     0.089 A 
ENDBRANCH   8  11
ENDBRANCH   1   7
BRANCH   6  21
HETATM   21  C   UNL     1      26.625  43.207  50.082  1.00  0.00    -0.018 A 
HETATM   22  C   UNL     1      25.289  43.196  49.653  1.00  0.00     0.052 A 
HETATM   23  C   UNL     1      24.667  44.409  49.447  1.00  0.00     0.105 A 
HETATM   24  C   UNL     1      25.315  45.602  49.661  1.00  0.00     0.105 A 
HETATM   25  O   UNL     1      23.387  44.580  49.021  1.00  0.00    -0.323 OA
HETATM   26  O   UNL     1      24.523  46.675  49.399  1.00  0.00    -0.323 OA
HETATM   27  C   UNL     1      26.622  45.650  50.097  1.00  0.00     0.040 A 
HETATM   28  C   UNL     1      23.301  46.021  49.000  1.00  0.00     0.352 A 
HETATM   29  C   UNL     1      27.282  44.434  50.312  1.00  0.00     0.015 A 
ENDBRANCH   6  21
TORSDOF 3
ENDMDL
MODEL 7
REMARK VINA RESULT:      -8.9      1.706      2.203
REMARK  3 active torsions:
REMARK  status: ('A' for Active; 'I' for Inactive)
REMARK    1  A    between atoms: C_5  and  C_6 
REMARK       I    between atoms: C_6  and  N_7 
REMARK    2  A    between atoms: N_7  and  C_8 
REMARK    3  A    between atoms: C_13  and  C_14 
ROOT
HETATM    1  C   UNL     1      25.335  43.992  51.458  1.00  0.00     0.137 A 
HETATM    2  N   UNL     1      24.947  42.677  51.380  1.00  0.00    -0.262 N 
HETATM    3  H   UNL     1      25.123  41.955  52.075  1.00  0.00     0.191 HD
HETATM    4  N   UNL     1      24.240  42.384  50.270  1.00  0.00    -0.185 NA
HETATM    5  C   UNL     1      24.209  43.545  49.610  1.00  0.00     0.155 A 
HETATM    6  C   UNL     1      24.888  44.582  50.291  1.00  0.00     0.039 A 
ENDROOT
BRANCH   1   7
HETATM    7  N   UNL     1      26.014  44.531  52.537  1.00  0.00    -0.307 N 
HETATM    8  C   UNL     1      27.378  44.368  52.701  1.00  0.00     0.258 C 
HETATM    9  O   UNL     1      28.098  43.733  51.933  1.00  0.00    -0.267 OA
HETATM   10  H   UNL     1      25.466  44.997  53.252  1.00  0.00     0.170 HD
BRANCH   8  11
HETATM   11  C   UNL     1      27.959  44.957  53.932  1.00  0.00     0.044 A 
HETATM   12  C   UNL     1      27.465  46.143  54.532  1.00  0.00     0.008 A 
HETATM   13  C   UNL     1      28.061  46.577  55.722  1.00  0.00     0.043 A 
HETATM   14  C   UNL     1      26.465  47.113  54.214  1.00  0.00     0.032 A 
HETATM   15  C   UNL     1      29.136  45.909  56.324  1.00  0.00     0.030 A 
HETATM   16  N   UNL     1      27.404  47.719  56.126  1.00  0.00    -0.365 N 
HETATM   17  C   UNL     1      29.632  44.768  55.693  1.00  0.00     0.003 A 
HETATM   18  C   UNL     1      29.056  44.298  54.516  1.00  0.00     0.018 A 
HETATM   19  H   UNL     1      27.627  48.241  56.963  1.00  0.00     0.165 HD
HETATM   20  C   UNL     1      26.440  48.053  55.218  1.00  0.00     0.089 A 
ENDBRANCH   8  11
ENDBRANCH   1   7
BRANCH   6  21
HETATM   21  C   UNL     1      25.105  45.962  49.913  1.00  0.00    -0.018 A 
HETATM   22  C   UNL     1      26.410  46.436  49.713  1.00  0.00     0.052 A 
HETATM   23  C   UNL     1      26.569  47.760  49.364  1.00  0.00     0.105 A 
HETATM   24  C   UNL     1      25.494  48.601  49.199  1.00  0.00     0.105 A 
HETATM   25  O   UNL     1      27.757  48.385  49.146  1.00  0.00    -0.323 OA
HETATM   26  O   UNL     1      25.870  49.861  48.855  1.00  0.00    -0.323 OA
HETATM   27  C   UNL     1      24.199  48.164  49.372  1.00  0.00     0.040 A 
HETATM   28  C   UNL     1      27.306  49.716  48.817  1.00  0.00     0.352 A 
HETATM   29  C   UNL     1      24.004  46.825  49.732  1.00  0.00     0.015 A 
ENDBRANCH   6  21
TORSDOF 3
ENDMDL
MODEL 8
REMARK VINA RESULT:      -8.9      6.089      9.611
REMARK  3 active torsions:
REMARK  status: ('A' for Active; 'I' for Inactive)
REMARK    1  A    between atoms: C_5  and  C_6 
REMARK       I    between atoms: C_6  and  N_7 
REMARK    2  A    between atoms: N_7  and  C_8 
REMARK    3  A    between atoms: C_13  and  C_14 
ROOT
HETATM    1  C   UNL     1      24.655  49.140  48.571  1.00  0.00     0.137 A 
HETATM    2  N   UNL     1      25.368  50.081  47.872  1.00  0.00    -0.262 N 
HETATM    3  H   UNL     1      24.986  50.767  47.224  1.00  0.00     0.191 HD
HETATM    4  N   UNL     1      26.690  50.069  48.137  1.00  0.00    -0.185 NA
HETATM    5  C   UNL     1      26.819  49.065  49.008  1.00  0.00     0.155 A 
HETATM    6  C   UNL     1      25.589  48.435  49.306  1.00  0.00     0.039 A 
ENDROOT
BRANCH   1   7
HETATM    7  N   UNL     1      23.278  49.011  48.505  1.00  0.00    -0.307 N 
HETATM    8  C   UNL     1      22.429  49.854  49.198  1.00  0.00     0.258 C 
HETATM    9  O   UNL     1      22.803  50.766  49.933  1.00  0.00    -0.267 OA
HETATM   10  H   UNL     1      22.904  48.228  47.981  1.00  0.00     0.170 HD
BRANCH   8  11
HETATM   11  C   UNL     1      20.979  49.564  49.071  1.00  0.00     0.044 A 
HETATM   12  C   UNL     1      20.013  50.558  48.772  1.00  0.00     0.008 A 
HETATM   13  C   UNL     1      18.680  50.157  48.625  1.00  0.00     0.043 A 
HETATM   14  C   UNL     1      20.022  51.976  48.594  1.00  0.00     0.032 A 
HETATM   15  C   UNL     1      18.260  48.830  48.790  1.00  0.00     0.030 A 
HETATM   16  N   UNL     1      17.940  51.277  48.314  1.00  0.00    -0.365 N 
HETATM   17  C   UNL     1      19.222  47.878  49.125  1.00  0.00     0.003 A 
HETATM   18  C   UNL     1      20.560  48.235  49.265  1.00  0.00     0.018 A 
HETATM   19  H   UNL     1      16.942  51.274  48.148  1.00  0.00     0.165 HD
HETATM   20  C   UNL     1      18.742  52.382  48.297  1.00  0.00     0.089 A 
ENDBRANCH   8  11
ENDBRANCH   1   7
BRANCH   6  21
HETATM   21  C   UNL     1      25.302  47.309  50.168  1.00  0.00    -0.018 A 
HETATM   22  C   UNL     1      25.774  47.300  51.489  1.00  0.00     0.052 A 
HETATM   23  C   UNL     1      25.485  46.202  52.271  1.00  0.00     0.105 A 
HETATM   24  C   UNL     1      24.748  45.146  51.793  1.00  0.00     0.105 A 
HETATM   25  O   UNL     1      25.875  46.024  53.562  1.00  0.00    -0.323 OA
HETATM   26  O   UNL     1      24.578  44.170  52.724  1.00  0.00    -0.323 OA
HETATM   27  C   UNL     1      24.255  45.128  50.506  1.00  0.00     0.040 A 
HETATM   28  C   UNL     1      25.289  44.736  53.845  1.00  0.00     0.352 A 
HETATM   29  C   UNL     1      24.535  46.227  49.685  1.00  0.00     0.015 A 
ENDBRANCH   6  21
TORSDOF 3
ENDMDL
MODEL 9
REMARK VINA RESULT:      -8.8      2.782      3.928
REMARK  3 active torsions:
REMARK  status: ('A' for Active; 'I' for Inactive)
REMARK    1  A    between atoms: C_5  and  C_6 
REMARK       I    between atoms: C_6  and  N_7 
REMARK    2  A    between atoms: N_7  and  C_8 
REMARK    3  A    between atoms: C_13  and  C_14 
ROOT
HETATM    1  C   UNL     1      28.042  40.726  50.962  1.00  0.00     0.137 A 
HETATM    2  N   UNL     1      29.031  39.773  50.986  1.00  0.00    -0.262 N 
HETATM    3  H   UNL     1      29.893  39.814  51.525  1.00  0.00     0.191 HD
HETATM    4  N   UNL     1      28.760  38.690  50.231  1.00  0.00    -0.185 NA
HETATM    5  C   UNL     1      27.576  38.984  49.686  1.00  0.00     0.155 A 
HETATM    6  C   UNL     1      27.084  40.246  50.090  1.00  0.00     0.039 A 
ENDROOT
BRANCH   1   7
HETATM    7  N   UNL     1      28.077  41.890  51.711  1.00  0.00    -0.307 N 
HETATM    8  C   UNL     1      28.228  41.874  53.086  1.00  0.00     0.258 C 
HETATM    9  O   UNL     1      28.328  40.851  53.761  1.00  0.00    -0.267 OA
HETATM   10  H   UNL     1      27.918  42.765  51.226  1.00  0.00     0.170 HD
BRANCH   8  11
HETATM   11  C   UNL     1      28.196  43.196  53.759  1.00  0.00     0.044 A 
HETATM   12  C   UNL     1      29.222  43.649  54.626  1.00  0.00     0.008 A 
HETATM   13  C   UNL     1      29.109  44.937  55.163  1.00  0.00     0.043 A 
HETATM   14  C   UNL     1      30.422  43.097  55.172  1.00  0.00     0.032 A 
HETATM   15  C   UNL     1      28.018  45.778  54.905  1.00  0.00     0.030 A 
HETATM   16  N   UNL     1      30.221  45.162  55.944  1.00  0.00    -0.365 N 
HETATM   17  C   UNL     1      27.001  45.293  54.082  1.00  0.00     0.003 A 
HETATM   18  C   UNL     1      27.085  44.024  53.517  1.00  0.00     0.018 A 
HETATM   19  H   UNL     1      30.401  46.020  56.449  1.00  0.00     0.165 HD
HETATM   20  C   UNL     1      31.020  44.054  55.958  1.00  0.00     0.089 A 
ENDBRANCH   8  11
ENDBRANCH   1   7
BRANCH   6  21
HETATM   21  C   UNL     1      25.869  40.938  49.716  1.00  0.00    -0.018 A 
HETATM   22  C   UNL     1      25.348  41.939  50.549  1.00  0.00     0.052 A 
HETATM   23  C   UNL     1      24.183  42.563  50.158  1.00  0.00     0.105 A 
HETATM   24  C   UNL     1      23.545  42.238  48.986  1.00  0.00     0.105 A 
HETATM   25  O   UNL     1      23.537  43.540  50.849  1.00  0.00    -0.323 OA
HETATM   26  O   UNL     1      22.417  42.970  48.790  1.00  0.00    -0.323 OA
HETATM   27  C   UNL     1      24.036  41.270  48.136  1.00  0.00     0.040 A 
HETATM   28  C   UNL     1      22.422  43.799  49.972  1.00  0.00     0.352 A 
HETATM   29  C   UNL     1      25.216  40.615  48.508  1.00  0.00     0.015 A 
ENDBRANCH   6  21
TORSDOF 3
ENDMDL
MODEL 10
REMARK VINA RESULT:      -8.7      2.857      4.886
REMARK  3 active torsions:
REMARK  status: ('A' for Active; 'I' for Inactive)
REMARK    1  A    between atoms: C_5  and  C_6 
REMARK       I    between atoms: C_6  and  N_7 
REMARK    2  A    between atoms: N_7  and  C_8 
REMARK    3  A    between atoms: C_13  and  C_14 
ROOT
HETATM    1  C   UNL     1      26.638  43.620  50.601  1.00  0.00     0.137 A 
HETATM    2  N   UNL     1      25.602  44.513  50.480  1.00  0.00    -0.262 N 
HETATM    3  H   UNL     1      25.426  45.315  51.081  1.00  0.00     0.191 HD
HETATM    4  N   UNL     1      24.797  44.271  49.427  1.00  0.00    -0.185 NA
HETATM    5  C   UNL     1      25.323  43.170  48.884  1.00  0.00     0.155 A 
HETATM    6  C   UNL     1      26.462  42.705  49.581  1.00  0.00     0.039 A 
ENDROOT
BRANCH   1   7
HETATM    7  N   UNL     1      27.623  43.710  51.570  1.00  0.00    -0.307 N 
HETATM    8  C   UNL     1      27.327  43.689  52.921  1.00  0.00     0.258 C 
HETATM    9  O   UNL     1      26.190  43.606  53.381  1.00  0.00    -0.267 OA
HETATM   10  H   UNL     1      28.575  43.864  51.259  1.00  0.00     0.170 HD
BRANCH   8  11
HETATM   11  C   UNL     1      28.480  43.847  53.842  1.00  0.00     0.044 A 
HETATM   12  C   UNL     1      28.552  44.867  54.825  1.00  0.00     0.008 A 
HETATM   13  C   UNL     1      29.666  44.885  55.672  1.00  0.00     0.043 A 
HETATM   14  C   UNL     1      27.752  45.989  55.199  1.00  0.00     0.032 A 
HETATM   15  C   UNL     1      30.718  43.964  55.571  1.00  0.00     0.030 A 
HETATM   16  N   UNL     1      29.505  45.934  56.550  1.00  0.00    -0.365 N 
HETATM   17  C   UNL     1      30.643  42.996  54.569  1.00  0.00     0.003 A 
HETATM   18  C   UNL     1      29.544  42.936  53.716  1.00  0.00     0.018 A 
HETATM   19  H   UNL     1      30.163  46.176  57.279  1.00  0.00     0.165 HD
HETATM   20  C   UNL     1      28.352  46.610  56.270  1.00  0.00     0.089 A 
ENDBRANCH   8  11
ENDBRANCH   1   7
BRANCH   6  21
HETATM   21  C   UNL     1      27.298  41.549  49.338  1.00  0.00    -0.018 A 
HETATM   22  C   UNL     1      27.800  40.808  50.418  1.00  0.00     0.052 A 
HETATM   23  C   UNL     1      28.600  39.721  50.139  1.00  0.00     0.105 A 
HETATM   24  C   UNL     1      28.897  39.351  48.849  1.00  0.00     0.105 A 
HETATM   25  O   UNL     1      29.178  38.905  51.061  1.00  0.00    -0.323 OA
HETATM   26  O   UNL     1      29.698  38.254  48.796  1.00  0.00    -0.323 OA
HETATM   27  C   UNL     1      28.409  40.047  47.764  1.00  0.00     0.040 A 
HETATM   28  C   UNL     1      29.867  37.973  50.202  1.00  0.00     0.352 A 
HETATM   29  C   UNL     1      27.596  41.159  48.015  1.00  0.00     0.015 A 
ENDBRANCH   6  21
TORSDOF 3
ENDMDL
