MODEL 1
REMARK VINA RESULT:      -7.3      0.000      0.000
REMARK  4 active torsions:
REMARK  status: ('A' for Active; 'I' for Inactive)
REMARK    1  A    between atoms: C_2  and  N_3 
REMARK       I    between atoms: N_3  and  C_4 
REMARK    2  A    between atoms: C_4  and  C_5 
REMARK    3  A    between atoms: C_5  and  N_6 
REMARK    4  A    between atoms: N_6  and  C_7 
ROOT
HETATM    1  C   UNL     1      28.716  43.375  52.943  1.00  0.00     0.022 A 
HETATM    2  C   UNL     1      29.123  44.001  54.159  1.00  0.00     0.013 A 
HETATM    3  C   UNL     1      28.417  45.149  54.609  1.00  0.00     0.044 A 
HETATM    4  C   UNL     1      28.758  45.790  55.811  1.00  0.00     0.032 A 
HETATM    5  C   UNL     1      29.813  45.313  56.587  1.00  0.00     0.021 A 
HETATM    6  C   UNL     1      30.531  44.203  56.159  1.00  0.00     0.012 A 
HETATM    7 BR   UNL     1      31.971  43.563  57.202  1.00  0.00    -0.051 Br
HETATM    8  C   UNL     1      30.199  43.556  54.965  1.00  0.00     0.034 A 
HETATM    9  N   UNL     1      27.410  45.636  53.863  1.00  0.00    -0.365 N 
HETATM   10  H   UNL     1      26.914  46.463  54.194  1.00  0.00     0.165 HD
HETATM   11  C   UNL     1      27.042  45.103  52.694  1.00  0.00     0.090 A 
HETATM   12  C   UNL     1      27.689  43.978  52.207  1.00  0.00     0.041 A 
ENDROOT
BRANCH   1  13
HETATM   13  N   UNL     1      29.430  42.277  52.439  1.00  0.00    -0.283 NA
HETATM   14  H   UNL     1      30.410  42.281  52.729  1.00  0.00     0.128 HD
BRANCH  13  15
HETATM   15  C   UNL     1      28.894  40.903  52.585  1.00  0.00     0.195 C 
BRANCH  15  16
HETATM   16  C   UNL     1      28.599  40.283  51.214  1.00  0.00     0.230 C 
HETATM   17  N   UNL     1      29.082  38.998  51.071  1.00  0.00    -0.360 N 
HETATM   18  H   UNL     1      29.506  38.560  51.882  1.00  0.00     0.162 HD
HETATM   19  O   UNL     1      28.025  40.905  50.327  1.00  0.00    -0.272 OA
BRANCH  17  20
HETATM   20  C   UNL     1      28.926  38.241  49.848  1.00  0.00     0.118 C 
HETATM   21  C   UNL     1      30.228  38.157  49.074  1.00  0.00     0.026 C 
ENDBRANCH  17  20
ENDBRANCH  15  16
ENDBRANCH  13  15
ENDBRANCH   1  13
TORSDOF 4
ENDMDL
MODEL 2
REMARK VINA RESULT:      -7.1      4.051      5.575
REMARK  4 active torsions:
REMARK  status: ('A' for Active; 'I' for Inactive)
REMARK    1  A    between atoms: C_2  and  N_3 
REMARK       I    between atoms: N_3  and  C_4 
REMARK    2  A    between atoms: C_4  and  C_5 
REMARK    3  A    between atoms: C_5  and  N_6 
REMARK    4  A    between atoms: N_6  and  C_7 
ROOT
HETATM    1  C   UNL     1      26.396  46.118  53.302  1.00  0.00     0.022 A 
HETATM    2  C   UNL     1      27.491  45.764  54.146  1.00  0.00     0.013 A 
HETATM    3  C   UNL     1      27.780  46.579  55.273  1.00  0.00     0.044 A 
HETATM    4  C   UNL     1      28.830  46.263  56.151  1.00  0.00     0.032 A 
HETATM    5  C   UNL     1      29.622  45.139  55.923  1.00  0.00     0.021 A 
HETATM    6  C   UNL     1      29.371  44.337  54.818  1.00  0.00     0.012 A 
HETATM    7 BR   UNL     1      30.452  42.820  54.499  1.00  0.00    -0.051 Br
HETATM    8  C   UNL     1      28.327  44.640  53.938  1.00  0.00     0.034 A 
HETATM    9  N   UNL     1      27.040  47.680  55.496  1.00  0.00    -0.365 N 
HETATM   10  H   UNL     1      27.261  48.259  56.305  1.00  0.00     0.165 HD
HETATM   11  C   UNL     1      26.044  48.065  54.693  1.00  0.00     0.090 A 
HETATM   12  C   UNL     1      25.711  47.307  53.582  1.00  0.00     0.041 A 
ENDROOT
BRANCH   1  13
HETATM   13  N   UNL     1      26.122  45.370  52.146  1.00  0.00    -0.283 NA
HETATM   14  H   UNL     1      25.632  44.497  52.353  1.00  0.00     0.128 HD
BRANCH  13  15
HETATM   15  C   UNL     1      25.482  46.012  50.973  1.00  0.00     0.195 C 
BRANCH  15  16
HETATM   16  C   UNL     1      26.539  46.562  50.008  1.00  0.00     0.230 C 
HETATM   17  N   UNL     1      26.569  47.940  49.946  1.00  0.00    -0.360 N 
HETATM   18  H   UNL     1      25.965  48.455  50.578  1.00  0.00     0.162 HD
HETATM   19  O   UNL     1      27.250  45.827  49.333  1.00  0.00    -0.272 OA
BRANCH  17  20
HETATM   20  C   UNL     1      27.480  48.659  49.083  1.00  0.00     0.118 C 
HETATM   21  C   UNL     1      26.826  49.886  48.476  1.00  0.00     0.026 C 
ENDBRANCH  17  20
ENDBRANCH  15  16
ENDBRANCH  13  15
ENDBRANCH   1  13
TORSDOF 4
ENDMDL
MODEL 3
REMARK VINA RESULT:      -7.1      2.648      5.674
REMARK  4 active torsions:
REMARK  status: ('A' for Active; 'I' for Inactive)
REMARK    1  A    between atoms: C_2  and  N_3 
REMARK       I    between atoms: N_3  and  C_4 
REMARK    2  A    between atoms: C_4  and  C_5 
REMARK    3  A    between atoms: C_5  and  N_6 
REMARK    4  A    between atoms: N_6  and  C_7 
ROOT
HETATM    1  C   UNL     1      26.953  43.281  52.636  1.00  0.00     0.022 A 
HETATM    2  C   UNL     1      28.171  43.369  53.374  1.00  0.00     0.013 A 
HETATM    3  C   UNL     1      29.255  42.525  53.012  1.00  0.00     0.044 A 
HETATM    4  C   UNL     1      30.485  42.587  53.688  1.00  0.00     0.032 A 
HETATM    5  C   UNL     1      30.661  43.479  54.744  1.00  0.00     0.021 A 
HETATM    6  C   UNL     1      29.611  44.302  55.129  1.00  0.00     0.012 A 
HETATM    7 BR   UNL     1      29.843  45.502  56.570  1.00  0.00    -0.051 Br
HETATM    8  C   UNL     1      28.382  44.250  54.463  1.00  0.00     0.034 A 
HETATM    9  N   UNL     1      29.096  41.643  52.010  1.00  0.00    -0.365 N 
HETATM   10  H   UNL     1      29.880  41.040  51.763  1.00  0.00     0.165 HD
HETATM   11  C   UNL     1      27.950  41.501  51.337  1.00  0.00     0.090 A 
HETATM   12  C   UNL     1      26.860  42.301  51.640  1.00  0.00     0.041 A 
ENDROOT
BRANCH   1  13
HETATM   13  N   UNL     1      25.843  44.056  53.006  1.00  0.00    -0.283 NA
HETATM   14  H   UNL     1      25.940  44.456  53.942  1.00  0.00     0.128 HD
BRANCH  13  15
HETATM   15  C   UNL     1      25.317  45.097  52.092  1.00  0.00     0.195 C 
BRANCH  15  16
HETATM   16  C   UNL     1      25.678  46.499  52.596  1.00  0.00     0.230 C 
HETATM   17  N   UNL     1      25.787  46.583  53.968  1.00  0.00    -0.360 N 
HETATM   18  H   UNL     1      25.699  45.726  54.503  1.00  0.00     0.162 HD
HETATM   19  O   UNL     1      25.810  47.451  51.835  1.00  0.00    -0.272 OA
BRANCH  17  20
HETATM   20  C   UNL     1      26.102  47.821  54.648  1.00  0.00     0.118 C 
HETATM   21  C   UNL     1      27.584  47.929  54.954  1.00  0.00     0.026 C 
ENDBRANCH  17  20
ENDBRANCH  15  16
ENDBRANCH  13  15
ENDBRANCH   1  13
TORSDOF 4
ENDMDL
MODEL 4
REMARK VINA RESULT:      -7.0      3.014      5.541
REMARK  4 active torsions:
REMARK  status: ('A' for Active; 'I' for Inactive)
REMARK    1  A    between atoms: C_2  and  N_3 
REMARK       I    between atoms: N_3  and  C_4 
REMARK    2  A    between atoms: C_4  and  C_5 
REMARK    3  A    between atoms: C_5  and  N_6 
REMARK    4  A    between atoms: N_6  and  C_7 
ROOT
HETATM    1  C   UNL     1      27.309  43.855  52.271  1.00  0.00     0.022 A 
HETATM    2  C   UNL     1      28.336  43.808  53.260  1.00  0.00     0.013 A 
HETATM    3  C   UNL     1      29.319  42.785  53.179  1.00  0.00     0.044 A 
HETATM    4  C   UNL     1      30.367  42.706  54.111  1.00  0.00     0.032 A 
HETATM    5  C   UNL     1      30.456  43.633  55.149  1.00  0.00     0.021 A 
HETATM    6  C   UNL     1      29.497  44.631  55.260  1.00  0.00     0.012 A 
HETATM    7 BR   UNL     1      29.607  45.880  56.673  1.00  0.00    -0.051 Br
HETATM    8  C   UNL     1      28.450  44.720  54.337  1.00  0.00     0.034 A 
HETATM    9  N   UNL     1      29.237  41.869  52.198  1.00  0.00    -0.365 N 
HETATM   10  H   UNL     1      29.946  41.137  52.155  1.00  0.00     0.165 HD
HETATM   11  C   UNL     1      28.256  41.857  51.291  1.00  0.00     0.090 A 
HETATM   12  C   UNL     1      27.273  42.834  51.314  1.00  0.00     0.041 A 
ENDROOT
BRANCH   1  13
HETATM   13  N   UNL     1      26.288  44.814  52.356  1.00  0.00    -0.283 NA
HETATM   14  H   UNL     1      26.574  45.645  52.878  1.00  0.00     0.128 HD
BRANCH  13  15
HETATM   15  C   UNL     1      25.558  45.242  51.138  1.00  0.00     0.195 C 
BRANCH  15  16
HETATM   16  C   UNL     1      25.635  46.763  50.962  1.00  0.00     0.230 C 
HETATM   17  N   UNL     1      26.108  47.155  49.727  1.00  0.00    -0.360 N 
HETATM   18  H   UNL     1      26.286  46.433  49.038  1.00  0.00     0.162 HD
HETATM   19  O   UNL     1      25.339  47.540  51.864  1.00  0.00    -0.272 OA
BRANCH  17  20
HETATM   20  C   UNL     1      26.275  48.546  49.365  1.00  0.00     0.118 C 
HETATM   21  C   UNL     1      27.737  48.901  49.166  1.00  0.00     0.026 C 
ENDBRANCH  17  20
ENDBRANCH  15  16
ENDBRANCH  13  15
ENDBRANCH   1  13
TORSDOF 4
ENDMDL
MODEL 5
REMARK VINA RESULT:      -7.0      2.368      3.241
REMARK  4 active torsions:
REMARK  status: ('A' for Active; 'I' for Inactive)
REMARK    1  A    between atoms: C_2  and  N_3 
REMARK       I    between atoms: N_3  and  C_4 
REMARK    2  A    between atoms: C_4  and  C_5 
REMARK    3  A    between atoms: C_5  and  N_6 
REMARK    4  A    between atoms: N_6  and  C_7 
ROOT
HETATM    1  C   UNL     1      29.720  43.424  54.115  1.00  0.00     0.022 A 
HETATM    2  C   UNL     1      28.761  44.476  54.204  1.00  0.00     0.013 A 
HETATM    3  C   UNL     1      28.868  45.413  55.267  1.00  0.00     0.044 A 
HETATM    4  C   UNL     1      27.966  46.483  55.388  1.00  0.00     0.032 A 
HETATM    5  C   UNL     1      26.933  46.640  54.465  1.00  0.00     0.021 A 
HETATM    6  C   UNL     1      26.797  45.726  53.428  1.00  0.00     0.012 A 
HETATM    7 BR   UNL     1      25.389  45.928  52.184  1.00  0.00    -0.051 Br
HETATM    8  C   UNL     1      27.689  44.658  53.296  1.00  0.00     0.034 A 
HETATM    9  N   UNL     1      29.844  45.265  56.179  1.00  0.00    -0.365 N 
HETATM   10  H   UNL     1      29.907  45.941  56.939  1.00  0.00     0.165 HD
HETATM   11  C   UNL     1      30.724  44.259  56.150  1.00  0.00     0.090 A 
HETATM   12  C   UNL     1      30.674  43.318  55.134  1.00  0.00     0.041 A 
ENDROOT
BRANCH   1  13
HETATM   13  N   UNL     1      29.608  42.446  53.114  1.00  0.00    -0.283 NA
HETATM   14  H   UNL     1      30.517  42.082  52.819  1.00  0.00     0.128 HD
BRANCH  13  15
HETATM   15  C   UNL     1      28.668  41.311  53.277  1.00  0.00     0.195 C 
BRANCH  15  16
HETATM   16  C   UNL     1      28.269  40.732  51.915  1.00  0.00     0.230 C 
HETATM   17  N   UNL     1      29.075  39.694  51.497  1.00  0.00    -0.360 N 
HETATM   18  H   UNL     1      29.788  39.361  52.136  1.00  0.00     0.162 HD
HETATM   19  O   UNL     1      27.343  41.193  51.257  1.00  0.00    -0.272 OA
BRANCH  17  20
HETATM   20  C   UNL     1      28.880  39.021  50.231  1.00  0.00     0.118 C 
HETATM   21  C   UNL     1      29.805  37.827  50.084  1.00  0.00     0.026 C 
ENDBRANCH  17  20
ENDBRANCH  15  16
ENDBRANCH  13  15
ENDBRANCH   1  13
TORSDOF 4
ENDMDL
MODEL 6
REMARK VINA RESULT:      -6.8      1.440      1.646
REMARK  4 active torsions:
REMARK  status: ('A' for Active; 'I' for Inactive)
REMARK    1  A    between atoms: C_2  and  N_3 
REMARK       I    between atoms: N_3  and  C_4 
REMARK    2  A    between atoms: C_4  and  C_5 
REMARK    3  A    between atoms: C_5  and  N_6 
REMARK    4  A    between atoms: N_6  and  C_7 
ROOT
HETATM    1  C   UNL     1      26.691  43.572  52.824  1.00  0.00     0.022 A 
HETATM    2  C   UNL     1      27.540  44.270  53.732  1.00  0.00     0.013 A 
HETATM    3  C   UNL     1      27.220  45.611  54.077  1.00  0.00     0.044 A 
HETATM    4  C   UNL     1      28.007  46.337  54.986  1.00  0.00     0.032 A 
HETATM    5  C   UNL     1      29.134  45.754  55.563  1.00  0.00     0.021 A 
HETATM    6  C   UNL     1      29.478  44.451  55.228  1.00  0.00     0.012 A 
HETATM    7 BR   UNL     1      31.013  43.662  55.998  1.00  0.00    -0.051 Br
HETATM    8  C   UNL     1      28.701  43.717  54.325  1.00  0.00     0.034 A 
HETATM    9  N   UNL     1      26.150  46.198  53.514  1.00  0.00    -0.365 N 
HETATM   10  H   UNL     1      25.934  47.162  53.765  1.00  0.00     0.165 HD
HETATM   11  C   UNL     1      25.368  45.585  52.619  1.00  0.00     0.090 A 
HETATM   12  C   UNL     1      25.626  44.275  52.249  1.00  0.00     0.041 A 
ENDROOT
BRANCH   1  13
HETATM   13  N   UNL     1      27.012  42.267  52.414  1.00  0.00    -0.283 NA
HETATM   14  H   UNL     1      26.215  41.631  52.477  1.00  0.00     0.128 HD
BRANCH  13  15
HETATM   15  C   UNL     1      27.710  42.037  51.126  1.00  0.00     0.195 C 
BRANCH  15  16
HETATM   16  C   UNL     1      27.605  40.567  50.705  1.00  0.00     0.230 C 
HETATM   17  N   UNL     1      28.828  39.951  50.534  1.00  0.00    -0.360 N 
HETATM   18  H   UNL     1      29.661  40.480  50.768  1.00  0.00     0.162 HD
HETATM   19  O   UNL     1      26.526  40.021  50.502  1.00  0.00    -0.272 OA
BRANCH  17  20
HETATM   20  C   UNL     1      28.951  38.571  50.120  1.00  0.00     0.118 C 
HETATM   21  C   UNL     1      29.991  37.831  50.941  1.00  0.00     0.026 C 
ENDBRANCH  17  20
ENDBRANCH  15  16
ENDBRANCH  13  15
ENDBRANCH   1  13
TORSDOF 4
ENDMDL
MODEL 7
REMARK VINA RESULT:      -6.7      2.928      5.487
REMARK  4 active torsions:
REMARK  status: ('A' for Active; 'I' for Inactive)
REMARK    1  A    between atoms: C_2  and  N_3 
REMARK       I    between atoms: N_3  and  C_4 
REMARK    2  A    between atoms: C_4  and  C_5 
REMARK    3  A    between atoms: C_5  and  N_6 
REMARK    4  A    between atoms: N_6  and  C_7 
ROOT
HETATM    1  C   UNL     1      26.770  42.746  52.048  1.00  0.00     0.022 A 
HETATM    2  C   UNL     1      27.888  43.055  52.879  1.00  0.00     0.013 A 
HETATM    3  C   UNL     1      29.081  42.298  52.732  1.00  0.00     0.044 A 
HETATM    4  C   UNL     1      30.220  42.575  53.506  1.00  0.00     0.032 A 
HETATM    5  C   UNL     1      30.196  43.600  54.450  1.00  0.00     0.021 A 
HETATM    6  C   UNL     1      29.035  44.342  54.625  1.00  0.00     0.012 A 
HETATM    7 BR   UNL     1      28.995  45.724  55.914  1.00  0.00    -0.051 Br
HETATM    8  C   UNL     1      27.896  44.077  53.859  1.00  0.00     0.034 A 
HETATM    9  N   UNL     1      29.117  41.291  51.842  1.00  0.00    -0.365 N 
HETATM   10  H   UNL     1      29.977  40.752  51.750  1.00  0.00     0.165 HD
HETATM   11  C   UNL     1      28.068  40.945  51.089  1.00  0.00     0.090 A 
HETATM   12  C   UNL     1      26.879  41.651  51.183  1.00  0.00     0.041 A 
ENDROOT
BRANCH   1  13
HETATM   13  N   UNL     1      25.556  43.433  52.210  1.00  0.00    -0.283 NA
HETATM   14  H   UNL     1      25.674  44.323  52.698  1.00  0.00     0.128 HD
BRANCH  13  15
HETATM   15  C   UNL     1      24.650  43.635  51.054  1.00  0.00     0.195 C 
BRANCH  15  16
HETATM   16  C   UNL     1      25.002  44.925  50.304  1.00  0.00     0.230 C 
HETATM   17  N   UNL     1      24.351  46.041  50.785  1.00  0.00    -0.360 N 
HETATM   18  H   UNL     1      23.775  45.933  51.613  1.00  0.00     0.162 HD
HETATM   19  O   UNL     1      25.762  44.932  49.341  1.00  0.00    -0.272 OA
BRANCH  17  20
HETATM   20  C   UNL     1      24.530  47.355  50.205  1.00  0.00     0.118 C 
HETATM   21  C   UNL     1      23.379  47.721  49.286  1.00  0.00     0.026 C 
ENDBRANCH  17  20
ENDBRANCH  15  16
ENDBRANCH  13  15
ENDBRANCH   1  13
TORSDOF 4
ENDMDL
MODEL 8
REMARK VINA RESULT:      -6.5      6.318      8.616
REMARK  4 active torsions:
REMARK  status: ('A' for Active; 'I' for Inactive)
REMARK    1  A    between atoms: C_2  and  N_3 
REMARK       I    between atoms: N_3  and  C_4 
REMARK    2  A    between atoms: C_4  and  C_5 
REMARK    3  A    between atoms: C_5  and  N_6 
REMARK    4  A    between atoms: N_6  and  C_7 
ROOT
HETATM    1  C   UNL     1      25.464  47.737  49.744  1.00  0.00     0.022 A 
HETATM    2  C   UNL     1      24.461  48.575  49.172  1.00  0.00     0.013 A 
HETATM    3  C   UNL     1      24.866  49.703  48.409  1.00  0.00     0.044 A 
HETATM    4  C   UNL     1      23.922  50.548  47.801  1.00  0.00     0.032 A 
HETATM    5  C   UNL     1      22.558  50.298  47.947  1.00  0.00     0.021 A 
HETATM    6  C   UNL     1      22.138  49.212  48.703  1.00  0.00     0.012 A 
HETATM    7 BR   UNL     1      20.290  48.878  48.914  1.00  0.00    -0.051 Br
HETATM    8  C   UNL     1      23.068  48.363  49.311  1.00  0.00     0.034 A 
HETATM    9  N   UNL     1      26.176  49.973  48.276  1.00  0.00    -0.365 N 
HETATM   10  H   UNL     1      26.452  50.789  47.730  1.00  0.00     0.165 HD
HETATM   11  C   UNL     1      27.134  49.236  48.846  1.00  0.00     0.090 A 
HETATM   12  C   UNL     1      26.802  48.119  49.596  1.00  0.00     0.041 A 
ENDROOT
BRANCH   1  13
HETATM   13  N   UNL     1      25.099  46.649  50.555  1.00  0.00    -0.283 NA
HETATM   14  H   UNL     1      25.411  45.754  50.171  1.00  0.00     0.128 HD
BRANCH  13  15
HETATM   15  C   UNL     1      25.383  46.671  52.010  1.00  0.00     0.195 C 
BRANCH  15  16
HETATM   16  C   UNL     1      25.594  45.251  52.546  1.00  0.00     0.230 C 
HETATM   17  N   UNL     1      26.905  44.826  52.489  1.00  0.00    -0.360 N 
HETATM   18  H   UNL     1      27.605  45.493  52.181  1.00  0.00     0.162 HD
HETATM   19  O   UNL     1      24.664  44.559  52.944  1.00  0.00    -0.272 OA
BRANCH  17  20
HETATM   20  C   UNL     1      27.316  43.511  52.928  1.00  0.00     0.118 C 
HETATM   21  C   UNL     1      28.003  43.561  54.280  1.00  0.00     0.026 C 
ENDBRANCH  17  20
ENDBRANCH  15  16
ENDBRANCH  13  15
ENDBRANCH   1  13
TORSDOF 4
ENDMDL
MODEL 9
REMARK VINA RESULT:      -6.5      2.727      4.123
REMARK  4 active torsions:
REMARK  status: ('A' for Active; 'I' for Inactive)
REMARK    1  A    between atoms: C_2  and  N_3 
REMARK       I    between atoms: N_3  and  C_4 
REMARK    2  A    between atoms: C_4  and  C_5 
REMARK    3  A    between atoms: C_5  and  N_6 
REMARK    4  A    between atoms: N_6  and  C_7 
ROOT
HETATM    1  C   UNL     1      25.647  43.706  51.981  1.00  0.00     0.022 A 
HETATM    2  C   UNL     1      25.979  44.901  52.686  1.00  0.00     0.013 A 
HETATM    3  C   UNL     1      25.370  46.122  52.290  1.00  0.00     0.044 A 
HETATM    4  C   UNL     1      25.641  47.324  52.964  1.00  0.00     0.032 A 
HETATM    5  C   UNL     1      26.529  47.343  54.038  1.00  0.00     0.021 A 
HETATM    6  C   UNL     1      27.151  46.165  54.433  1.00  0.00     0.012 A 
HETATM    7 BR   UNL     1      28.366  46.190  55.880  1.00  0.00    -0.051 Br
HETATM    8  C   UNL     1      26.888  44.962  53.770  1.00  0.00     0.034 A 
HETATM    9  N   UNL     1      24.527  46.128  51.242  1.00  0.00    -0.365 N 
HETATM   10  H   UNL     1      24.101  47.011  50.965  1.00  0.00     0.165 HD
HETATM   11  C   UNL     1      24.240  45.034  50.531  1.00  0.00     0.090 A 
HETATM   12  C   UNL     1      24.797  43.812  50.874  1.00  0.00     0.041 A 
ENDROOT
BRANCH   1  13
HETATM   13  N   UNL     1      26.276  42.494  52.307  1.00  0.00    -0.283 NA
HETATM   14  H   UNL     1      25.607  41.754  52.530  1.00  0.00     0.128 HD
BRANCH  13  15
HETATM   15  C   UNL     1      27.331  41.937  51.426  1.00  0.00     0.195 C 
BRANCH  15  16
HETATM   16  C   UNL     1      28.620  41.679  52.214  1.00  0.00     0.230 C 
HETATM   17  N   UNL     1      29.301  42.829  52.555  1.00  0.00    -0.360 N 
HETATM   18  H   UNL     1      28.868  43.719  52.332  1.00  0.00     0.162 HD
HETATM   19  O   UNL     1      29.013  40.546  52.470  1.00  0.00    -0.272 OA
BRANCH  17  20
HETATM   20  C   UNL     1      30.550  42.805  53.284  1.00  0.00     0.118 C 
HETATM   21  C   UNL     1      30.354  43.178  54.742  1.00  0.00     0.026 C 
ENDBRANCH  17  20
ENDBRANCH  15  16
ENDBRANCH  13  15
ENDBRANCH   1  13
TORSDOF 4
ENDMDL
MODEL 10
REMARK VINA RESULT:      -6.4      3.322      5.051
REMARK  4 active torsions:
REMARK  status: ('A' for Active; 'I' for Inactive)
REMARK    1  A    between atoms: C_2  and  N_3 
REMARK       I    between atoms: N_3  and  C_4 
REMARK    2  A    between atoms: C_4  and  C_5 
REMARK    3  A    between atoms: C_5  and  N_6 
REMARK    4  A    between atoms: N_6  and  C_7 
ROOT
HETATM    1  C   UNL     1      28.061  43.489  52.733  1.00  0.00     0.022 A 
HETATM    2  C   UNL     1      28.207  44.471  53.757  1.00  0.00     0.013 A 
HETATM    3  C   UNL     1      29.298  44.362  54.661  1.00  0.00     0.044 A 
HETATM    4  C   UNL     1      29.504  45.314  55.672  1.00  0.00     0.032 A 
HETATM    5  C   UNL     1      28.627  46.388  55.817  1.00  0.00     0.021 A 
HETATM    6  C   UNL     1      27.542  46.506  54.957  1.00  0.00     0.012 A 
HETATM    7 BR   UNL     1      26.344  47.953  55.159  1.00  0.00    -0.051 Br
HETATM    8  C   UNL     1      27.328  45.565  53.945  1.00  0.00     0.034 A 
HETATM    9  N   UNL     1      30.142  43.321  54.551  1.00  0.00    -0.365 N 
HETATM   10  H   UNL     1      30.917  43.251  55.209  1.00  0.00     0.165 HD
HETATM   11  C   UNL     1      29.998  42.358  53.635  1.00  0.00     0.090 A 
HETATM   12  C   UNL     1      28.957  42.414  52.722  1.00  0.00     0.041 A 
ENDROOT
BRANCH   1  13
HETATM   13  N   UNL     1      26.960  43.532  51.862  1.00  0.00    -0.283 NA
HETATM   14  H   UNL     1      26.265  44.226  52.145  1.00  0.00     0.128 HD
BRANCH  13  15
HETATM   15  C   UNL     1      27.167  43.632  50.397  1.00  0.00     0.195 C 
BRANCH  15  16
HETATM   16  C   UNL     1      26.653  44.974  49.864  1.00  0.00     0.230 C 
HETATM   17  N   UNL     1      25.295  45.151  50.024  1.00  0.00    -0.360 N 
HETATM   18  H   UNL     1      24.782  44.438  50.532  1.00  0.00     0.162 HD
HETATM   19  O   UNL     1      27.392  45.782  49.311  1.00  0.00    -0.272 OA
BRANCH  17  20
HETATM   20  C   UNL     1      24.608  46.341  49.571  1.00  0.00     0.118 C 
HETATM   21  C   UNL     1      24.658  47.445  50.611  1.00  0.00     0.026 C 
ENDBRANCH  17  20
ENDBRANCH  15  16
ENDBRANCH  13  15
ENDBRANCH   1  13
TORSDOF 4
ENDMDL
