MODEL 1
REMARK VINA RESULT:      -8.6      0.000      0.000
REMARK  6 active torsions:
REMARK  status: ('A' for Active; 'I' for Inactive)
REMARK    1  A    between atoms: O_2  and  C_3 
REMARK    2  A    between atoms: N_7  and  C_9 
REMARK    3  A    between atoms: C_9  and  C_10 
REMARK    4  A    between atoms: C_11  and  O_12 
REMARK    5  A    between atoms: C_22  and  N_23 
REMARK       I    between atoms: N_23  and  C_24 
REMARK    6  A    between atoms: C_24  and  C_25 
ROOT
HETATM    1  C   UNL     1      17.469  49.936  48.091  1.00  0.00     0.161 C 
HETATM    2  C   UNL     1      17.072  51.414  47.720  1.00  0.00     0.019 C 
HETATM    3  C   UNL     1      17.993  52.453  48.407  1.00  0.00     0.045 C 
HETATM    4  C   UNL     1      17.739  52.567  49.906  1.00  0.00     0.236 C 
HETATM    5  N   UNL     1      16.284  52.850  50.175  1.00  0.00    -0.067 N 
HETATM    6  H   UNL     1      16.169  52.770  51.201  1.00  0.00     0.280 HD
HETATM    7  C   UNL     1      15.377  51.815  49.563  1.00  0.00     0.236 C 
HETATM    8  C   UNL     1      15.605  51.752  48.057  1.00  0.00     0.045 C 
HETATM    9  C   UNL     1      17.377  51.404  46.235  1.00  0.00    -0.038 A 
HETATM   10  C   UNL     1      18.223  50.332  45.893  1.00  0.00    -0.026 A 
HETATM   11  C   UNL     1      18.592  49.493  47.096  1.00  0.00     0.148 C 
HETATM   12  C   UNL     1      16.955  52.304  45.265  1.00  0.00     0.009 A 
HETATM   13  C   UNL     1      17.377  52.118  43.948  1.00  0.00     0.001 A 
HETATM   14  C   UNL     1      18.213  51.046  43.608  1.00  0.00     0.001 A 
HETATM   15  C   UNL     1      18.643  50.145  44.582  1.00  0.00     0.010 A 
ENDROOT
BRANCH   1  16
HETATM   16  O   UNL     1      16.321  49.058  48.159  1.00  0.00    -0.387 OA
HETATM   17  C   UNL     1      16.501  47.679  47.858  1.00  0.00     0.202 C 
ENDBRANCH   1  16
BRANCH  11  18
HETATM   18  N   UNL     1      19.996  49.737  47.413  1.00  0.00    -0.346 N 
HETATM   19  C   UNL     1      20.633  49.500  48.606  1.00  0.00     0.252 C 
HETATM   20  O   UNL     1      20.036  49.344  49.666  1.00  0.00    -0.268 OA
HETATM   21  H   UNL     1      20.581  49.901  46.608  1.00  0.00     0.163 HD
BRANCH  19  22
HETATM   22  C   UNL     1      22.101  49.507  48.547  1.00  0.00     0.039 A 
HETATM   23  C   UNL     1      22.850  48.543  49.205  1.00  0.00     0.066 A 
HETATM   24  S   UNL     1      24.535  48.732  48.998  1.00  0.00    -0.113 SA
HETATM   25  C   UNL     1      24.309  50.100  48.003  1.00  0.00     0.050 A 
HETATM   26  C   UNL     1      22.975  50.407  47.841  1.00  0.00     0.024 A 
ENDBRANCH  19  22
ENDBRANCH  11  18
BRANCH   5  27
HETATM   27  C   UNL     1      15.844  54.275  49.916  1.00  0.00     0.276 C 
BRANCH  27  28
HETATM   28  C   UNL     1      14.380  54.421  49.602  1.00  0.00     0.002 A 
HETATM   29  C   UNL     1      13.401  54.210  50.582  1.00  0.00     0.073 A 
HETATM   30  C   UNL     1      12.044  54.317  50.285  1.00  0.00     0.039 A 
HETATM   31  C   UNL     1      11.648  54.642  48.987  1.00  0.00     0.026 A 
HETATM   32  C   UNL     1      12.608  54.851  48.000  1.00  0.00     0.034 A 
HETATM   33 CL   UNL     1      12.123  55.255  46.401  1.00  0.00    -0.084 Cl
HETATM   34  C   UNL     1      13.967  54.739  48.299  1.00  0.00     0.035 A 
BRANCH  29  35
HETATM   35  O   UNL     1      13.814  53.918  51.854  1.00  0.00    -0.360 OA
HETATM   36  H   UNL     1      13.934  52.948  51.916  1.00  0.00     0.217 HD
ENDBRANCH  29  35
ENDBRANCH  27  28
ENDBRANCH   5  27
TORSDOF 6
ENDMDL
MODEL 2
REMARK VINA RESULT:      -8.2     11.392     16.127
REMARK  6 active torsions:
REMARK  status: ('A' for Active; 'I' for Inactive)
REMARK    1  A    between atoms: O_2  and  C_3 
REMARK    2  A    between atoms: N_7  and  C_9 
REMARK    3  A    between atoms: C_9  and  C_10 
REMARK    4  A    between atoms: C_11  and  O_12 
REMARK    5  A    between atoms: C_22  and  N_23 
REMARK       I    between atoms: N_23  and  C_24 
REMARK    6  A    between atoms: C_24  and  C_25 
ROOT
HETATM    1  C   UNL     1      28.013  49.742  39.033  1.00  0.00     0.161 C 
HETATM    2  C   UNL     1      29.165  48.819  39.578  1.00  0.00     0.019 C 
HETATM    3  C   UNL     1      28.931  48.407  41.053  1.00  0.00     0.045 C 
HETATM    4  C   UNL     1      29.144  49.559  42.029  1.00  0.00     0.236 C 
HETATM    5  N   UNL     1      30.505  50.173  41.833  1.00  0.00    -0.067 N 
HETATM    6  H   UNL     1      30.515  51.024  42.422  1.00  0.00     0.280 HD
HETATM    7  C   UNL     1      30.727  50.633  40.416  1.00  0.00     0.236 C 
HETATM    8  C   UNL     1      30.565  49.458  39.459  1.00  0.00     0.045 C 
HETATM    9  C   UNL     1      28.966  47.601  38.698  1.00  0.00    -0.038 A 
HETATM   10  C   UNL     1      27.689  47.598  38.108  1.00  0.00    -0.026 A 
HETATM   11  C   UNL     1      26.872  48.805  38.515  1.00  0.00     0.148 C 
HETATM   12  C   UNL     1      29.851  46.555  38.465  1.00  0.00     0.009 A 
HETATM   13  C   UNL     1      29.451  45.512  37.628  1.00  0.00     0.001 A 
HETATM   14  C   UNL     1      28.181  45.515  37.036  1.00  0.00     0.001 A 
HETATM   15  C   UNL     1      27.289  46.561  37.274  1.00  0.00     0.010 A 
ENDROOT
BRANCH   1  16
HETATM   16  O   UNL     1      28.493  50.717  38.077  1.00  0.00    -0.387 OA
HETATM   17  C   UNL     1      28.245  52.096  38.328  1.00  0.00     0.202 C 
ENDBRANCH   1  16
BRANCH  11  18
HETATM   18  N   UNL     1      25.816  48.361  39.419  1.00  0.00    -0.346 N 
HETATM   19  C   UNL     1      24.505  48.771  39.434  1.00  0.00     0.252 C 
HETATM   20  O   UNL     1      24.119  49.800  38.888  1.00  0.00    -0.268 OA
HETATM   21  H   UNL     1      26.038  47.526  39.940  1.00  0.00     0.163 HD
BRANCH  19  22
HETATM   22  C   UNL     1      23.589  47.922  40.205  1.00  0.00     0.039 A 
HETATM   23  C   UNL     1      24.058  46.840  40.936  1.00  0.00     0.066 A 
HETATM   24  S   UNL     1      22.826  45.993  41.764  1.00  0.00    -0.113 SA
HETATM   25  C   UNL     1      21.632  47.065  41.186  1.00  0.00     0.050 A 
HETATM   26  C   UNL     1      22.164  48.042  40.371  1.00  0.00     0.024 A 
ENDBRANCH  19  22
ENDBRANCH  11  18
BRANCH   5  27
HETATM   27  C   UNL     1      31.661  49.378  42.403  1.00  0.00     0.276 C 
BRANCH  27  28
HETATM   28  C   UNL     1      32.934  50.165  42.555  1.00  0.00     0.002 A 
HETATM   29  C   UNL     1      33.072  51.141  43.551  1.00  0.00     0.073 A 
HETATM   30  C   UNL     1      34.241  51.890  43.674  1.00  0.00     0.039 A 
HETATM   31  C   UNL     1      35.298  51.665  42.791  1.00  0.00     0.026 A 
HETATM   32  C   UNL     1      35.176  50.700  41.794  1.00  0.00     0.034 A 
HETATM   33 CL   UNL     1      36.478  50.418  40.708  1.00  0.00    -0.084 Cl
HETATM   34  C   UNL     1      34.002  49.955  41.669  1.00  0.00     0.035 A 
BRANCH  29  35
HETATM   35  O   UNL     1      32.032  51.326  44.421  1.00  0.00    -0.360 OA
HETATM   36  H   UNL     1      32.275  52.052  45.031  1.00  0.00     0.217 HD
ENDBRANCH  29  35
ENDBRANCH  27  28
ENDBRANCH   5  27
TORSDOF 6
ENDMDL
MODEL 3
REMARK VINA RESULT:      -8.2      4.406      8.627
REMARK  6 active torsions:
REMARK  status: ('A' for Active; 'I' for Inactive)
REMARK    1  A    between atoms: O_2  and  C_3 
REMARK    2  A    between atoms: N_7  and  C_9 
REMARK    3  A    between atoms: C_9  and  C_10 
REMARK    4  A    between atoms: C_11  and  O_12 
REMARK    5  A    between atoms: C_22  and  N_23 
REMARK       I    between atoms: N_23  and  C_24 
REMARK    6  A    between atoms: C_24  and  C_25 
ROOT
HETATM    1  C   UNL     1      17.873  48.957  47.409  1.00  0.00     0.161 C 
HETATM    2  C   UNL     1      18.740  49.849  48.374  1.00  0.00     0.019 C 
HETATM    3  C   UNL     1      19.908  50.543  47.630  1.00  0.00     0.045 C 
HETATM    4  C   UNL     1      21.016  49.574  47.235  1.00  0.00     0.236 C 
HETATM    5  N   UNL     1      21.500  48.806  48.438  1.00  0.00    -0.067 N 
HETATM    6  H   UNL     1      22.137  48.080  48.068  1.00  0.00     0.280 HD
HETATM    7  C   UNL     1      20.384  48.077  49.138  1.00  0.00     0.236 C 
HETATM    8  C   UNL     1      19.311  49.067  49.575  1.00  0.00     0.045 C 
HETATM    9  C   UNL     1      17.715  50.900  48.752  1.00  0.00    -0.038 A 
HETATM   10  C   UNL     1      16.639  50.918  47.845  1.00  0.00    -0.026 A 
HETATM   11  C   UNL     1      16.804  49.889  46.749  1.00  0.00     0.148 C 
HETATM   12  C   UNL     1      17.754  51.796  49.814  1.00  0.00     0.009 A 
HETATM   13  C   UNL     1      16.705  52.703  49.966  1.00  0.00     0.001 A 
HETATM   14  C   UNL     1      15.631  52.713  49.065  1.00  0.00     0.001 A 
HETATM   15  C   UNL     1      15.593  51.819  47.996  1.00  0.00     0.010 A 
ENDROOT
BRANCH   1  16
HETATM   16  O   UNL     1      17.345  47.783  48.070  1.00  0.00    -0.387 OA
HETATM   17  C   UNL     1      17.422  46.531  47.398  1.00  0.00     0.202 C 
ENDBRANCH   1  16
BRANCH  11  18
HETATM   18  N   UNL     1      17.106  50.589  45.504  1.00  0.00    -0.346 N 
HETATM   19  C   UNL     1      16.217  50.988  44.536  1.00  0.00     0.252 C 
HETATM   20  O   UNL     1      15.083  50.531  44.439  1.00  0.00    -0.268 OA
HETATM   21  H   UNL     1      18.030  50.990  45.466  1.00  0.00     0.163 HD
BRANCH  19  22
HETATM   22  C   UNL     1      16.735  51.965  43.570  1.00  0.00     0.039 A 
HETATM   23  C   UNL     1      17.341  51.557  42.391  1.00  0.00     0.066 A 
HETATM   24  S   UNL     1      17.863  52.854  41.410  1.00  0.00    -0.113 SA
HETATM   25  C   UNL     1      17.273  54.001  42.526  1.00  0.00     0.050 A 
HETATM   26  C   UNL     1      16.697  53.403  43.627  1.00  0.00     0.024 A 
ENDBRANCH  19  22
ENDBRANCH  11  18
BRANCH   5  27
HETATM   27  C   UNL     1      22.407  49.577  49.374  1.00  0.00     0.276 C 
BRANCH  27  28
HETATM   28  C   UNL     1      23.861  49.208  49.266  1.00  0.00     0.002 A 
HETATM   29  C   UNL     1      24.720  49.885  48.391  1.00  0.00     0.073 A 
HETATM   30  C   UNL     1      26.061  49.525  48.269  1.00  0.00     0.039 A 
HETATM   31  C   UNL     1      26.562  48.471  49.035  1.00  0.00     0.026 A 
HETATM   32  C   UNL     1      25.721  47.786  49.908  1.00  0.00     0.034 A 
HETATM   33 CL   UNL     1      26.336  46.491  50.855  1.00  0.00    -0.084 Cl
HETATM   34  C   UNL     1      24.377  48.145  50.024  1.00  0.00     0.035 A 
BRANCH  29  35
HETATM   35  O   UNL     1      24.212  50.931  47.669  1.00  0.00    -0.360 OA
HETATM   36  H   UNL     1      23.606  51.433  48.252  1.00  0.00     0.217 HD
ENDBRANCH  29  35
ENDBRANCH  27  28
ENDBRANCH   5  27
TORSDOF 6
ENDMDL
MODEL 4
REMARK VINA RESULT:      -7.6      2.831      5.547
REMARK  6 active torsions:
REMARK  status: ('A' for Active; 'I' for Inactive)
REMARK    1  A    between atoms: O_2  and  C_3 
REMARK    2  A    between atoms: N_7  and  C_9 
REMARK    3  A    between atoms: C_9  and  C_10 
REMARK    4  A    between atoms: C_11  and  O_12 
REMARK    5  A    between atoms: C_22  and  N_23 
REMARK       I    between atoms: N_23  and  C_24 
REMARK    6  A    between atoms: C_24  and  C_25 
ROOT
HETATM    1  C   UNL     1      17.223  51.610  48.715  1.00  0.00     0.161 C 
HETATM    2  C   UNL     1      16.656  50.947  47.405  1.00  0.00     0.019 C 
HETATM    3  C   UNL     1      17.571  51.202  46.181  1.00  0.00     0.045 C 
HETATM    4  C   UNL     1      17.516  52.645  45.693  1.00  0.00     0.236 C 
HETATM    5  N   UNL     1      16.093  53.057  45.418  1.00  0.00    -0.067 N 
HETATM    6  H   UNL     1      16.128  54.074  45.234  1.00  0.00     0.280 HD
HETATM    7  C   UNL     1      15.202  52.871  46.618  1.00  0.00     0.236 C 
HETATM    8  C   UNL     1      15.225  51.412  47.059  1.00  0.00     0.045 C 
HETATM    9  C   UNL     1      16.754  49.483  47.786  1.00  0.00    -0.038 A 
HETATM   10  C   UNL     1      17.632  49.293  48.869  1.00  0.00    -0.026 A 
HETATM   11  C   UNL     1      18.232  50.596  49.348  1.00  0.00     0.148 C 
HETATM   12  C   UNL     1      16.127  48.396  47.189  1.00  0.00     0.009 A 
HETATM   13  C   UNL     1      16.378  47.118  47.691  1.00  0.00     0.001 A 
HETATM   14  C   UNL     1      17.247  46.933  48.775  1.00  0.00     0.001 A 
HETATM   15  C   UNL     1      17.882  48.023  49.370  1.00  0.00     0.010 A 
ENDROOT
BRANCH   1  16
HETATM   16  O   UNL     1      16.175  52.072  49.598  1.00  0.00    -0.387 OA
HETATM   17  C   UNL     1      16.227  53.411  50.075  1.00  0.00     0.202 C 
ENDBRANCH   1  16
BRANCH  11  18
HETATM   18  N   UNL     1      19.641  50.621  48.966  1.00  0.00    -0.346 N 
HETATM   19  C   UNL     1      20.727  50.754  49.795  1.00  0.00     0.252 C 
HETATM   20  O   UNL     1      20.647  51.185  50.940  1.00  0.00    -0.268 OA
HETATM   21  H   UNL     1      19.821  50.305  48.025  1.00  0.00     0.163 HD
BRANCH  19  22
HETATM   22  C   UNL     1      22.021  50.402  49.197  1.00  0.00     0.039 A 
HETATM   23  C   UNL     1      22.575  49.143  49.376  1.00  0.00     0.066 A 
HETATM   24  S   UNL     1      24.079  48.943  48.589  1.00  0.00    -0.113 SA
HETATM   25  C   UNL     1      24.021  50.531  47.969  1.00  0.00     0.050 A 
HETATM   26  C   UNL     1      22.881  51.200  48.363  1.00  0.00     0.024 A 
ENDBRANCH  19  22
ENDBRANCH  11  18
BRANCH   5  27
HETATM   27  C   UNL     1      15.503  52.521  44.131  1.00  0.00     0.276 C 
BRANCH  27  28
HETATM   28  C   UNL     1      16.502  52.349  43.019  1.00  0.00     0.002 A 
HETATM   29  C   UNL     1      17.060  53.456  42.366  1.00  0.00     0.073 A 
HETATM   30  C   UNL     1      17.964  53.298  41.317  1.00  0.00     0.039 A 
HETATM   31  C   UNL     1      18.325  52.013  40.909  1.00  0.00     0.026 A 
HETATM   32  C   UNL     1      17.778  50.903  41.546  1.00  0.00     0.034 A 
HETATM   33 CL   UNL     1      18.223  49.319  41.048  1.00  0.00    -0.084 Cl
HETATM   34  C   UNL     1      16.868  51.064  42.593  1.00  0.00     0.035 A 
BRANCH  29  35
HETATM   35  O   UNL     1      16.710  54.706  42.801  1.00  0.00    -0.360 OA
HETATM   36  H   UNL     1      17.454  55.059  43.331  1.00  0.00     0.217 HD
ENDBRANCH  29  35
ENDBRANCH  27  28
ENDBRANCH   5  27
TORSDOF 6
ENDMDL
MODEL 5
REMARK VINA RESULT:      -7.6     11.238     15.716
REMARK  6 active torsions:
REMARK  status: ('A' for Active; 'I' for Inactive)
REMARK    1  A    between atoms: O_2  and  C_3 
REMARK    2  A    between atoms: N_7  and  C_9 
REMARK    3  A    between atoms: C_9  and  C_10 
REMARK    4  A    between atoms: C_11  and  O_12 
REMARK    5  A    between atoms: C_22  and  N_23 
REMARK       I    between atoms: N_23  and  C_24 
REMARK    6  A    between atoms: C_24  and  C_25 
ROOT
HETATM    1  C   UNL     1      27.230  48.285  39.160  1.00  0.00     0.161 C 
HETATM    2  C   UNL     1      28.634  47.640  39.456  1.00  0.00     0.019 C 
HETATM    3  C   UNL     1      28.898  47.493  40.975  1.00  0.00     0.045 C 
HETATM    4  C   UNL     1      29.164  48.829  41.660  1.00  0.00     0.236 C 
HETATM    5  N   UNL     1      30.284  49.563  40.970  1.00  0.00    -0.067 N 
HETATM    6  H   UNL     1      30.305  50.505  41.396  1.00  0.00     0.280 HD
HETATM    7  C   UNL     1      30.016  49.766  39.502  1.00  0.00     0.236 C 
HETATM    8  C   UNL     1      29.807  48.417  38.822  1.00  0.00     0.045 C 
HETATM    9  C   UNL     1      28.419  46.259  38.867  1.00  0.00    -0.038 A 
HETATM   10  C   UNL     1      27.050  45.980  38.703  1.00  0.00    -0.026 A 
HETATM   11  C   UNL     1      26.177  47.128  39.159  1.00  0.00     0.148 C 
HETATM   12  C   UNL     1      29.376  45.310  38.530  1.00  0.00     0.009 A 
HETATM   13  C   UNL     1      28.953  44.083  38.018  1.00  0.00     0.001 A 
HETATM   14  C   UNL     1      27.588  43.810  37.849  1.00  0.00     0.001 A 
HETATM   15  C   UNL     1      26.626  44.759  38.193  1.00  0.00     0.010 A 
ENDROOT
BRANCH   1  16
HETATM   16  O   UNL     1      27.241  49.111  37.972  1.00  0.00    -0.387 OA
HETATM   17  C   UNL     1      26.665  50.410  38.040  1.00  0.00     0.202 C 
ENDBRANCH   1  16
BRANCH  11  18
HETATM   18  N   UNL     1      25.511  46.736  40.397  1.00  0.00    -0.346 N 
HETATM   19  C   UNL     1      24.185  46.420  40.567  1.00  0.00     0.252 C 
HETATM   20  O   UNL     1      23.315  46.729  39.760  1.00  0.00    -0.268 OA
HETATM   21  H   UNL     1      26.140  46.479  41.144  1.00  0.00     0.163 HD
BRANCH  19  22
HETATM   22  C   UNL     1      23.858  45.733  41.822  1.00  0.00     0.039 A 
HETATM   23  C   UNL     1      22.584  45.799  42.366  1.00  0.00     0.066 A 
HETATM   24  S   UNL     1      22.419  44.923  43.823  1.00  0.00    -0.113 SA
HETATM   25  C   UNL     1      24.045  44.410  43.757  1.00  0.00     0.050 A 
HETATM   26  C   UNL     1      24.699  44.907  42.649  1.00  0.00     0.024 A 
ENDBRANCH  19  22
ENDBRANCH  11  18
BRANCH   5  27
HETATM   27  C   UNL     1      31.676  49.047  41.269  1.00  0.00     0.276 C 
BRANCH  27  28
HETATM   28  C   UNL     1      32.527  49.999  42.065  1.00  0.00     0.002 A 
HETATM   29  C   UNL     1      33.882  50.189  41.762  1.00  0.00     0.073 A 
HETATM   30  C   UNL     1      34.679  51.050  42.515  1.00  0.00     0.039 A 
HETATM   31  C   UNL     1      34.118  51.738  43.593  1.00  0.00     0.026 A 
HETATM   32  C   UNL     1      32.774  51.558  43.908  1.00  0.00     0.034 A 
HETATM   33 CL   UNL     1      32.081  52.408  45.231  1.00  0.00    -0.084 Cl
HETATM   34  C   UNL     1      31.980  50.692  43.155  1.00  0.00     0.035 A 
BRANCH  29  35
HETATM   35  O   UNL     1      34.403  49.522  40.686  1.00  0.00    -0.360 OA
HETATM   36  H   UNL     1      34.299  50.095  39.899  1.00  0.00     0.217 HD
ENDBRANCH  29  35
ENDBRANCH  27  28
ENDBRANCH   5  27
TORSDOF 6
ENDMDL
MODEL 6
REMARK VINA RESULT:      -7.5      4.328      8.107
REMARK  6 active torsions:
REMARK  status: ('A' for Active; 'I' for Inactive)
REMARK    1  A    between atoms: O_2  and  C_3 
REMARK    2  A    between atoms: N_7  and  C_9 
REMARK    3  A    between atoms: C_9  and  C_10 
REMARK    4  A    between atoms: C_11  and  O_12 
REMARK    5  A    between atoms: C_22  and  N_23 
REMARK       I    between atoms: N_23  and  C_24 
REMARK    6  A    between atoms: C_24  and  C_25 
ROOT
HETATM    1  C   UNL     1      15.840  50.896  46.747  1.00  0.00     0.161 C 
HETATM    2  C   UNL     1      17.199  51.344  46.091  1.00  0.00     0.019 C 
HETATM    3  C   UNL     1      17.091  52.737  45.423  1.00  0.00     0.045 C 
HETATM    4  C   UNL     1      16.269  52.714  44.139  1.00  0.00     0.236 C 
HETATM    5  N   UNL     1      16.808  51.680  43.185  1.00  0.00    -0.067 N 
HETATM    6  H   UNL     1      16.120  51.626  42.414  1.00  0.00     0.280 HD
HETATM    7  C   UNL     1      16.864  50.307  43.801  1.00  0.00     0.236 C 
HETATM    8  C   UNL     1      17.734  50.336  45.052  1.00  0.00     0.045 C 
HETATM    9  C   UNL     1      18.061  51.468  47.332  1.00  0.00    -0.038 A 
HETATM   10  C   UNL     1      17.276  51.556  48.496  1.00  0.00    -0.026 A 
HETATM   11  C   UNL     1      15.796  51.505  48.187  1.00  0.00     0.148 C 
HETATM   12  C   UNL     1      19.447  51.527  47.413  1.00  0.00     0.009 A 
HETATM   13  C   UNL     1      20.041  51.666  48.668  1.00  0.00     0.001 A 
HETATM   14  C   UNL     1      19.256  51.747  49.826  1.00  0.00     0.001 A 
HETATM   15  C   UNL     1      17.865  51.693  49.746  1.00  0.00     0.010 A 
ENDROOT
BRANCH   1  16
HETATM   16  O   UNL     1      15.637  49.465  46.674  1.00  0.00    -0.387 OA
HETATM   17  C   UNL     1      14.374  48.978  46.236  1.00  0.00     0.202 C 
ENDBRANCH   1  16
BRANCH  11  18
HETATM   18  N   UNL     1      15.234  52.834  48.409  1.00  0.00    -0.346 N 
HETATM   19  C   UNL     1      14.697  53.328  49.573  1.00  0.00     0.252 C 
HETATM   20  O   UNL     1      14.332  52.611  50.499  1.00  0.00    -0.268 OA
HETATM   21  H   UNL     1      15.455  53.504  47.689  1.00  0.00     0.163 HD
BRANCH  19  22
HETATM   22  C   UNL     1      14.527  54.785  49.618  1.00  0.00     0.039 A 
HETATM   23  C   UNL     1      13.682  55.437  48.732  1.00  0.00     0.066 A 
HETATM   24  S   UNL     1      13.627  57.129  48.964  1.00  0.00    -0.113 SA
HETATM   25  C   UNL     1      14.717  57.035  50.272  1.00  0.00     0.050 A 
HETATM   26  C   UNL     1      15.120  55.739  50.519  1.00  0.00     0.024 A 
ENDBRANCH  19  22
ENDBRANCH  11  18
BRANCH   5  27
HETATM   27  C   UNL     1      18.075  52.072  42.455  1.00  0.00     0.276 C 
BRANCH  27  28
HETATM   28  C   UNL     1      17.915  52.192  40.964  1.00  0.00     0.002 A 
HETATM   29  C   UNL     1      17.197  53.250  40.392  1.00  0.00     0.073 A 
HETATM   30  C   UNL     1      17.025  53.347  39.012  1.00  0.00     0.039 A 
HETATM   31  C   UNL     1      17.578  52.371  38.181  1.00  0.00     0.026 A 
HETATM   32  C   UNL     1      18.291  51.311  38.733  1.00  0.00     0.034 A 
HETATM   33 CL   UNL     1      18.977  50.111  37.712  1.00  0.00    -0.084 Cl
HETATM   34  C   UNL     1      18.459  51.214  40.116  1.00  0.00     0.035 A 
BRANCH  29  35
HETATM   35  O   UNL     1      16.686  54.208  41.225  1.00  0.00    -0.360 OA
HETATM   36  H   UNL     1      15.737  54.012  41.362  1.00  0.00     0.217 HD
ENDBRANCH  29  35
ENDBRANCH  27  28
ENDBRANCH   5  27
TORSDOF 6
ENDMDL
MODEL 7
REMARK VINA RESULT:      -7.4      5.112      9.318
REMARK  6 active torsions:
REMARK  status: ('A' for Active; 'I' for Inactive)
REMARK    1  A    between atoms: O_2  and  C_3 
REMARK    2  A    between atoms: N_7  and  C_9 
REMARK    3  A    between atoms: C_9  and  C_10 
REMARK    4  A    between atoms: C_11  and  O_12 
REMARK    5  A    between atoms: C_22  and  N_23 
REMARK       I    between atoms: N_23  and  C_24 
REMARK    6  A    between atoms: C_24  and  C_25 
ROOT
HETATM    1  C   UNL     1      18.964  48.358  48.821  1.00  0.00     0.161 C 
HETATM    2  C   UNL     1      20.143  47.742  47.980  1.00  0.00     0.019 C 
HETATM    3  C   UNL     1      19.756  47.545  46.493  1.00  0.00     0.045 C 
HETATM    4  C   UNL     1      18.769  46.402  46.286  1.00  0.00     0.236 C 
HETATM    5  N   UNL     1      19.298  45.130  46.895  1.00  0.00    -0.067 N 
HETATM    6  H   UNL     1      18.519  44.450  46.841  1.00  0.00     0.280 HD
HETATM    7  C   UNL     1      19.624  45.289  48.357  1.00  0.00     0.236 C 
HETATM    8  C   UNL     1      20.653  46.398  48.541  1.00  0.00     0.045 C 
HETATM    9  C   UNL     1      21.151  48.871  48.072  1.00  0.00    -0.038 A 
HETATM   10  C   UNL     1      20.536  50.077  48.456  1.00  0.00    -0.026 A 
HETATM   11  C   UNL     1      19.047  49.913  48.668  1.00  0.00     0.148 C 
HETATM   12  C   UNL     1      22.513  48.831  47.803  1.00  0.00     0.009 A 
HETATM   13  C   UNL     1      23.258  50.005  47.931  1.00  0.00     0.001 A 
HETATM   14  C   UNL     1      22.644  51.203  48.321  1.00  0.00     0.001 A 
HETATM   15  C   UNL     1      21.275  51.246  48.585  1.00  0.00     0.010 A 
ENDROOT
BRANCH   1  16
HETATM   16  O   UNL     1      18.946  47.872  50.183  1.00  0.00    -0.387 OA
HETATM   17  C   UNL     1      18.608  48.779  51.226  1.00  0.00     0.202 C 
ENDBRANCH   1  16
BRANCH  11  18
HETATM   18  N   UNL     1      18.351  50.584  47.574  1.00  0.00    -0.346 N 
HETATM   19  C   UNL     1      17.004  50.834  47.473  1.00  0.00     0.252 C 
HETATM   20  O   UNL     1      16.162  50.249  48.145  1.00  0.00    -0.268 OA
HETATM   21  H   UNL     1      18.956  51.084  46.941  1.00  0.00     0.163 HD
BRANCH  19  22
HETATM   22  C   UNL     1      16.622  51.818  46.452  1.00  0.00     0.039 A 
HETATM   23  C   UNL     1      15.397  52.465  46.502  1.00  0.00     0.066 A 
HETATM   24  S   UNL     1      15.160  53.573  45.222  1.00  0.00    -0.113 SA
HETATM   25  C   UNL     1      16.702  53.233  44.576  1.00  0.00     0.050 A 
HETATM   26  C   UNL     1      17.377  52.288  45.319  1.00  0.00     0.024 A 
ENDBRANCH  19  22
ENDBRANCH  11  18
BRANCH   5  27
HETATM   27  C   UNL     1      20.383  44.436  46.100  1.00  0.00     0.276 C 
BRANCH  27  28
HETATM   28  C   UNL     1      19.945  43.150  45.454  1.00  0.00     0.002 A 
HETATM   29  C   UNL     1      20.511  41.922  45.821  1.00  0.00     0.073 A 
HETATM   30  C   UNL     1      20.126  40.733  45.204  1.00  0.00     0.039 A 
HETATM   31  C   UNL     1      19.158  40.763  44.199  1.00  0.00     0.026 A 
HETATM   32  C   UNL     1      18.588  41.975  43.820  1.00  0.00     0.034 A 
HETATM   33 CL   UNL     1      17.392  42.014  42.586  1.00  0.00    -0.084 Cl
HETATM   34  C   UNL     1      18.978  43.165  44.437  1.00  0.00     0.035 A 
BRANCH  29  35
HETATM   35  O   UNL     1      21.440  41.915  46.826  1.00  0.00    -0.360 OA
HETATM   36  H   UNL     1      21.550  42.835  47.140  1.00  0.00     0.217 HD
ENDBRANCH  29  35
ENDBRANCH  27  28
ENDBRANCH   5  27
TORSDOF 6
ENDMDL
MODEL 8
REMARK VINA RESULT:      -7.4     14.638     19.561
REMARK  6 active torsions:
REMARK  status: ('A' for Active; 'I' for Inactive)
REMARK    1  A    between atoms: O_2  and  C_3 
REMARK    2  A    between atoms: N_7  and  C_9 
REMARK    3  A    between atoms: C_9  and  C_10 
REMARK    4  A    between atoms: C_11  and  O_12 
REMARK    5  A    between atoms: C_22  and  N_23 
REMARK       I    between atoms: N_23  and  C_24 
REMARK    6  A    between atoms: C_24  and  C_25 
ROOT
HETATM    1  C   UNL     1      35.955  52.446  41.424  1.00  0.00     0.161 C 
HETATM    2  C   UNL     1      35.436  51.306  40.471  1.00  0.00     0.019 C 
HETATM    3  C   UNL     1      34.190  51.747  39.663  1.00  0.00     0.045 C 
HETATM    4  C   UNL     1      32.935  51.851  40.522  1.00  0.00     0.236 C 
HETATM    5  N   UNL     1      32.691  50.560  41.259  1.00  0.00    -0.067 N 
HETATM    6  H   UNL     1      31.919  50.758  41.919  1.00  0.00     0.280 HD
HETATM    7  C   UNL     1      33.873  50.148  42.097  1.00  0.00     0.236 C 
HETATM    8  C   UNL     1      35.105  49.995  41.214  1.00  0.00     0.045 C 
HETATM    9  C   UNL     1      36.614  51.198  39.522  1.00  0.00    -0.038 A 
HETATM   10  C   UNL     1      37.433  52.340  39.589  1.00  0.00    -0.026 A 
HETATM   11  C   UNL     1      36.911  53.355  40.583  1.00  0.00     0.148 C 
HETATM   12  C   UNL     1      36.916  50.167  38.642  1.00  0.00     0.009 A 
HETATM   13  C   UNL     1      38.050  50.283  37.836  1.00  0.00     0.001 A 
HETATM   14  C   UNL     1      38.867  51.419  37.910  1.00  0.00     0.001 A 
HETATM   15  C   UNL     1      38.561  52.458  38.789  1.00  0.00     0.010 A 
ENDROOT
BRANCH   1  16
HETATM   16  O   UNL     1      36.519  51.924  42.650  1.00  0.00    -0.387 OA
HETATM   17  C   UNL     1      36.344  52.669  43.850  1.00  0.00     0.202 C 
ENDBRANCH   1  16
BRANCH  11  18
HETATM   18  N   UNL     1      36.380  54.494  39.840  1.00  0.00    -0.346 N 
HETATM   19  C   UNL     1      36.425  55.819  40.202  1.00  0.00     0.252 C 
HETATM   20  O   UNL     1      36.642  56.192  41.350  1.00  0.00    -0.268 OA
HETATM   21  H   UNL     1      36.146  54.292  38.881  1.00  0.00     0.163 HD
BRANCH  19  22
HETATM   22  C   UNL     1      36.133  56.774  39.126  1.00  0.00     0.039 A 
HETATM   23  C   UNL     1      37.063  57.042  38.133  1.00  0.00     0.066 A 
HETATM   24  S   UNL     1      36.517  58.177  36.978  1.00  0.00    -0.113 SA
HETATM   25  C   UNL     1      35.010  58.326  37.764  1.00  0.00     0.050 A 
HETATM   26  C   UNL     1      34.933  57.532  38.888  1.00  0.00     0.024 A 
ENDBRANCH  19  22
ENDBRANCH  11  18
BRANCH   5  27
HETATM   27  C   UNL     1      32.115  49.438  40.423  1.00  0.00     0.276 C 
BRANCH  27  28
HETATM   28  C   UNL     1      30.623  49.286  40.540  1.00  0.00     0.002 A 
HETATM   29  C   UNL     1      30.026  48.857  41.733  1.00  0.00     0.073 A 
HETATM   30  C   UNL     1      28.647  48.689  41.834  1.00  0.00     0.039 A 
HETATM   31  C   UNL     1      27.840  48.954  40.726  1.00  0.00     0.026 A 
HETATM   32  C   UNL     1      28.416  49.378  39.532  1.00  0.00     0.034 A 
HETATM   33 CL   UNL     1      27.425  49.709  38.168  1.00  0.00    -0.084 Cl
HETATM   34  C   UNL     1      29.799  49.541  39.432  1.00  0.00     0.035 A 
BRANCH  29  35
HETATM   35  O   UNL     1      30.836  48.628  42.812  1.00  0.00    -0.360 OA
HETATM   36  H   UNL     1      31.556  48.029  42.527  1.00  0.00     0.217 HD
ENDBRANCH  29  35
ENDBRANCH  27  28
ENDBRANCH   5  27
TORSDOF 6
ENDMDL
MODEL 9
REMARK VINA RESULT:      -7.4      5.244      8.651
REMARK  6 active torsions:
REMARK  status: ('A' for Active; 'I' for Inactive)
REMARK    1  A    between atoms: O_2  and  C_3 
REMARK    2  A    between atoms: N_7  and  C_9 
REMARK    3  A    between atoms: C_9  and  C_10 
REMARK    4  A    between atoms: C_11  and  O_12 
REMARK    5  A    between atoms: C_22  and  N_23 
REMARK       I    between atoms: N_23  and  C_24 
REMARK    6  A    between atoms: C_24  and  C_25 
ROOT
HETATM    1  C   UNL     1      18.049  47.792  47.585  1.00  0.00     0.161 C 
HETATM    2  C   UNL     1      19.180  48.782  47.116  1.00  0.00     0.019 C 
HETATM    3  C   UNL     1      20.459  48.032  46.668  1.00  0.00     0.045 C 
HETATM    4  C   UNL     1      21.225  47.422  47.836  1.00  0.00     0.236 C 
HETATM    5  N   UNL     1      21.530  48.470  48.874  1.00  0.00    -0.067 N 
HETATM    6  H   UNL     1      21.915  47.956  49.685  1.00  0.00     0.280 HD
HETATM    7  C   UNL     1      20.288  49.168  49.364  1.00  0.00     0.236 C 
HETATM    8  C   UNL     1      19.564  49.820  48.191  1.00  0.00     0.045 C 
HETATM    9  C   UNL     1      18.516  49.379  45.891  1.00  0.00    -0.038 A 
HETATM   10  C   UNL     1      17.446  48.580  45.446  1.00  0.00    -0.026 A 
HETATM   11  C   UNL     1      17.258  47.352  46.309  1.00  0.00     0.148 C 
HETATM   12  C   UNL     1      18.860  50.538  45.206  1.00  0.00     0.009 A 
HETATM   13  C   UNL     1      18.120  50.895  44.077  1.00  0.00     0.001 A 
HETATM   14  C   UNL     1      17.051  50.101  43.641  1.00  0.00     0.001 A 
HETATM   15  C   UNL     1      16.708  48.935  44.325  1.00  0.00     0.010 A 
ENDROOT
BRANCH   1  16
HETATM   16  O   UNL     1      17.242  48.343  48.652  1.00  0.00    -0.387 OA
HETATM   17  C   UNL     1      15.847  48.516  48.431  1.00  0.00     0.202 C 
ENDBRANCH   1  16
BRANCH  11  18
HETATM   18  N   UNL     1      17.685  46.184  45.544  1.00  0.00    -0.346 N 
HETATM   19  C   UNL     1      17.633  44.868  45.934  1.00  0.00     0.252 C 
HETATM   20  O   UNL     1      17.510  44.521  47.104  1.00  0.00    -0.268 OA
HETATM   21  H   UNL     1      17.838  46.363  44.563  1.00  0.00     0.163 HD
BRANCH  19  22
HETATM   22  C   UNL     1      17.797  43.885  44.856  1.00  0.00     0.039 A 
HETATM   23  C   UNL     1      19.030  43.307  44.594  1.00  0.00     0.066 A 
HETATM   24  S   UNL     1      18.996  42.187  43.304  1.00  0.00    -0.113 SA
HETATM   25  C   UNL     1      17.323  42.428  43.073  1.00  0.00     0.050 A 
HETATM   26  C   UNL     1      16.807  43.351  43.958  1.00  0.00     0.024 A 
ENDBRANCH  19  22
ENDBRANCH  11  18
BRANCH   5  27
HETATM   27  C   UNL     1      22.663  49.413  48.527  1.00  0.00     0.276 C 
BRANCH  27  28
HETATM   28  C   UNL     1      24.016  48.948  48.993  1.00  0.00     0.002 A 
HETATM   29  C   UNL     1      25.193  49.469  48.442  1.00  0.00     0.073 A 
HETATM   30  C   UNL     1      26.447  49.019  48.853  1.00  0.00     0.039 A 
HETATM   31  C   UNL     1      26.534  48.030  49.834  1.00  0.00     0.026 A 
HETATM   32  C   UNL     1      25.373  47.500  50.391  1.00  0.00     0.034 A 
HETATM   33 CL   UNL     1      25.477  46.285  51.602  1.00  0.00    -0.084 Cl
HETATM   34  C   UNL     1      24.118  47.949  49.974  1.00  0.00     0.035 A 
BRANCH  29  35
HETATM   35  O   UNL     1      25.083  50.455  47.499  1.00  0.00    -0.360 OA
HETATM   36  H   UNL     1      24.267  50.290  46.985  1.00  0.00     0.217 HD
ENDBRANCH  29  35
ENDBRANCH  27  28
ENDBRANCH   5  27
TORSDOF 6
ENDMDL
MODEL 10
REMARK VINA RESULT:      -7.4      3.425      7.499
REMARK  6 active torsions:
REMARK  status: ('A' for Active; 'I' for Inactive)
REMARK    1  A    between atoms: O_2  and  C_3 
REMARK    2  A    between atoms: N_7  and  C_9 
REMARK    3  A    between atoms: C_9  and  C_10 
REMARK    4  A    between atoms: C_11  and  O_12 
REMARK    5  A    between atoms: C_22  and  N_23 
REMARK       I    between atoms: N_23  and  C_24 
REMARK    6  A    between atoms: C_24  and  C_25 
ROOT
HETATM    1  C   UNL     1      17.528  49.540  47.911  1.00  0.00     0.161 C 
HETATM    2  C   UNL     1      18.624  50.127  46.947  1.00  0.00     0.019 C 
HETATM    3  C   UNL     1      18.178  51.465  46.306  1.00  0.00     0.045 C 
HETATM    4  C   UNL     1      17.090  51.282  45.254  1.00  0.00     0.236 C 
HETATM    5  N   UNL     1      17.525  50.285  44.212  1.00  0.00    -0.067 N 
HETATM    6  H   UNL     1      16.689  50.111  43.627  1.00  0.00     0.280 HD
HETATM    7  C   UNL     1      17.906  48.958  44.815  1.00  0.00     0.236 C 
HETATM    8  C   UNL     1      19.032  49.151  45.823  1.00  0.00     0.045 C 
HETATM    9  C   UNL     1      19.728  50.414  47.946  1.00  0.00    -0.038 A 
HETATM   10  C   UNL     1      19.231  50.452  49.262  1.00  0.00    -0.026 A 
HETATM   11  C   UNL     1      17.741  50.200  49.314  1.00  0.00     0.148 C 
HETATM   12  C   UNL     1      21.074  50.652  47.695  1.00  0.00     0.009 A 
HETATM   13  C   UNL     1      21.920  50.919  48.772  1.00  0.00     0.001 A 
HETATM   14  C   UNL     1      21.424  50.950  50.082  1.00  0.00     0.001 A 
HETATM   15  C   UNL     1      20.072  50.717  50.335  1.00  0.00     0.010 A 
ENDROOT
BRANCH   1  16
HETATM   16  O   UNL     1      17.507  48.093  47.906  1.00  0.00    -0.387 OA
HETATM   17  C   UNL     1      16.835  47.418  48.963  1.00  0.00     0.202 C 
ENDBRANCH   1  16
BRANCH  11  18
HETATM   18  N   UNL     1      17.074  51.455  49.646  1.00  0.00    -0.346 N 
HETATM   19  C   UNL     1      15.839  51.880  49.222  1.00  0.00     0.252 C 
HETATM   20  O   UNL     1      15.261  51.398  48.253  1.00  0.00    -0.268 OA
HETATM   21  H   UNL     1      17.484  51.950  50.423  1.00  0.00     0.163 HD
BRANCH  19  22
HETATM   22  C   UNL     1      15.269  53.005  49.973  1.00  0.00     0.039 A 
HETATM   23  C   UNL     1      15.909  54.235  50.019  1.00  0.00     0.066 A 
HETATM   24  S   UNL     1      15.070  55.404  50.941  1.00  0.00    -0.113 SA
HETATM   25  C   UNL     1      13.815  54.303  51.288  1.00  0.00     0.050 A 
HETATM   26  C   UNL     1      14.038  53.068  50.717  1.00  0.00     0.024 A 
ENDBRANCH  19  22
ENDBRANCH  11  18
BRANCH   5  27
HETATM   27  C   UNL     1      18.522  50.803  43.198  1.00  0.00     0.276 C 
BRANCH  27  28
HETATM   28  C   UNL     1      17.936  51.070  41.838  1.00  0.00     0.002 A 
HETATM   29  C   UNL     1      17.702  50.030  40.929  1.00  0.00     0.073 A 
HETATM   30  C   UNL     1      17.185  50.279  39.660  1.00  0.00     0.039 A 
HETATM   31  C   UNL     1      16.891  51.591  39.283  1.00  0.00     0.026 A 
HETATM   32  C   UNL     1      17.120  52.637  40.174  1.00  0.00     0.034 A 
HETATM   33 CL   UNL     1      16.755  54.252  39.714  1.00  0.00    -0.084 Cl
HETATM   34  C   UNL     1      17.642  52.384  41.444  1.00  0.00     0.035 A 
BRANCH  29  35
HETATM   35  O   UNL     1      17.975  48.750  41.331  1.00  0.00    -0.360 OA
HETATM   36  H   UNL     1      17.124  48.272  41.410  1.00  0.00     0.217 HD
ENDBRANCH  29  35
ENDBRANCH  27  28
ENDBRANCH   5  27
TORSDOF 6
ENDMDL
