MODEL 1
REMARK VINA RESULT:      -9.7      0.000      0.000
REMARK  4 active torsions:
REMARK  status: ('A' for Active; 'I' for Inactive)
REMARK    1  A    between atoms: C_6  and  N_7 
REMARK       I    between atoms: N_7  and  C_8 
REMARK    2  A    between atoms: C_8  and  C_9 
REMARK    3  A    between atoms: C_10  and  C_11 
REMARK    4  A    between atoms: C_14  and  O_15 
ROOT
HETATM    1  C   UNL     1      26.163  44.587  51.818  1.00  0.00     0.125 C 
HETATM    2  C   UNL     1      25.413  43.276  51.450  1.00  0.00     0.160 C 
HETATM    3  N   UNL     1      24.192  43.519  50.693  1.00  0.00    -0.231 N 
HETATM    4  C   UNL     1      23.740  44.751  50.315  1.00  0.00     0.200 A 
HETATM    5  N   UNL     1      24.420  45.868  50.645  1.00  0.00    -0.256 NA
HETATM    6  C   UNL     1      25.208  45.803  51.882  1.00  0.00     0.074 C 
HETATM    7  C   UNL     1      25.979  47.121  52.015  1.00  0.00     0.027 C 
HETATM    8  N   UNL     1      23.308  42.555  50.372  1.00  0.00    -0.162 NA
HETATM    9  C   UNL     1      22.383  43.273  49.726  1.00  0.00     0.258 A 
HETATM   10  N   UNL     1      22.611  44.622  49.670  1.00  0.00    -0.210 NA
HETATM   11  H   UNL     1      23.873  46.721  50.534  1.00  0.00     0.131 HD
ENDROOT
BRANCH   1  12
HETATM   12  C   UNL     1      26.830  44.386  53.171  1.00  0.00     0.230 C 
HETATM   13  N   UNL     1      28.208  44.515  53.140  1.00  0.00    -0.326 N 
HETATM   14  H   UNL     1      28.661  44.341  52.249  1.00  0.00     0.169 HD
HETATM   15  O   UNL     1      26.168  44.076  54.158  1.00  0.00    -0.273 OA
BRANCH  13  16
HETATM   16  C   UNL     1      29.058  44.447  54.269  1.00  0.00     0.040 A 
HETATM   17  C   UNL     1      29.169  45.444  55.255  1.00  0.00    -0.035 A 
HETATM   18  C   UNL     1      30.016  45.217  56.359  1.00  0.00     0.015 A 
HETATM   19  C   UNL     1      28.482  46.781  55.193  1.00  0.00     0.050 C 
HETATM   20  C   UNL     1      30.797  44.062  56.462  1.00  0.00    -0.061 A 
HETATM   21  C   UNL     1      31.669  43.832  57.660  1.00  0.00     0.048 C 
HETATM   22  C   UNL     1      30.722  43.109  55.447  1.00  0.00     0.009 A 
HETATM   23  C   UNL     1      29.874  43.308  54.354  1.00  0.00     0.030 A 
ENDBRANCH  13  16
ENDBRANCH   1  12
BRANCH   2  24
HETATM   24  C   UNL     1      26.324  42.326  50.671  1.00  0.00    -0.032 A 
HETATM   25  C   UNL     1      26.994  41.288  51.331  1.00  0.00     0.012 A 
HETATM   26  C   UNL     1      27.848  40.437  50.624  1.00  0.00     0.037 A 
HETATM   27  C   UNL     1      28.046  40.600  49.250  1.00  0.00     0.068 A 
HETATM   28  C   UNL     1      27.375  41.621  48.583  1.00  0.00     0.037 A 
HETATM   29  C   UNL     1      26.517  42.475  49.286  1.00  0.00     0.012 A 
BRANCH  27  30
HETATM   30  O   UNL     1      28.910  39.703  48.684  1.00  0.00    -0.356 OA
HETATM   31  C   UNL     1      29.263  38.569  49.466  1.00  0.00     0.210 C 
ENDBRANCH  27  30
ENDBRANCH   2  24
TORSDOF 4
ENDMDL
MODEL 2
REMARK VINA RESULT:      -8.4      1.476      2.267
REMARK  4 active torsions:
REMARK  status: ('A' for Active; 'I' for Inactive)
REMARK    1  A    between atoms: C_6  and  N_7 
REMARK       I    between atoms: N_7  and  C_8 
REMARK    2  A    between atoms: C_8  and  C_9 
REMARK    3  A    between atoms: C_10  and  C_11 
REMARK    4  A    between atoms: C_14  and  O_15 
ROOT
HETATM    1  C   UNL     1      26.045  43.877  50.356  1.00  0.00     0.125 C 
HETATM    2  C   UNL     1      25.369  42.499  50.109  1.00  0.00     0.160 C 
HETATM    3  N   UNL     1      24.318  42.560  49.101  1.00  0.00    -0.231 N 
HETATM    4  C   UNL     1      23.956  43.685  48.418  1.00  0.00     0.200 A 
HETATM    5  N   UNL     1      24.568  44.863  48.653  1.00  0.00    -0.256 NA
HETATM    6  C   UNL     1      25.104  45.055  50.006  1.00  0.00     0.074 C 
HETATM    7  C   UNL     1      25.844  46.396  50.030  1.00  0.00     0.027 C 
HETATM    8  N   UNL     1      23.504  41.527  48.808  1.00  0.00    -0.162 NA
HETATM    9  C   UNL     1      22.726  42.084  47.873  1.00  0.00     0.258 A 
HETATM   10  N   UNL     1      22.970  43.404  47.607  1.00  0.00    -0.210 NA
HETATM   11  H   UNL     1      24.059  45.664  48.280  1.00  0.00     0.131 HD
ENDROOT
BRANCH   1  12
HETATM   12  C   UNL     1      26.438  43.953  51.825  1.00  0.00     0.230 C 
HETATM   13  N   UNL     1      27.788  44.179  52.030  1.00  0.00    -0.326 N 
HETATM   14  H   UNL     1      28.415  43.894  51.285  1.00  0.00     0.169 HD
HETATM   15  O   UNL     1      25.607  43.762  52.708  1.00  0.00    -0.273 OA
BRANCH  13  16
HETATM   16  C   UNL     1      28.400  44.362  53.293  1.00  0.00     0.040 A 
HETATM   17  C   UNL     1      29.407  43.538  53.827  1.00  0.00    -0.035 A 
HETATM   18  C   UNL     1      29.969  43.874  55.076  1.00  0.00     0.015 A 
HETATM   19  C   UNL     1      29.902  42.274  53.181  1.00  0.00     0.050 C 
HETATM   20  C   UNL     1      29.502  44.960  55.824  1.00  0.00    -0.061 A 
HETATM   21  C   UNL     1      30.135  45.313  57.137  1.00  0.00     0.048 C 
HETATM   22  C   UNL     1      28.462  45.733  55.309  1.00  0.00     0.009 A 
HETATM   23  C   UNL     1      27.906  45.427  54.065  1.00  0.00     0.030 A 
ENDBRANCH  13  16
ENDBRANCH   1  12
BRANCH   2  24
HETATM   24  C   UNL     1      26.406  41.447  49.711  1.00  0.00    -0.032 A 
HETATM   25  C   UNL     1      27.264  41.673  48.627  1.00  0.00     0.012 A 
HETATM   26  C   UNL     1      28.191  40.699  48.247  1.00  0.00     0.037 A 
HETATM   27  C   UNL     1      28.286  39.489  48.940  1.00  0.00     0.068 A 
HETATM   28  C   UNL     1      27.446  39.261  50.027  1.00  0.00     0.037 A 
HETATM   29  C   UNL     1      26.517  40.234  50.413  1.00  0.00     0.012 A 
BRANCH  27  30
HETATM   30  O   UNL     1      29.232  38.625  48.461  1.00  0.00    -0.356 OA
HETATM   31  C   UNL     1      28.790  37.632  47.543  1.00  0.00     0.210 C 
ENDBRANCH  27  30
ENDBRANCH   2  24
TORSDOF 4
ENDMDL
MODEL 3
REMARK VINA RESULT:      -8.3      3.126      7.835
REMARK  4 active torsions:
REMARK  status: ('A' for Active; 'I' for Inactive)
REMARK    1  A    between atoms: C_6  and  N_7 
REMARK       I    between atoms: N_7  and  C_8 
REMARK    2  A    between atoms: C_8  and  C_9 
REMARK    3  A    between atoms: C_10  and  C_11 
REMARK    4  A    between atoms: C_14  and  O_15 
ROOT
HETATM    1  C   UNL     1      26.310  44.907  51.719  1.00  0.00     0.125 C 
HETATM    2  C   UNL     1      25.515  46.181  52.119  1.00  0.00     0.160 C 
HETATM    3  N   UNL     1      26.043  46.822  53.317  1.00  0.00    -0.231 N 
HETATM    4  C   UNL     1      27.129  46.386  54.021  1.00  0.00     0.200 A 
HETATM    5  N   UNL     1      27.800  45.280  53.642  1.00  0.00    -0.256 NA
HETATM    6  C   UNL     1      27.018  44.260  52.934  1.00  0.00     0.074 C 
HETATM    7  C   UNL     1      27.980  43.148  52.501  1.00  0.00     0.027 C 
HETATM    8  N   UNL     1      25.448  47.862  53.931  1.00  0.00    -0.162 NA
HETATM    9  C   UNL     1      26.283  48.053  54.959  1.00  0.00     0.258 A 
HETATM   10  N   UNL     1      27.324  47.169  55.049  1.00  0.00    -0.210 NA
HETATM   11  H   UNL     1      28.419  44.915  54.365  1.00  0.00     0.131 HD
ENDROOT
BRANCH   1  12
HETATM   12  C   UNL     1      25.334  43.914  51.105  1.00  0.00     0.230 C 
HETATM   13  N   UNL     1      25.512  43.723  49.745  1.00  0.00    -0.326 N 
HETATM   14  H   UNL     1      25.954  44.481  49.234  1.00  0.00     0.169 HD
HETATM   15  O   UNL     1      24.447  43.404  51.783  1.00  0.00    -0.273 OA
BRANCH  13  16
HETATM   16  C   UNL     1      24.788  42.805  48.950  1.00  0.00     0.040 A 
HETATM   17  C   UNL     1      23.556  43.075  48.326  1.00  0.00    -0.035 A 
HETATM   18  C   UNL     1      22.973  42.082  47.512  1.00  0.00     0.015 A 
HETATM   19  C   UNL     1      22.774  44.347  48.507  1.00  0.00     0.050 C 
HETATM   20  C   UNL     1      23.551  40.817  47.368  1.00  0.00    -0.061 A 
HETATM   21  C   UNL     1      22.926  39.787  46.475  1.00  0.00     0.048 C 
HETATM   22  C   UNL     1      24.742  40.542  48.041  1.00  0.00     0.009 A 
HETATM   23  C   UNL     1      25.344  41.520  48.836  1.00  0.00     0.030 A 
ENDBRANCH  13  16
ENDBRANCH   1  12
BRANCH   2  24
HETATM   24  C   UNL     1      25.479  47.186  50.968  1.00  0.00    -0.032 A 
HETATM   25  C   UNL     1      24.264  47.521  50.357  1.00  0.00     0.012 A 
HETATM   26  C   UNL     1      24.235  48.418  49.286  1.00  0.00     0.037 A 
HETATM   27  C   UNL     1      25.411  49.003  48.809  1.00  0.00     0.068 A 
HETATM   28  C   UNL     1      26.623  48.687  49.418  1.00  0.00     0.037 A 
HETATM   29  C   UNL     1      26.657  47.790  50.492  1.00  0.00     0.012 A 
BRANCH  27  30
HETATM   30  O   UNL     1      25.241  49.859  47.756  1.00  0.00    -0.356 OA
HETATM   31  C   UNL     1      23.995  50.541  47.676  1.00  0.00     0.210 C 
ENDBRANCH  27  30
ENDBRANCH   2  24
TORSDOF 4
ENDMDL
MODEL 4
REMARK VINA RESULT:      -8.2      2.221      6.264
REMARK  4 active torsions:
REMARK  status: ('A' for Active; 'I' for Inactive)
REMARK    1  A    between atoms: C_6  and  N_7 
REMARK       I    between atoms: N_7  and  C_8 
REMARK    2  A    between atoms: C_8  and  C_9 
REMARK    3  A    between atoms: C_10  and  C_11 
REMARK    4  A    between atoms: C_14  and  O_15 
ROOT
HETATM    1  C   UNL     1      24.703  44.562  50.755  1.00  0.00     0.125 C 
HETATM    2  C   UNL     1      25.906  45.546  50.774  1.00  0.00     0.160 C 
HETATM    3  N   UNL     1      25.598  46.825  50.147  1.00  0.00    -0.231 N 
HETATM    4  C   UNL     1      24.387  47.160  49.611  1.00  0.00     0.200 A 
HETATM    5  N   UNL     1      23.363  46.284  49.618  1.00  0.00    -0.256 NA
HETATM    6  C   UNL     1      23.726  44.862  49.593  1.00  0.00     0.074 C 
HETATM    7  C   UNL     1      22.435  44.046  49.714  1.00  0.00     0.027 C 
HETATM    8  N   UNL     1      26.513  47.788  49.927  1.00  0.00    -0.162 NA
HETATM    9  C   UNL     1      25.758  48.714  49.325  1.00  0.00     0.258 A 
HETATM   10  N   UNL     1      24.451  48.366  49.112  1.00  0.00    -0.210 NA
HETATM   11  H   UNL     1      22.607  46.541  48.982  1.00  0.00     0.131 HD
ENDROOT
BRANCH   1  12
HETATM   12  C   UNL     1      25.250  43.149  50.614  1.00  0.00     0.230 C 
HETATM   13  N   UNL     1      26.435  43.077  49.901  1.00  0.00    -0.326 N 
HETATM   14  H   UNL     1      26.615  43.827  49.242  1.00  0.00     0.169 HD
HETATM   15  O   UNL     1      24.627  42.187  51.055  1.00  0.00    -0.273 OA
BRANCH  13  16
HETATM   16  C   UNL     1      27.186  41.897  49.687  1.00  0.00     0.040 A 
HETATM   17  C   UNL     1      27.859  41.178  50.691  1.00  0.00    -0.035 A 
HETATM   18  C   UNL     1      28.523  39.984  50.344  1.00  0.00     0.015 A 
HETATM   19  C   UNL     1      27.970  41.622  52.124  1.00  0.00     0.050 C 
HETATM   20  C   UNL     1      28.588  39.538  49.020  1.00  0.00    -0.061 A 
HETATM   21  C   UNL     1      29.278  38.250  48.680  1.00  0.00     0.048 C 
HETATM   22  C   UNL     1      27.968  40.293  48.025  1.00  0.00     0.009 A 
HETATM   23  C   UNL     1      27.289  41.469  48.354  1.00  0.00     0.030 A 
ENDBRANCH  13  16
ENDBRANCH   1  12
BRANCH   2  24
HETATM   24  C   UNL     1      26.401  45.776  52.202  1.00  0.00    -0.032 A 
HETATM   25  C   UNL     1      25.875  46.820  52.974  1.00  0.00     0.012 A 
HETATM   26  C   UNL     1      26.348  47.048  54.269  1.00  0.00     0.037 A 
HETATM   27  C   UNL     1      27.345  46.240  54.821  1.00  0.00     0.068 A 
HETATM   28  C   UNL     1      27.865  45.191  54.066  1.00  0.00     0.037 A 
HETATM   29  C   UNL     1      27.394  44.958  52.769  1.00  0.00     0.012 A 
BRANCH  27  30
HETATM   30  O   UNL     1      27.718  46.574  56.094  1.00  0.00    -0.356 OA
HETATM   31  C   UNL     1      28.970  46.076  56.549  1.00  0.00     0.210 C 
ENDBRANCH  27  30
ENDBRANCH   2  24
TORSDOF 4
ENDMDL
MODEL 5
REMARK VINA RESULT:      -7.9      2.226      6.902
REMARK  4 active torsions:
REMARK  status: ('A' for Active; 'I' for Inactive)
REMARK    1  A    between atoms: C_6  and  N_7 
REMARK       I    between atoms: N_7  and  C_8 
REMARK    2  A    between atoms: C_8  and  C_9 
REMARK    3  A    between atoms: C_10  and  C_11 
REMARK    4  A    between atoms: C_14  and  O_15 
ROOT
HETATM    1  C   UNL     1      24.906  43.972  50.425  1.00  0.00     0.125 C 
HETATM    2  C   UNL     1      26.173  44.869  50.386  1.00  0.00     0.160 C 
HETATM    3  N   UNL     1      25.872  46.256  50.052  1.00  0.00    -0.231 N 
HETATM    4  C   UNL     1      24.621  46.747  49.813  1.00  0.00     0.200 A 
HETATM    5  N   UNL     1      23.541  45.941  49.863  1.00  0.00    -0.256 NA
HETATM    6  C   UNL     1      23.772  44.530  49.531  1.00  0.00     0.074 C 
HETATM    7  C   UNL     1      22.456  43.776  49.750  1.00  0.00     0.027 C 
HETATM    8  N   UNL     1      26.815  47.192  49.831  1.00  0.00    -0.162 NA
HETATM    9  C   UNL     1      26.049  48.251  49.544  1.00  0.00     0.258 A 
HETATM   10  N   UNL     1      24.700  48.019  49.522  1.00  0.00    -0.210 NA
HETATM   11  H   UNL     1      22.712  46.349  49.431  1.00  0.00     0.131 HD
ENDROOT
BRANCH   1  12
HETATM   12  C   UNL     1      25.297  42.580  49.949  1.00  0.00     0.230 C 
HETATM   13  N   UNL     1      25.776  42.548  48.651  1.00  0.00    -0.326 N 
HETATM   14  H   UNL     1      25.475  43.298  48.037  1.00  0.00     0.169 HD
HETATM   15  O   UNL     1      25.125  41.599  50.667  1.00  0.00    -0.273 OA
BRANCH  13  16
HETATM   16  C   UNL     1      26.272  41.397  47.994  1.00  0.00     0.040 A 
HETATM   17  C   UNL     1      25.487  40.479  47.274  1.00  0.00    -0.035 A 
HETATM   18  C   UNL     1      26.125  39.405  46.619  1.00  0.00     0.015 A 
HETATM   19  C   UNL     1      23.986  40.526  47.192  1.00  0.00     0.050 C 
HETATM   20  C   UNL     1      27.503  39.192  46.727  1.00  0.00    -0.061 A 
HETATM   21  C   UNL     1      28.161  38.059  45.999  1.00  0.00     0.048 C 
HETATM   22  C   UNL     1      28.261  40.077  47.494  1.00  0.00     0.009 A 
HETATM   23  C   UNL     1      27.649  41.157  48.134  1.00  0.00     0.030 A 
ENDBRANCH  13  16
ENDBRANCH   1  12
BRANCH   2  24
HETATM   24  C   UNL     1      26.926  44.810  51.716  1.00  0.00    -0.032 A 
HETATM   25  C   UNL     1      28.046  43.981  51.859  1.00  0.00     0.012 A 
HETATM   26  C   UNL     1      28.716  43.906  53.083  1.00  0.00     0.037 A 
HETATM   27  C   UNL     1      28.290  44.656  54.182  1.00  0.00     0.068 A 
HETATM   28  C   UNL     1      27.185  45.494  54.045  1.00  0.00     0.037 A 
HETATM   29  C   UNL     1      26.511  45.574  52.822  1.00  0.00     0.012 A 
BRANCH  27  30
HETATM   30  O   UNL     1      29.032  44.486  55.318  1.00  0.00    -0.356 OA
HETATM   31  C   UNL     1      29.616  45.652  55.886  1.00  0.00     0.210 C 
ENDBRANCH  27  30
ENDBRANCH   2  24
TORSDOF 4
ENDMDL
MODEL 6
REMARK VINA RESULT:      -7.9     11.524     12.921
REMARK  4 active torsions:
REMARK  status: ('A' for Active; 'I' for Inactive)
REMARK    1  A    between atoms: C_6  and  N_7 
REMARK       I    between atoms: N_7  and  C_8 
REMARK    2  A    between atoms: C_8  and  C_9 
REMARK    3  A    between atoms: C_10  and  C_11 
REMARK    4  A    between atoms: C_14  and  O_15 
ROOT
HETATM    1  C   UNL     1      27.316  49.283  39.665  1.00  0.00     0.125 C 
HETATM    2  C   UNL     1      26.277  48.248  40.178  1.00  0.00     0.160 C 
HETATM    3  N   UNL     1      25.055  48.237  39.386  1.00  0.00    -0.231 N 
HETATM    4  C   UNL     1      24.825  49.024  38.294  1.00  0.00     0.200 A 
HETATM    5  N   UNL     1      25.752  49.906  37.871  1.00  0.00    -0.256 NA
HETATM    6  C   UNL     1      26.644  50.450  38.902  1.00  0.00     0.074 C 
HETATM    7  C   UNL     1      27.679  51.340  38.204  1.00  0.00     0.027 C 
HETATM    8  N   UNL     1      23.961  47.520  39.710  1.00  0.00    -0.162 NA
HETATM    9  C   UNL     1      23.136  47.864  38.715  1.00  0.00     0.258 A 
HETATM   10  N   UNL     1      23.628  48.783  37.827  1.00  0.00    -0.210 NA
HETATM   11  H   UNL     1      25.383  50.600  37.221  1.00  0.00     0.131 HD
ENDROOT
BRANCH   1  12
HETATM   12  C   UNL     1      28.076  49.827  40.867  1.00  0.00     0.230 C 
HETATM   13  N   UNL     1      29.425  50.030  40.631  1.00  0.00    -0.326 N 
HETATM   14  H   UNL     1      29.845  49.476  39.892  1.00  0.00     0.169 HD
HETATM   15  O   UNL     1      27.511  49.992  41.945  1.00  0.00    -0.273 OA
BRANCH  13  16
HETATM   16  C   UNL     1      30.338  50.592  41.554  1.00  0.00     0.040 A 
HETATM   17  C   UNL     1      30.548  51.970  41.741  1.00  0.00    -0.035 A 
HETATM   18  C   UNL     1      31.449  52.391  42.740  1.00  0.00     0.015 A 
HETATM   19  C   UNL     1      29.912  53.048  40.906  1.00  0.00     0.050 C 
HETATM   20  C   UNL     1      32.189  51.476  43.496  1.00  0.00    -0.061 A 
HETATM   21  C   UNL     1      33.121  51.948  44.572  1.00  0.00     0.048 C 
HETATM   22  C   UNL     1      32.015  50.112  43.258  1.00  0.00     0.009 A 
HETATM   23  C   UNL     1      31.111  49.677  42.286  1.00  0.00     0.030 A 
ENDBRANCH  13  16
ENDBRANCH   1  12
BRANCH   2  24
HETATM   24  C   UNL     1      26.880  46.843  40.219  1.00  0.00    -0.032 A 
HETATM   25  C   UNL     1      27.867  46.470  39.297  1.00  0.00     0.012 A 
HETATM   26  C   UNL     1      28.398  45.177  39.317  1.00  0.00     0.037 A 
HETATM   27  C   UNL     1      27.962  44.237  40.254  1.00  0.00     0.068 A 
HETATM   28  C   UNL     1      26.991  44.603  41.183  1.00  0.00     0.037 A 
HETATM   29  C   UNL     1      26.458  45.897  41.169  1.00  0.00     0.012 A 
BRANCH  27  30
HETATM   30  O   UNL     1      28.560  43.011  40.159  1.00  0.00    -0.356 OA
HETATM   31  C   UNL     1      28.037  41.975  40.982  1.00  0.00     0.210 C 
ENDBRANCH  27  30
ENDBRANCH   2  24
TORSDOF 4
ENDMDL
MODEL 7
REMARK VINA RESULT:      -7.9      2.864      7.575
REMARK  4 active torsions:
REMARK  status: ('A' for Active; 'I' for Inactive)
REMARK    1  A    between atoms: C_6  and  N_7 
REMARK       I    between atoms: N_7  and  C_8 
REMARK    2  A    between atoms: C_8  and  C_9 
REMARK    3  A    between atoms: C_10  and  C_11 
REMARK    4  A    between atoms: C_14  and  O_15 
ROOT
HETATM    1  C   UNL     1      24.090  46.308  49.962  1.00  0.00     0.125 C 
HETATM    2  C   UNL     1      25.641  46.393  50.009  1.00  0.00     0.160 C 
HETATM    3  N   UNL     1      26.151  47.659  49.500  1.00  0.00    -0.231 N 
HETATM    4  C   UNL     1      25.376  48.686  49.042  1.00  0.00     0.200 A 
HETATM    5  N   UNL     1      24.032  48.581  49.021  1.00  0.00    -0.256 NA
HETATM    6  C   UNL     1      23.491  47.225  48.868  1.00  0.00     0.074 C 
HETATM    7  C   UNL     1      21.966  47.313  48.977  1.00  0.00     0.027 C 
HETATM    8  N   UNL     1      27.461  47.918  49.319  1.00  0.00    -0.162 NA
HETATM    9  C   UNL     1      27.401  49.159  48.824  1.00  0.00     0.258 A 
HETATM   10  N   UNL     1      26.142  49.665  48.638  1.00  0.00    -0.210 NA
HETATM   11  H   UNL     1      23.580  49.286  48.440  1.00  0.00     0.131 HD
ENDROOT
BRANCH   1  12
HETATM   12  C   UNL     1      23.704  44.861  49.687  1.00  0.00     0.230 C 
HETATM   13  N   UNL     1      24.179  44.376  48.480  1.00  0.00    -0.326 N 
HETATM   14  H   UNL     1      24.372  45.063  47.759  1.00  0.00     0.169 HD
HETATM   15  O   UNL     1      22.983  44.244  50.466  1.00  0.00    -0.273 OA
BRANCH  13  16
HETATM   16  C   UNL     1      24.024  43.048  48.019  1.00  0.00     0.040 A 
HETATM   17  C   UNL     1      24.901  41.987  48.308  1.00  0.00    -0.035 A 
HETATM   18  C   UNL     1      24.591  40.698  47.828  1.00  0.00     0.015 A 
HETATM   19  C   UNL     1      26.195  42.136  49.060  1.00  0.00     0.050 C 
HETATM   20  C   UNL     1      23.477  40.465  47.015  1.00  0.00    -0.061 A 
HETATM   21  C   UNL     1      23.153  39.080  46.540  1.00  0.00     0.048 C 
HETATM   22  C   UNL     1      22.648  41.538  46.686  1.00  0.00     0.009 A 
HETATM   23  C   UNL     1      22.929  42.818  47.169  1.00  0.00     0.030 A 
ENDBRANCH  13  16
ENDBRANCH   1  12
BRANCH   2  24
HETATM   24  C   UNL     1      26.157  46.162  51.430  1.00  0.00    -0.032 A 
HETATM   25  C   UNL     1      26.805  44.965  51.762  1.00  0.00     0.012 A 
HETATM   26  C   UNL     1      27.252  44.743  53.067  1.00  0.00     0.037 A 
HETATM   27  C   UNL     1      27.068  45.707  54.062  1.00  0.00     0.068 A 
HETATM   28  C   UNL     1      26.437  46.905  53.739  1.00  0.00     0.037 A 
HETATM   29  C   UNL     1      25.989  47.133  52.433  1.00  0.00     0.012 A 
BRANCH  27  30
HETATM   30  O   UNL     1      27.549  45.360  55.295  1.00  0.00    -0.356 OA
HETATM   31  C   UNL     1      28.554  46.198  55.852  1.00  0.00     0.210 C 
ENDBRANCH  27  30
ENDBRANCH   2  24
TORSDOF 4
ENDMDL
MODEL 8
REMARK VINA RESULT:      -7.9     11.997     13.109
REMARK  4 active torsions:
REMARK  status: ('A' for Active; 'I' for Inactive)
REMARK    1  A    between atoms: C_6  and  N_7 
REMARK       I    between atoms: N_7  and  C_8 
REMARK    2  A    between atoms: C_8  and  C_9 
REMARK    3  A    between atoms: C_10  and  C_11 
REMARK    4  A    between atoms: C_14  and  O_15 
ROOT
HETATM    1  C   UNL     1      27.719  49.592  39.614  1.00  0.00     0.125 C 
HETATM    2  C   UNL     1      26.694  48.503  40.036  1.00  0.00     0.160 C 
HETATM    3  N   UNL     1      25.431  48.610  39.317  1.00  0.00    -0.231 N 
HETATM    4  C   UNL     1      25.155  49.542  38.358  1.00  0.00     0.200 A 
HETATM    5  N   UNL     1      26.071  50.468  38.011  1.00  0.00    -0.256 NA
HETATM    6  C   UNL     1      27.025  50.858  39.057  1.00  0.00     0.074 C 
HETATM    7  C   UNL     1      28.033  51.828  38.433  1.00  0.00     0.027 C 
HETATM    8  N   UNL     1      24.346  47.863  39.599  1.00  0.00    -0.162 NA
HETATM    9  C   UNL     1      23.474  48.347  38.707  1.00  0.00     0.258 A 
HETATM   10  N   UNL     1      23.931  49.377  37.929  1.00  0.00    -0.210 NA
HETATM   11  H   UNL     1      25.677  51.248  37.484  1.00  0.00     0.131 HD
ENDROOT
BRANCH   1  12
HETATM   12  C   UNL     1      28.550  49.959  40.836  1.00  0.00     0.230 C 
HETATM   13  N   UNL     1      29.907  50.050  40.583  1.00  0.00    -0.326 N 
HETATM   14  H   UNL     1      30.259  49.520  39.792  1.00  0.00     0.169 HD
HETATM   15  O   UNL     1      28.022  50.089  41.937  1.00  0.00    -0.273 OA
BRANCH  13  16
HETATM   16  C   UNL     1      30.887  50.443  41.525  1.00  0.00     0.040 A 
HETATM   17  C   UNL     1      31.986  49.658  41.919  1.00  0.00    -0.035 A 
HETATM   18  C   UNL     1      32.919  50.202  42.826  1.00  0.00     0.015 A 
HETATM   19  C   UNL     1      32.218  48.239  41.479  1.00  0.00     0.050 C 
HETATM   20  C   UNL     1      32.740  51.467  43.395  1.00  0.00    -0.061 A 
HETATM   21  C   UNL     1      33.761  52.033  44.337  1.00  0.00     0.048 C 
HETATM   22  C   UNL     1      31.614  52.210  43.041  1.00  0.00     0.009 A 
HETATM   23  C   UNL     1      30.689  51.696  42.129  1.00  0.00     0.030 A 
ENDBRANCH  13  16
ENDBRANCH   1  12
BRANCH   2  24
HETATM   24  C   UNL     1      27.278  47.102  39.850  1.00  0.00    -0.032 A 
HETATM   25  C   UNL     1      27.068  46.113  40.819  1.00  0.00     0.012 A 
HETATM   26  C   UNL     1      27.625  44.841  40.662  1.00  0.00     0.037 A 
HETATM   27  C   UNL     1      28.395  44.529  39.538  1.00  0.00     0.068 A 
HETATM   28  C   UNL     1      28.599  45.502  38.563  1.00  0.00     0.037 A 
HETATM   29  C   UNL     1      28.041  46.777  38.714  1.00  0.00     0.012 A 
BRANCH  27  30
HETATM   30  O   UNL     1      28.883  43.252  39.512  1.00  0.00    -0.356 OA
HETATM   31  C   UNL     1      28.101  42.252  40.154  1.00  0.00     0.210 C 
ENDBRANCH  27  30
ENDBRANCH   2  24
TORSDOF 4
ENDMDL
MODEL 9
REMARK VINA RESULT:      -7.8      3.898      6.092
REMARK  4 active torsions:
REMARK  status: ('A' for Active; 'I' for Inactive)
REMARK    1  A    between atoms: C_6  and  N_7 
REMARK       I    between atoms: N_7  and  C_8 
REMARK    2  A    between atoms: C_8  and  C_9 
REMARK    3  A    between atoms: C_10  and  C_11 
REMARK    4  A    between atoms: C_14  and  O_15 
ROOT
HETATM    1  C   UNL     1      24.523  48.141  48.699  1.00  0.00     0.125 C 
HETATM    2  C   UNL     1      23.090  47.805  49.197  1.00  0.00     0.160 C 
HETATM    3  N   UNL     1      22.137  48.877  48.939  1.00  0.00    -0.231 N 
HETATM    4  C   UNL     1      22.436  50.053  48.313  1.00  0.00     0.200 A 
HETATM    5  N   UNL     1      23.689  50.310  47.887  1.00  0.00    -0.256 NA
HETATM    6  C   UNL     1      24.773  49.668  48.641  1.00  0.00     0.074 C 
HETATM    7  C   UNL     1      26.093  49.998  47.938  1.00  0.00     0.027 C 
HETATM    8  N   UNL     1      20.868  48.873  49.392  1.00  0.00    -0.162 NA
HETATM    9  C   UNL     1      20.436  50.050  48.925  1.00  0.00     0.258 A 
HETATM   10  N   UNL     1      21.367  50.803  48.260  1.00  0.00    -0.210 NA
HETATM   11  H   UNL     1      23.848  51.293  47.669  1.00  0.00     0.131 HD
ENDROOT
BRANCH   1  12
HETATM   12  C   UNL     1      25.518  47.494  49.652  1.00  0.00     0.230 C 
HETATM   13  N   UNL     1      25.010  47.262  50.918  1.00  0.00    -0.326 N 
HETATM   14  H   UNL     1      24.238  47.851  51.213  1.00  0.00     0.169 HD
HETATM   15  O   UNL     1      26.674  47.276  49.299  1.00  0.00    -0.273 OA
BRANCH  13  16
HETATM   16  C   UNL     1      25.701  46.610  51.966  1.00  0.00     0.040 A 
HETATM   17  C   UNL     1      26.033  45.243  51.984  1.00  0.00    -0.035 A 
HETATM   18  C   UNL     1      26.777  44.738  53.070  1.00  0.00     0.015 A 
HETATM   19  C   UNL     1      25.602  44.251  50.939  1.00  0.00     0.050 C 
HETATM   20  C   UNL     1      27.129  45.543  54.158  1.00  0.00    -0.061 A 
HETATM   21  C   UNL     1      27.944  44.988  55.288  1.00  0.00     0.048 C 
HETATM   22  C   UNL     1      26.741  46.883  54.156  1.00  0.00     0.009 A 
HETATM   23  C   UNL     1      26.021  47.406  53.079  1.00  0.00     0.030 A 
ENDBRANCH  13  16
ENDBRANCH   1  12
BRANCH   2  24
HETATM   24  C   UNL     1      22.586  46.504  48.570  1.00  0.00    -0.032 A 
HETATM   25  C   UNL     1      22.643  45.303  49.290  1.00  0.00     0.012 A 
HETATM   26  C   UNL     1      22.209  44.110  48.706  1.00  0.00     0.037 A 
HETATM   27  C   UNL     1      21.705  44.090  47.403  1.00  0.00     0.068 A 
HETATM   28  C   UNL     1      21.633  45.281  46.685  1.00  0.00     0.037 A 
HETATM   29  C   UNL     1      22.065  46.479  47.265  1.00  0.00     0.012 A 
BRANCH  27  30
HETATM   30  O   UNL     1      21.320  42.857  46.954  1.00  0.00    -0.356 OA
HETATM   31  C   UNL     1      20.436  42.826  45.840  1.00  0.00     0.210 C 
ENDBRANCH  27  30
ENDBRANCH   2  24
TORSDOF 4
ENDMDL
MODEL 10
REMARK VINA RESULT:      -7.8      1.970      3.009
REMARK  4 active torsions:
REMARK  status: ('A' for Active; 'I' for Inactive)
REMARK    1  A    between atoms: C_6  and  N_7 
REMARK       I    between atoms: N_7  and  C_8 
REMARK    2  A    between atoms: C_8  and  C_9 
REMARK    3  A    between atoms: C_10  and  C_11 
REMARK    4  A    between atoms: C_14  and  O_15 
ROOT
HETATM    1  C   UNL     1      25.088  44.905  50.320  1.00  0.00     0.125 C 
HETATM    2  C   UNL     1      23.890  43.964  50.016  1.00  0.00     0.160 C 
HETATM    3  N   UNL     1      22.779  44.655  49.374  1.00  0.00    -0.231 N 
HETATM    4  C   UNL     1      22.770  45.980  49.045  1.00  0.00     0.200 A 
HETATM    5  N   UNL     1      23.830  46.767  49.317  1.00  0.00    -0.256 NA
HETATM    6  C   UNL     1      24.643  46.380  50.476  1.00  0.00     0.074 C 
HETATM    7  C   UNL     1      25.843  47.329  50.545  1.00  0.00     0.027 C 
HETATM    8  N   UNL     1      21.584  44.083  49.131  1.00  0.00    -0.162 NA
HETATM    9  C   UNL     1      20.928  45.108  48.574  1.00  0.00     0.258 A 
HETATM   10  N   UNL     1      21.620  46.287  48.504  1.00  0.00    -0.210 NA
HETATM   11  H   UNL     1      23.619  47.763  49.260  1.00  0.00     0.131 HD
ENDROOT
BRANCH   1  12
HETATM   12  C   UNL     1      25.748  44.430  51.607  1.00  0.00     0.230 C 
HETATM   13  N   UNL     1      27.119  44.268  51.505  1.00  0.00    -0.326 N 
HETATM   14  H   UNL     1      27.488  44.094  50.575  1.00  0.00     0.169 HD
HETATM   15  O   UNL     1      25.074  44.167  52.598  1.00  0.00    -0.273 OA
BRANCH  13  16
HETATM   16  C   UNL     1      27.978  43.906  52.569  1.00  0.00     0.040 A 
HETATM   17  C   UNL     1      28.647  42.674  52.680  1.00  0.00    -0.035 A 
HETATM   18  C   UNL     1      29.520  42.470  53.768  1.00  0.00     0.015 A 
HETATM   19  C   UNL     1      28.458  41.516  51.738  1.00  0.00     0.050 C 
HETATM   20  C   UNL     1      29.681  43.431  54.772  1.00  0.00    -0.061 A 
HETATM   21  C   UNL     1      30.637  43.201  55.905  1.00  0.00     0.048 C 
HETATM   22  C   UNL     1      28.965  44.624  54.680  1.00  0.00     0.009 A 
HETATM   23  C   UNL     1      28.110  44.851  53.599  1.00  0.00     0.030 A 
ENDBRANCH  13  16
ENDBRANCH   1  12
BRANCH   2  24
HETATM   24  C   UNL     1      24.330  42.781  49.153  1.00  0.00    -0.032 A 
HETATM   25  C   UNL     1      24.052  42.763  47.781  1.00  0.00     0.012 A 
HETATM   26  C   UNL     1      24.430  41.669  46.998  1.00  0.00     0.037 A 
HETATM   27  C   UNL     1      25.095  40.578  47.563  1.00  0.00     0.068 A 
HETATM   28  C   UNL     1      25.388  40.592  48.925  1.00  0.00     0.037 A 
HETATM   29  C   UNL     1      25.013  41.686  49.712  1.00  0.00     0.012 A 
BRANCH  27  30
HETATM   30  O   UNL     1      25.403  39.575  46.686  1.00  0.00    -0.356 OA
HETATM   31  C   UNL     1      26.597  39.728  45.928  1.00  0.00     0.210 C 
ENDBRANCH  27  30
ENDBRANCH   2  24
TORSDOF 4
ENDMDL
