MODEL 1
REMARK VINA RESULT:      -9.1      0.000      0.000
REMARK  6 active torsions:
REMARK  status: ('A' for Active; 'I' for Inactive)
REMARK    1  A    between atoms: C_2  and  C_3 
REMARK    2  A    between atoms: C_4  and  N_5 
REMARK       I    between atoms: N_5  and  C_6 
REMARK    3  A    between atoms: C_6  and  C_7 
REMARK    4  A    between atoms: C_10  and  C_11 
REMARK    5  A    between atoms: C_11  and  C_12 
REMARK    6  A    between atoms: C_25  and  C_26 
ROOT
HETATM    1  N   UNL     1      25.541  46.627  53.133  1.00  0.00    -0.307 N 
HETATM    2  C   UNL     1      25.278  46.490  51.734  1.00  0.00     0.257 C 
HETATM    3  O   UNL     1      24.766  47.449  51.186  1.00  0.00    -0.267 OA
HETATM    4  H   UNL     1      25.017  47.359  53.601  1.00  0.00     0.170 HD
ENDROOT
BRANCH   2   5
HETATM    5  C   UNL     1      25.544  45.213  51.029  1.00  0.00     0.032 A 
HETATM    6  C   UNL     1      26.693  45.048  50.246  1.00  0.00     0.017 A 
HETATM    7  C   UNL     1      26.922  43.844  49.580  1.00  0.00     0.008 A 
HETATM    8  C   UNL     1      26.039  42.770  49.731  1.00  0.00    -0.057 A 
HETATM    9  C   UNL     1      24.910  42.930  50.550  1.00  0.00     0.008 A 
HETATM   10  C   UNL     1      24.662  44.144  51.198  1.00  0.00     0.017 A 
BRANCH   8  11
HETATM   11  C   UNL     1      26.310  41.440  49.058  1.00  0.00     0.053 C 
BRANCH  11  12
HETATM   12  C   UNL     1      26.682  40.275  49.989  1.00  0.00     0.091 C 
HETATM   13  C   UNL     1      28.060  40.455  50.576  1.00  0.00     0.229 C 
HETATM   14  O   UNL     1      28.411  41.378  51.294  1.00  0.00    -0.273 OA
HETATM   15  N   UNL     1      28.869  39.473  50.107  1.00  0.00    -0.297 N 
HETATM   16  C   UNL     1      28.241  38.638  49.244  1.00  0.00     0.225 C 
HETATM   17  H   UNL     1      29.864  39.458  50.266  1.00  0.00     0.171 HD
HETATM   18  O   UNL     1      28.781  37.798  48.543  1.00  0.00    -0.273 OA
HETATM   19  C   UNL     1      26.767  38.908  49.308  1.00  0.00     0.117 C 
ENDBRANCH  11  12
ENDBRANCH   8  11
ENDBRANCH   2   5
BRANCH   1  20
HETATM   20  C   UNL     1      26.484  45.917  53.853  1.00  0.00     0.133 A 
HETATM   21  C   UNL     1      27.480  46.479  54.631  1.00  0.00     0.018 A 
HETATM   22  C   UNL     1      28.147  45.347  55.236  1.00  0.00     0.097 A 
HETATM   23  N   UNL     1      27.604  44.201  54.784  1.00  0.00    -0.172 NA
HETATM   24  N   UNL     1      26.632  44.567  53.952  1.00  0.00    -0.261 N 
HETATM   25  H   UNL     1      26.107  43.834  53.487  1.00  0.00     0.191 HD
BRANCH  21  26
HETATM   26  C   UNL     1      27.689  47.943  54.844  1.00  0.00     0.040 C 
HETATM   27  C   UNL     1      26.645  48.552  55.768  1.00  0.00     0.010 C 
ENDBRANCH  21  26
BRANCH  22  28
HETATM   28  C   UNL     1      29.224  45.262  56.244  1.00  0.00    -0.002 A 
HETATM   29  C   UNL     1      30.305  44.397  56.020  1.00  0.00     0.033 A 
HETATM   30  C   UNL     1      31.307  44.290  56.970  1.00  0.00     0.117 A 
HETATM   31  N   UNL     1      31.307  44.976  58.129  1.00  0.00    -0.273 NA
HETATM   32  C   UNL     1      30.272  45.815  58.330  1.00  0.00     0.117 A 
HETATM   33  C   UNL     1      29.229  45.995  57.431  1.00  0.00     0.033 A 
ENDBRANCH  22  28
ENDBRANCH   1  20
TORSDOF 6
ENDMDL
MODEL 2
REMARK VINA RESULT:      -8.7      1.363      2.145
REMARK  6 active torsions:
REMARK  status: ('A' for Active; 'I' for Inactive)
REMARK    1  A    between atoms: C_2  and  C_3 
REMARK    2  A    between atoms: C_4  and  N_5 
REMARK       I    between atoms: N_5  and  C_6 
REMARK    3  A    between atoms: C_6  and  C_7 
REMARK    4  A    between atoms: C_10  and  C_11 
REMARK    5  A    between atoms: C_11  and  C_12 
REMARK    6  A    between atoms: C_25  and  C_26 
ROOT
HETATM    1  N   UNL     1      25.658  47.206  53.340  1.00  0.00    -0.307 N 
HETATM    2  C   UNL     1      25.295  46.720  52.046  1.00  0.00     0.257 C 
HETATM    3  O   UNL     1      24.442  47.355  51.452  1.00  0.00    -0.267 OA
HETATM    4  H   UNL     1      24.985  47.828  53.773  1.00  0.00     0.170 HD
ENDROOT
BRANCH   2   5
HETATM    5  C   UNL     1      25.875  45.465  51.511  1.00  0.00     0.032 A 
HETATM    6  C   UNL     1      25.097  44.308  51.386  1.00  0.00     0.017 A 
HETATM    7  C   UNL     1      25.662  43.132  50.892  1.00  0.00     0.008 A 
HETATM    8  C   UNL     1      26.993  43.110  50.462  1.00  0.00    -0.057 A 
HETATM    9  C   UNL     1      27.755  44.285  50.552  1.00  0.00     0.008 A 
HETATM   10  C   UNL     1      27.201  45.460  51.073  1.00  0.00     0.017 A 
BRANCH   8  11
HETATM   11  C   UNL     1      27.597  41.853  49.870  1.00  0.00     0.053 C 
BRANCH  11  12
HETATM   12  C   UNL     1      27.462  40.576  50.715  1.00  0.00     0.091 C 
HETATM   13  C   UNL     1      28.643  40.397  51.637  1.00  0.00     0.229 C 
HETATM   14  O   UNL     1      28.973  41.167  52.525  1.00  0.00    -0.273 OA
HETATM   15  N   UNL     1      29.328  39.288  51.264  1.00  0.00    -0.297 N 
HETATM   16  C   UNL     1      28.793  38.676  50.178  1.00  0.00     0.225 C 
HETATM   17  H   UNL     1      30.220  39.035  51.657  1.00  0.00     0.171 HD
HETATM   18  O   UNL     1      29.314  37.782  49.534  1.00  0.00    -0.273 OA
HETATM   19  C   UNL     1      27.442  39.273  49.914  1.00  0.00     0.117 C 
ENDBRANCH  11  12
ENDBRANCH   8  11
ENDBRANCH   2   5
BRANCH   1  20
HETATM   20  C   UNL     1      26.856  46.965  53.989  1.00  0.00     0.133 A 
HETATM   21  C   UNL     1      27.163  45.813  54.692  1.00  0.00     0.018 A 
HETATM   22  C   UNL     1      28.535  46.000  55.108  1.00  0.00     0.097 A 
HETATM   23  N   UNL     1      28.970  47.214  54.720  1.00  0.00    -0.172 NA
HETATM   24  N   UNL     1      27.949  47.772  54.073  1.00  0.00    -0.261 N 
HETATM   25  H   UNL     1      28.076  48.711  53.714  1.00  0.00     0.191 HD
BRANCH  21  26
HETATM   26  C   UNL     1      26.264  44.629  54.846  1.00  0.00     0.040 C 
HETATM   27  C   UNL     1      26.895  43.347  54.323  1.00  0.00     0.010 C 
ENDBRANCH  21  26
BRANCH  22  28
HETATM   28  C   UNL     1      29.484  45.104  55.801  1.00  0.00    -0.002 A 
HETATM   29  C   UNL     1      29.916  45.434  57.095  1.00  0.00     0.033 A 
HETATM   30  C   UNL     1      30.826  44.616  57.744  1.00  0.00     0.117 A 
HETATM   31  N   UNL     1      31.340  43.498  57.197  1.00  0.00    -0.273 NA
HETATM   32  C   UNL     1      30.909  43.181  55.961  1.00  0.00     0.117 A 
HETATM   33  C   UNL     1      29.994  43.934  55.238  1.00  0.00     0.033 A 
ENDBRANCH  22  28
ENDBRANCH   1  20
TORSDOF 6
ENDMDL
MODEL 3
REMARK VINA RESULT:      -8.6      9.077     13.252
REMARK  6 active torsions:
REMARK  status: ('A' for Active; 'I' for Inactive)
REMARK    1  A    between atoms: C_2  and  C_3 
REMARK    2  A    between atoms: C_4  and  N_5 
REMARK       I    between atoms: N_5  and  C_6 
REMARK    3  A    between atoms: C_6  and  C_7 
REMARK    4  A    between atoms: C_10  and  C_11 
REMARK    5  A    between atoms: C_11  and  C_12 
REMARK    6  A    between atoms: C_25  and  C_26 
ROOT
HETATM    1  N   UNL     1      15.491  51.093  48.366  1.00  0.00    -0.307 N 
HETATM    2  C   UNL     1      16.326  51.779  49.301  1.00  0.00     0.257 C 
HETATM    3  O   UNL     1      15.775  52.599  50.014  1.00  0.00    -0.267 OA
HETATM    4  H   UNL     1      14.607  51.545  48.162  1.00  0.00     0.170 HD
ENDROOT
BRANCH   2   5
HETATM    5  C   UNL     1      17.791  51.552  49.327  1.00  0.00     0.032 A 
HETATM    6  C   UNL     1      18.653  52.322  48.537  1.00  0.00     0.017 A 
HETATM    7  C   UNL     1      20.028  52.087  48.564  1.00  0.00     0.008 A 
HETATM    8  C   UNL     1      20.566  51.122  49.422  1.00  0.00    -0.057 A 
HETATM    9  C   UNL     1      19.699  50.383  50.241  1.00  0.00     0.008 A 
HETATM   10  C   UNL     1      18.317  50.595  50.197  1.00  0.00     0.017 A 
BRANCH   8  11
HETATM   11  C   UNL     1      22.063  50.902  49.501  1.00  0.00     0.053 C 
BRANCH  11  12
HETATM   12  C   UNL     1      22.688  50.090  48.354  1.00  0.00     0.091 C 
HETATM   13  C   UNL     1      23.122  48.722  48.818  1.00  0.00     0.229 C 
HETATM   14  O   UNL     1      22.387  47.859  49.270  1.00  0.00    -0.273 OA
HETATM   15  N   UNL     1      24.473  48.638  48.733  1.00  0.00    -0.297 N 
HETATM   16  C   UNL     1      25.047  49.784  48.292  1.00  0.00     0.225 C 
HETATM   17  H   UNL     1      24.999  47.862  49.102  1.00  0.00     0.171 HD
HETATM   18  O   UNL     1      26.241  50.035  48.304  1.00  0.00    -0.273 OA
HETATM   19  C   UNL     1      23.969  50.685  47.768  1.00  0.00     0.117 C 
ENDBRANCH  11  12
ENDBRANCH   8  11
ENDBRANCH   2   5
BRANCH   1  20
HETATM   20  C   UNL     1      15.754  49.858  47.800  1.00  0.00     0.133 A 
HETATM   21  C   UNL     1      16.282  49.657  46.538  1.00  0.00     0.018 A 
HETATM   22  C   UNL     1      16.445  48.223  46.439  1.00  0.00     0.097 A 
HETATM   23  N   UNL     1      15.979  47.632  47.555  1.00  0.00    -0.172 NA
HETATM   24  N   UNL     1      15.560  48.623  48.338  1.00  0.00    -0.261 N 
HETATM   25  H   UNL     1      15.151  48.376  49.233  1.00  0.00     0.191 HD
BRANCH  21  26
HETATM   26  C   UNL     1      16.682  50.738  45.585  1.00  0.00     0.040 C 
HETATM   27  C   UNL     1      18.186  50.793  45.365  1.00  0.00     0.010 C 
ENDBRANCH  21  26
BRANCH  22  28
HETATM   28  C   UNL     1      17.050  47.371  45.394  1.00  0.00    -0.002 A 
HETATM   29  C   UNL     1      16.223  46.799  44.415  1.00  0.00     0.033 A 
HETATM   30  C   UNL     1      16.775  45.977  43.447  1.00  0.00     0.117 A 
HETATM   31  N   UNL     1      18.087  45.679  43.386  1.00  0.00    -0.273 NA
HETATM   32  C   UNL     1      18.875  46.244  44.321  1.00  0.00     0.117 A 
HETATM   33  C   UNL     1      18.414  47.087  45.323  1.00  0.00     0.033 A 
ENDBRANCH  22  28
ENDBRANCH   1  20
TORSDOF 6
ENDMDL
MODEL 4
REMARK VINA RESULT:      -8.4      9.004     11.877
REMARK  6 active torsions:
REMARK  status: ('A' for Active; 'I' for Inactive)
REMARK    1  A    between atoms: C_2  and  C_3 
REMARK    2  A    between atoms: C_4  and  N_5 
REMARK       I    between atoms: N_5  and  C_6 
REMARK    3  A    between atoms: C_6  and  C_7 
REMARK    4  A    between atoms: C_10  and  C_11 
REMARK    5  A    between atoms: C_11  and  C_12 
REMARK    6  A    between atoms: C_25  and  C_26 
ROOT
HETATM    1  N   UNL     1      17.178  51.773  49.936  1.00  0.00    -0.307 N 
HETATM    2  C   UNL     1      16.019  51.469  49.154  1.00  0.00     0.257 C 
HETATM    3  O   UNL     1      14.992  52.042  49.471  1.00  0.00    -0.267 OA
HETATM    4  H   UNL     1      16.991  52.182  50.845  1.00  0.00     0.170 HD
ENDROOT
BRANCH   2   5
HETATM    5  C   UNL     1      16.069  50.450  48.080  1.00  0.00     0.032 A 
HETATM    6  C   UNL     1      15.494  49.186  48.259  1.00  0.00     0.017 A 
HETATM    7  C   UNL     1      15.560  48.233  47.242  1.00  0.00     0.008 A 
HETATM    8  C   UNL     1      16.149  48.548  46.013  1.00  0.00    -0.057 A 
HETATM    9  C   UNL     1      16.688  49.831  45.827  1.00  0.00     0.008 A 
HETATM   10  C   UNL     1      16.649  50.780  46.853  1.00  0.00     0.017 A 
BRANCH   8  11
HETATM   11  C   UNL     1      16.173  47.539  44.882  1.00  0.00     0.053 C 
BRANCH  11  12
HETATM   12  C   UNL     1      17.277  46.471  44.953  1.00  0.00     0.091 C 
HETATM   13  C   UNL     1      16.697  45.080  45.012  1.00  0.00     0.229 C 
HETATM   14  O   UNL     1      16.002  44.563  44.152  1.00  0.00    -0.273 OA
HETATM   15  N   UNL     1      16.999  44.528  46.213  1.00  0.00    -0.297 N 
HETATM   16  C   UNL     1      17.698  45.365  47.018  1.00  0.00     0.225 C 
HETATM   17  H   UNL     1      16.615  43.651  46.527  1.00  0.00     0.171 HD
HETATM   18  O   UNL     1      17.929  45.189  48.203  1.00  0.00    -0.273 OA
HETATM   19  C   UNL     1      18.157  46.537  46.203  1.00  0.00     0.117 C 
ENDBRANCH  11  12
ENDBRANCH   8  11
ENDBRANCH   2   5
BRANCH   1  20
HETATM   20  C   UNL     1      18.491  51.633  49.525  1.00  0.00     0.133 A 
HETATM   21  C   UNL     1      19.344  50.617  49.919  1.00  0.00     0.018 A 
HETATM   22  C   UNL     1      20.558  50.855  49.169  1.00  0.00     0.097 A 
HETATM   23  N   UNL     1      20.430  51.976  48.435  1.00  0.00    -0.172 NA
HETATM   24  N   UNL     1      19.201  52.427  48.677  1.00  0.00    -0.261 N 
HETATM   25  H   UNL     1      18.916  53.287  48.223  1.00  0.00     0.191 HD
BRANCH  21  26
HETATM   26  C   UNL     1      18.983  49.490  50.832  1.00  0.00     0.040 C 
HETATM   27  C   UNL     1      18.441  48.283  50.083  1.00  0.00     0.010 C 
ENDBRANCH  21  26
BRANCH  22  28
HETATM   28  C   UNL     1      21.811  50.081  49.055  1.00  0.00    -0.002 A 
HETATM   29  C   UNL     1      23.028  50.766  48.910  1.00  0.00     0.033 A 
HETATM   30  C   UNL     1      24.206  50.050  48.775  1.00  0.00     0.117 A 
HETATM   31  N   UNL     1      24.260  48.705  48.769  1.00  0.00    -0.273 NA
HETATM   32  C   UNL     1      23.090  48.056  48.922  1.00  0.00     0.117 A 
HETATM   33  C   UNL     1      21.863  48.687  49.074  1.00  0.00     0.033 A 
ENDBRANCH  22  28
ENDBRANCH   1  20
TORSDOF 6
ENDMDL
MODEL 5
REMARK VINA RESULT:      -8.2     11.354     14.348
REMARK  6 active torsions:
REMARK  status: ('A' for Active; 'I' for Inactive)
REMARK    1  A    between atoms: C_2  and  C_3 
REMARK    2  A    between atoms: C_4  and  N_5 
REMARK       I    between atoms: N_5  and  C_6 
REMARK    3  A    between atoms: C_6  and  C_7 
REMARK    4  A    between atoms: C_10  and  C_11 
REMARK    5  A    between atoms: C_11  and  C_12 
REMARK    6  A    between atoms: C_25  and  C_26 
ROOT
HETATM    1  N   UNL     1      27.410  47.982  37.877  1.00  0.00    -0.307 N 
HETATM    2  C   UNL     1      27.459  49.377  38.188  1.00  0.00     0.257 C 
HETATM    3  O   UNL     1      26.764  50.105  37.501  1.00  0.00    -0.267 OA
HETATM    4  H   UNL     1      27.062  47.757  36.952  1.00  0.00     0.170 HD
ENDROOT
BRANCH   2   5
HETATM    5  C   UNL     1      28.372  49.895  39.233  1.00  0.00     0.032 A 
HETATM    6  C   UNL     1      29.680  50.285  38.919  1.00  0.00     0.017 A 
HETATM    7  C   UNL     1      30.530  50.760  39.918  1.00  0.00     0.008 A 
HETATM    8  C   UNL     1      30.071  50.906  41.231  1.00  0.00    -0.057 A 
HETATM    9  C   UNL     1      28.746  50.551  41.530  1.00  0.00     0.008 A 
HETATM   10  C   UNL     1      27.898  50.049  40.538  1.00  0.00     0.017 A 
BRANCH   8  11
HETATM   11  C   UNL     1      30.970  51.476  42.309  1.00  0.00     0.053 C 
BRANCH  11  12
HETATM   12  C   UNL     1      31.917  50.478  42.995  1.00  0.00     0.091 C 
HETATM   13  C   UNL     1      33.344  50.671  42.544  1.00  0.00     0.229 C 
HETATM   14  O   UNL     1      34.007  51.684  42.699  1.00  0.00    -0.273 OA
HETATM   15  N   UNL     1      33.741  49.568  41.862  1.00  0.00    -0.297 N 
HETATM   16  C   UNL     1      32.766  48.633  41.754  1.00  0.00     0.225 C 
HETATM   17  H   UNL     1      34.615  49.517  41.362  1.00  0.00     0.171 HD
HETATM   18  O   UNL     1      32.800  47.646  41.039  1.00  0.00    -0.273 OA
HETATM   19  C   UNL     1      31.644  49.007  42.676  1.00  0.00     0.117 C 
ENDBRANCH  11  12
ENDBRANCH   8  11
ENDBRANCH   2   5
BRANCH   1  20
HETATM   20  C   UNL     1      27.716  46.949  38.744  1.00  0.00     0.133 A 
HETATM   21  C   UNL     1      26.803  46.291  39.550  1.00  0.00     0.018 A 
HETATM   22  C   UNL     1      27.577  45.255  40.199  1.00  0.00     0.097 A 
HETATM   23  N   UNL     1      28.869  45.353  39.834  1.00  0.00    -0.172 NA
HETATM   24  N   UNL     1      28.927  46.375  38.984  1.00  0.00    -0.261 N 
HETATM   25  H   UNL     1      29.834  46.623  38.605  1.00  0.00     0.191 HD
BRANCH  21  26
HETATM   26  C   UNL     1      25.335  46.568  39.600  1.00  0.00     0.040 C 
HETATM   27  C   UNL     1      24.971  47.594  40.662  1.00  0.00     0.010 C 
ENDBRANCH  21  26
BRANCH  22  28
HETATM   28  C   UNL     1      27.184  44.152  41.099  1.00  0.00    -0.002 A 
HETATM   29  C   UNL     1      27.672  42.859  40.851  1.00  0.00     0.033 A 
HETATM   30  C   UNL     1      27.289  41.812  41.673  1.00  0.00     0.117 A 
HETATM   31  N   UNL     1      26.453  41.957  42.719  1.00  0.00    -0.273 NA
HETATM   32  C   UNL     1      26.001  43.203  42.958  1.00  0.00     0.117 A 
HETATM   33  C   UNL     1      26.338  44.314  42.196  1.00  0.00     0.033 A 
ENDBRANCH  22  28
ENDBRANCH   1  20
TORSDOF 6
ENDMDL
MODEL 6
REMARK VINA RESULT:      -8.1     13.552     16.014
REMARK  6 active torsions:
REMARK  status: ('A' for Active; 'I' for Inactive)
REMARK    1  A    between atoms: C_2  and  C_3 
REMARK    2  A    between atoms: C_4  and  N_5 
REMARK       I    between atoms: N_5  and  C_6 
REMARK    3  A    between atoms: C_6  and  C_7 
REMARK    4  A    between atoms: C_10  and  C_11 
REMARK    5  A    between atoms: C_11  and  C_12 
REMARK    6  A    between atoms: C_25  and  C_26 
ROOT
HETATM    1  N   UNL     1      29.181  53.391  40.137  1.00  0.00    -0.307 N 
HETATM    2  C   UNL     1      30.453  53.866  40.587  1.00  0.00     0.257 C 
HETATM    3  O   UNL     1      30.603  55.075  40.596  1.00  0.00    -0.267 OA
HETATM    4  H   UNL     1      28.642  54.053  39.590  1.00  0.00     0.170 HD
ENDROOT
BRANCH   2   5
HETATM    5  C   UNL     1      31.540  52.921  40.937  1.00  0.00     0.032 A 
HETATM    6  C   UNL     1      31.548  52.255  42.169  1.00  0.00     0.017 A 
HETATM    7  C   UNL     1      32.585  51.379  42.486  1.00  0.00     0.008 A 
HETATM    8  C   UNL     1      33.597  51.111  41.558  1.00  0.00    -0.057 A 
HETATM    9  C   UNL     1      33.561  51.752  40.310  1.00  0.00     0.008 A 
HETATM   10  C   UNL     1      32.538  52.653  39.997  1.00  0.00     0.017 A 
BRANCH   8  11
HETATM   11  C   UNL     1      34.696  50.116  41.873  1.00  0.00     0.053 C 
BRANCH  11  12
HETATM   12  C   UNL     1      36.064  50.713  42.239  1.00  0.00     0.091 C 
HETATM   13  C   UNL     1      35.917  52.019  42.980  1.00  0.00     0.229 C 
HETATM   14  O   UNL     1      35.362  52.165  44.058  1.00  0.00    -0.273 OA
HETATM   15  N   UNL     1      36.422  53.018  42.215  1.00  0.00    -0.297 N 
HETATM   16  C   UNL     1      36.884  52.584  41.017  1.00  0.00     0.225 C 
HETATM   17  H   UNL     1      36.324  53.993  42.450  1.00  0.00     0.171 HD
HETATM   18  O   UNL     1      37.211  53.292  40.079  1.00  0.00    -0.273 OA
HETATM   19  C   UNL     1      36.944  51.085  41.045  1.00  0.00     0.117 C 
ENDBRANCH  11  12
ENDBRANCH   8  11
ENDBRANCH   2   5
BRANCH   1  20
HETATM   20  C   UNL     1      28.616  52.169  40.452  1.00  0.00     0.133 A 
HETATM   21  C   UNL     1      28.683  51.034  39.663  1.00  0.00     0.018 A 
HETATM   22  C   UNL     1      28.024  50.012  40.446  1.00  0.00     0.097 A 
HETATM   23  N   UNL     1      27.552  50.544  41.589  1.00  0.00    -0.172 NA
HETATM   24  N   UNL     1      27.902  51.827  41.560  1.00  0.00    -0.261 N 
HETATM   25  H   UNL     1      27.617  52.412  42.338  1.00  0.00     0.191 HD
BRANCH  21  26
HETATM   26  C   UNL     1      29.398  50.931  38.355  1.00  0.00     0.040 C 
HETATM   27  C   UNL     1      30.717  50.183  38.468  1.00  0.00     0.010 C 
ENDBRANCH  21  26
BRANCH  22  28
HETATM   28  C   UNL     1      27.846  48.562  40.222  1.00  0.00    -0.002 A 
HETATM   29  C   UNL     1      26.602  48.085  39.782  1.00  0.00     0.033 A 
HETATM   30  C   UNL     1      26.416  46.725  39.594  1.00  0.00     0.117 A 
HETATM   31  N   UNL     1      27.376  45.808  39.817  1.00  0.00    -0.273 NA
HETATM   32  C   UNL     1      28.572  46.275  40.225  1.00  0.00     0.117 A 
HETATM   33  C   UNL     1      28.853  47.619  40.431  1.00  0.00     0.033 A 
ENDBRANCH  22  28
ENDBRANCH   1  20
TORSDOF 6
ENDMDL
MODEL 7
REMARK VINA RESULT:      -8.1      3.747      6.616
REMARK  6 active torsions:
REMARK  status: ('A' for Active; 'I' for Inactive)
REMARK    1  A    between atoms: C_2  and  C_3 
REMARK    2  A    between atoms: C_4  and  N_5 
REMARK       I    between atoms: N_5  and  C_6 
REMARK    3  A    between atoms: C_6  and  C_7 
REMARK    4  A    between atoms: C_10  and  C_11 
REMARK    5  A    between atoms: C_11  and  C_12 
REMARK    6  A    between atoms: C_25  and  C_26 
ROOT
HETATM    1  N   UNL     1      29.138  39.839  51.770  1.00  0.00    -0.307 N 
HETATM    2  C   UNL     1      29.266  38.833  50.762  1.00  0.00     0.257 C 
HETATM    3  O   UNL     1      29.839  37.810  51.093  1.00  0.00    -0.267 OA
HETATM    4  H   UNL     1      29.778  39.752  52.551  1.00  0.00     0.170 HD
ENDROOT
BRANCH   2   5
HETATM    5  C   UNL     1      28.798  39.076  49.377  1.00  0.00     0.032 A 
HETATM    6  C   UNL     1      28.885  40.349  48.800  1.00  0.00     0.017 A 
HETATM    7  C   UNL     1      28.429  40.564  47.499  1.00  0.00     0.008 A 
HETATM    8  C   UNL     1      27.934  39.500  46.737  1.00  0.00    -0.057 A 
HETATM    9  C   UNL     1      27.887  38.219  47.308  1.00  0.00     0.008 A 
HETATM   10  C   UNL     1      28.318  38.005  48.622  1.00  0.00     0.017 A 
BRANCH   8  11
HETATM   11  C   UNL     1      27.491  39.713  45.303  1.00  0.00     0.053 C 
BRANCH  11  12
HETATM   12  C   UNL     1      27.841  41.075  44.683  1.00  0.00     0.091 C 
HETATM   13  C   UNL     1      26.805  41.506  43.675  1.00  0.00     0.229 C 
HETATM   14  O   UNL     1      25.626  41.714  43.912  1.00  0.00    -0.273 OA
HETATM   15  N   UNL     1      27.376  41.539  42.445  1.00  0.00    -0.297 N 
HETATM   16  C   UNL     1      28.678  41.162  42.456  1.00  0.00     0.225 C 
HETATM   17  H   UNL     1      26.849  41.682  41.598  1.00  0.00     0.171 HD
HETATM   18  O   UNL     1      29.361  40.926  41.474  1.00  0.00    -0.273 OA
HETATM   19  C   UNL     1      29.143  41.102  43.881  1.00  0.00     0.117 C 
ENDBRANCH  11  12
ENDBRANCH   8  11
ENDBRANCH   2   5
BRANCH   1  20
HETATM   20  C   UNL     1      28.182  40.838  51.799  1.00  0.00     0.133 A 
HETATM   21  C   UNL     1      28.406  42.142  52.205  1.00  0.00     0.018 A 
HETATM   22  C   UNL     1      27.143  42.811  51.981  1.00  0.00     0.097 A 
HETATM   23  N   UNL     1      26.231  41.928  51.532  1.00  0.00    -0.172 NA
HETATM   24  N   UNL     1      26.868  40.763  51.450  1.00  0.00    -0.261 N 
HETATM   25  H   UNL     1      26.337  39.955  51.143  1.00  0.00     0.191 HD
BRANCH  21  26
HETATM   26  C   UNL     1      29.720  42.695  52.653  1.00  0.00     0.040 C 
HETATM   27  C   UNL     1      29.784  42.898  54.159  1.00  0.00     0.010 C 
ENDBRANCH  21  26
BRANCH  22  28
HETATM   28  C   UNL     1      26.742  44.227  52.112  1.00  0.00    -0.002 A 
HETATM   29  C   UNL     1      26.412  44.954  50.958  1.00  0.00     0.033 A 
HETATM   30  C   UNL     1      26.061  46.290  51.067  1.00  0.00     0.117 A 
HETATM   31  N   UNL     1      26.020  46.954  52.237  1.00  0.00    -0.273 NA
HETATM   32  C   UNL     1      26.325  46.244  53.341  1.00  0.00     0.117 A 
HETATM   33  C   UNL     1      26.679  44.902  53.331  1.00  0.00     0.033 A 
ENDBRANCH  22  28
ENDBRANCH   1  20
TORSDOF 6
ENDMDL
MODEL 8
REMARK VINA RESULT:      -8.1     15.464     17.604
REMARK  6 active torsions:
REMARK  status: ('A' for Active; 'I' for Inactive)
REMARK    1  A    between atoms: C_2  and  C_3 
REMARK    2  A    between atoms: C_4  and  N_5 
REMARK       I    between atoms: N_5  and  C_6 
REMARK    3  A    between atoms: C_6  and  C_7 
REMARK    4  A    between atoms: C_10  and  C_11 
REMARK    5  A    between atoms: C_11  and  C_12 
REMARK    6  A    between atoms: C_25  and  C_26 
ROOT
HETATM    1  N   UNL     1      37.166  51.576  41.067  1.00  0.00    -0.307 N 
HETATM    2  C   UNL     1      36.553  50.823  42.117  1.00  0.00     0.257 C 
HETATM    3  O   UNL     1      37.308  50.326  42.933  1.00  0.00    -0.267 OA
HETATM    4  H   UNL     1      38.149  51.383  40.914  1.00  0.00     0.170 HD
ENDROOT
BRANCH   2   5
HETATM    5  C   UNL     1      35.088  50.602  42.143  1.00  0.00     0.032 A 
HETATM    6  C   UNL     1      34.249  51.419  42.913  1.00  0.00     0.017 A 
HETATM    7  C   UNL     1      32.874  51.189  42.936  1.00  0.00     0.008 A 
HETATM    8  C   UNL     1      32.309  50.181  42.148  1.00  0.00    -0.057 A 
HETATM    9  C   UNL     1      33.152  49.393  41.348  1.00  0.00     0.008 A 
HETATM   10  C   UNL     1      34.535  49.600  41.343  1.00  0.00     0.017 A 
BRANCH   8  11
HETATM   11  C   UNL     1      30.810  49.963  42.122  1.00  0.00     0.053 C 
BRANCH  11  12
HETATM   12  C   UNL     1      29.980  51.059  41.434  1.00  0.00     0.091 C 
HETATM   13  C   UNL     1      28.577  50.588  41.140  1.00  0.00     0.229 C 
HETATM   14  O   UNL     1      27.757  50.236  41.973  1.00  0.00    -0.273 OA
HETATM   15  N   UNL     1      28.405  50.534  39.796  1.00  0.00    -0.297 N 
HETATM   16  C   UNL     1      29.518  50.885  39.106  1.00  0.00     0.225 C 
HETATM   17  H   UNL     1      27.589  50.132  39.363  1.00  0.00     0.171 HD
HETATM   18  O   UNL     1      29.688  50.743  37.907  1.00  0.00    -0.273 OA
HETATM   19  C   UNL     1      30.498  51.495  40.063  1.00  0.00     0.117 C 
ENDBRANCH  11  12
ENDBRANCH   8  11
ENDBRANCH   2   5
BRANCH   1  20
HETATM   20  C   UNL     1      36.558  52.573  40.325  1.00  0.00     0.133 A 
HETATM   21  C   UNL     1      36.783  53.929  40.481  1.00  0.00     0.018 A 
HETATM   22  C   UNL     1      35.992  54.547  39.438  1.00  0.00     0.097 A 
HETATM   23  N   UNL     1      35.307  53.605  38.764  1.00  0.00    -0.172 NA
HETATM   24  N   UNL     1      35.647  52.445  39.321  1.00  0.00    -0.261 N 
HETATM   25  H   UNL     1      35.215  51.602  38.959  1.00  0.00     0.191 HD
BRANCH  21  26
HETATM   26  C   UNL     1      37.736  54.542  41.455  1.00  0.00     0.040 C 
HETATM   27  C   UNL     1      39.150  54.640  40.905  1.00  0.00     0.010 C 
ENDBRANCH  21  26
BRANCH  22  28
HETATM   28  C   UNL     1      35.870  55.952  38.998  1.00  0.00    -0.002 A 
HETATM   29  C   UNL     1      34.743  56.694  39.382  1.00  0.00     0.033 A 
HETATM   30  C   UNL     1      34.605  58.004  38.952  1.00  0.00     0.117 A 
HETATM   31  N   UNL     1      35.504  58.625  38.166  1.00  0.00    -0.273 NA
HETATM   32  C   UNL     1      36.590  57.910  37.813  1.00  0.00     0.117 A 
HETATM   33  C   UNL     1      36.818  56.597  38.203  1.00  0.00     0.033 A 
ENDBRANCH  22  28
ENDBRANCH   1  20
TORSDOF 6
ENDMDL
MODEL 9
REMARK VINA RESULT:      -8.1      0.971      1.995
REMARK  6 active torsions:
REMARK  status: ('A' for Active; 'I' for Inactive)
REMARK    1  A    between atoms: C_2  and  C_3 
REMARK    2  A    between atoms: C_4  and  N_5 
REMARK       I    between atoms: N_5  and  C_6 
REMARK    3  A    between atoms: C_6  and  C_7 
REMARK    4  A    between atoms: C_10  and  C_11 
REMARK    5  A    between atoms: C_11  and  C_12 
REMARK    6  A    between atoms: C_25  and  C_26 
ROOT
HETATM    1  N   UNL     1      26.065  46.414  53.463  1.00  0.00    -0.307 N 
HETATM    2  C   UNL     1      25.459  46.312  52.172  1.00  0.00     0.257 C 
HETATM    3  O   UNL     1      24.800  47.271  51.810  1.00  0.00    -0.267 OA
HETATM    4  H   UNL     1      25.660  47.112  54.077  1.00  0.00     0.170 HD
ENDROOT
BRANCH   2   5
HETATM    5  C   UNL     1      25.568  45.069  51.373  1.00  0.00     0.032 A 
HETATM    6  C   UNL     1      24.930  43.891  51.781  1.00  0.00     0.017 A 
HETATM    7  C   UNL     1      25.053  42.726  51.024  1.00  0.00     0.008 A 
HETATM    8  C   UNL     1      25.765  42.735  49.820  1.00  0.00    -0.057 A 
HETATM    9  C   UNL     1      26.368  43.929  49.396  1.00  0.00     0.008 A 
HETATM   10  C   UNL     1      26.271  45.093  50.166  1.00  0.00     0.017 A 
BRANCH   8  11
HETATM   11  C   UNL     1      25.855  41.489  48.961  1.00  0.00     0.053 C 
BRANCH  11  12
HETATM   12  C   UNL     1      27.214  40.771  48.953  1.00  0.00     0.091 C 
HETATM   13  C   UNL     1      27.082  39.332  49.386  1.00  0.00     0.229 C 
HETATM   14  O   UNL     1      26.423  38.477  48.817  1.00  0.00    -0.273 OA
HETATM   15  N   UNL     1      27.742  39.164  50.558  1.00  0.00    -0.297 N 
HETATM   16  C   UNL     1      28.303  40.309  51.019  1.00  0.00     0.225 C 
HETATM   17  H   UNL     1      27.692  38.316  51.100  1.00  0.00     0.171 HD
HETATM   18  O   UNL     1      28.784  40.473  52.127  1.00  0.00    -0.273 OA
HETATM   19  C   UNL     1      28.247  41.338  49.928  1.00  0.00     0.117 C 
ENDBRANCH  11  12
ENDBRANCH   8  11
ENDBRANCH   2   5
BRANCH   1  20
HETATM   20  C   UNL     1      27.178  45.713  53.892  1.00  0.00     0.133 A 
HETATM   21  C   UNL     1      27.919  46.011  55.021  1.00  0.00     0.018 A 
HETATM   22  C   UNL     1      28.912  44.962  55.088  1.00  0.00     0.097 A 
HETATM   23  N   UNL     1      28.786  44.145  54.025  1.00  0.00    -0.172 NA
HETATM   24  N   UNL     1      27.762  44.623  53.323  1.00  0.00    -0.261 N 
HETATM   25  H   UNL     1      27.517  44.147  52.461  1.00  0.00     0.191 HD
BRANCH  21  26
HETATM   26  C   UNL     1      27.627  47.121  55.979  1.00  0.00     0.040 C 
HETATM   27  C   UNL     1      27.096  48.366  55.286  1.00  0.00     0.010 C 
ENDBRANCH  21  26
BRANCH  22  28
HETATM   28  C   UNL     1      29.939  44.641  56.101  1.00  0.00    -0.002 A 
HETATM   29  C   UNL     1      30.014  45.417  57.268  1.00  0.00     0.033 A 
HETATM   30  C   UNL     1      30.990  45.142  58.212  1.00  0.00     0.117 A 
HETATM   31  N   UNL     1      31.898  44.157  58.075  1.00  0.00    -0.273 NA
HETATM   32  C   UNL     1      31.810  43.409  56.959  1.00  0.00     0.117 A 
HETATM   33  C   UNL     1      30.861  43.603  55.964  1.00  0.00     0.033 A 
ENDBRANCH  22  28
ENDBRANCH   1  20
TORSDOF 6
ENDMDL
MODEL 10
REMARK VINA RESULT:      -8.1     12.715     14.256
REMARK  6 active torsions:
REMARK  status: ('A' for Active; 'I' for Inactive)
REMARK    1  A    between atoms: C_2  and  C_3 
REMARK    2  A    between atoms: C_4  and  N_5 
REMARK       I    between atoms: N_5  and  C_6 
REMARK    3  A    between atoms: C_6  and  C_7 
REMARK    4  A    between atoms: C_10  and  C_11 
REMARK    5  A    between atoms: C_11  and  C_12 
REMARK    6  A    between atoms: C_25  and  C_26 
ROOT
HETATM    1  N   UNL     1      29.796  52.663  41.935  1.00  0.00    -0.307 N 
HETATM    2  C   UNL     1      28.727  51.839  41.462  1.00  0.00     0.257 C 
HETATM    3  O   UNL     1      27.603  52.292  41.588  1.00  0.00    -0.267 OA
HETATM    4  H   UNL     1      29.526  53.386  42.592  1.00  0.00     0.170 HD
ENDROOT
BRANCH   2   5
HETATM    5  C   UNL     1      28.987  50.481  40.931  1.00  0.00     0.032 A 
HETATM    6  C   UNL     1      29.242  50.275  39.569  1.00  0.00     0.017 A 
HETATM    7  C   UNL     1      29.473  48.988  39.084  1.00  0.00     0.008 A 
HETATM    8  C   UNL     1      29.510  47.897  39.958  1.00  0.00    -0.057 A 
HETATM    9  C   UNL     1      29.294  48.115  41.327  1.00  0.00     0.008 A 
HETATM   10  C   UNL     1      29.034  49.400  41.815  1.00  0.00     0.017 A 
BRANCH   8  11
HETATM   11  C   UNL     1      29.819  46.503  39.447  1.00  0.00     0.053 C 
BRANCH  11  12
HETATM   12  C   UNL     1      28.684  45.473  39.568  1.00  0.00     0.091 C 
HETATM   13  C   UNL     1      28.920  44.283  38.672  1.00  0.00     0.229 C 
HETATM   14  O   UNL     1      29.868  43.517  38.745  1.00  0.00    -0.273 OA
HETATM   15  N   UNL     1      27.957  44.253  37.718  1.00  0.00    -0.297 N 
HETATM   16  C   UNL     1      27.086  45.287  37.814  1.00  0.00     0.225 C 
HETATM   17  H   UNL     1      27.978  43.618  36.936  1.00  0.00     0.171 HD
HETATM   18  O   UNL     1      26.251  45.597  36.980  1.00  0.00    -0.273 OA
HETATM   19  C   UNL     1      27.308  45.976  39.128  1.00  0.00     0.117 C 
ENDBRANCH  11  12
ENDBRANCH   8  11
ENDBRANCH   2   5
BRANCH   1  20
HETATM   20  C   UNL     1      31.112  52.601  41.514  1.00  0.00     0.133 A 
HETATM   21  C   UNL     1      32.125  51.922  42.168  1.00  0.00     0.018 A 
HETATM   22  C   UNL     1      33.279  52.083  41.310  1.00  0.00     0.097 A 
HETATM   23  N   UNL     1      32.961  52.861  40.257  1.00  0.00    -0.172 NA
HETATM   24  N   UNL     1      31.675  53.168  40.412  1.00  0.00    -0.261 N 
HETATM   25  H   UNL     1      31.248  53.772  39.719  1.00  0.00     0.191 HD
BRANCH  21  26
HETATM   26  C   UNL     1      31.964  51.122  43.420  1.00  0.00     0.040 C 
HETATM   27  C   UNL     1      32.372  51.896  44.664  1.00  0.00     0.010 C 
ENDBRANCH  21  26
BRANCH  22  28
HETATM   28  C   UNL     1      34.644  51.522  41.380  1.00  0.00    -0.002 A 
HETATM   29  C   UNL     1      35.353  51.596  42.589  1.00  0.00     0.033 A 
HETATM   30  C   UNL     1      36.643  51.097  42.658  1.00  0.00     0.117 A 
HETATM   31  N   UNL     1      37.279  50.537  41.612  1.00  0.00    -0.273 NA
HETATM   32  C   UNL     1      36.587  50.457  40.460  1.00  0.00     0.117 A 
HETATM   33  C   UNL     1      35.288  50.921  40.298  1.00  0.00     0.033 A 
ENDBRANCH  22  28
ENDBRANCH   1  20
TORSDOF 6
ENDMDL
