MODEL 1
REMARK VINA RESULT:      -8.4      0.000      0.000
REMARK  9 active torsions:
REMARK  status: ('A' for Active; 'I' for Inactive)
REMARK    1  A    between atoms: C_4  and  S_5 
REMARK    2  A    between atoms: S_5  and  C_6 
REMARK    3  A    between atoms: C_6  and  C_7 
REMARK       I    between atoms: C_7  and  N_8 
REMARK    4  A    between atoms: C_13  and  C_14 
REMARK    5  A    between atoms: C_14  and  C_15 
REMARK    6  A    between atoms: C_15  and  C_16 
REMARK       I    between atoms: C_16  and  N_17 
REMARK    7  A    between atoms: N_17  and  C_18 
REMARK    8  A    between atoms: C_19  and  O_20 
REMARK    9  A    between atoms: C_24  and  C_25 
ROOT
HETATM    1  C   UNL     1      27.035  47.497  53.979  1.00  0.00     0.108 C 
ENDROOT
BRANCH   1   2
HETATM    2  C   UNL     1      25.626  47.234  53.428  1.00  0.00     0.052 C 
BRANCH   2   3
HETATM    3  C   UNL     1      25.409  46.007  52.571  1.00  0.00    -0.009 A 
HETATM    4  C   UNL     1      25.415  46.077  51.174  1.00  0.00     0.042 A 
HETATM    5  C   UNL     1      25.635  47.361  50.425  1.00  0.00     0.071 C 
HETATM    6  N   UNL     1      25.191  45.005  50.383  1.00  0.00    -0.228 NA
HETATM    7  C   UNL     1      24.975  43.832  50.985  1.00  0.00     0.189 A 
HETATM    8  N   UNL     1      24.924  43.658  52.309  1.00  0.00    -0.228 NA
HETATM    9  C   UNL     1      25.132  44.742  53.091  1.00  0.00     0.042 A 
HETATM   10  C   UNL     1      25.053  44.463  54.563  1.00  0.00     0.071 C 
BRANCH   7  11
HETATM   11  S   UNL     1      24.661  42.411  49.972  1.00  0.00    -0.081 SA
BRANCH  11  12
HETATM   12  C   UNL     1      26.370  42.043  49.462  1.00  0.00     0.185 C 
BRANCH  12  13
HETATM   13  C   UNL     1      26.887  40.827  50.203  1.00  0.00     0.225 C 
HETATM   14  N   UNL     1      25.948  40.090  50.871  1.00  0.00    -0.370 N 
HETATM   15  H   UNL     1      25.077  40.524  51.150  1.00  0.00     0.159 HD
HETATM   16  H   UNL     1      26.296  39.328  51.437  1.00  0.00     0.159 HD
HETATM   17  O   UNL     1      28.056  40.455  50.164  1.00  0.00    -0.273 OA
ENDBRANCH  12  13
ENDBRANCH  11  12
ENDBRANCH   7  11
ENDBRANCH   2   3
ENDBRANCH   1   2
BRANCH   1  18
HETATM   18  C   UNL     1      27.123  47.519  55.493  1.00  0.00     0.222 C 
HETATM   19  N   UNL     1      28.098  46.798  56.118  1.00  0.00    -0.325 N 
HETATM   20  H   UNL     1      28.290  47.127  57.061  1.00  0.00     0.169 HD
HETATM   21  O   UNL     1      26.378  48.223  56.176  1.00  0.00    -0.273 OA
BRANCH  19  22
HETATM   22  C   UNL     1      28.894  45.705  55.717  1.00  0.00     0.069 A 
HETATM   23  C   UNL     1      30.017  45.406  56.511  1.00  0.00     0.095 A 
HETATM   24  C   UNL     1      30.807  44.302  56.194  1.00  0.00     0.039 A 
HETATM   25  C   UNL     1      30.471  43.484  55.111  1.00  0.00     0.011 A 
HETATM   26  C   UNL     1      29.335  43.734  54.321  1.00  0.00    -0.048 A 
HETATM   27  C   UNL     1      28.560  44.864  54.648  1.00  0.00     0.040 A 
BRANCH  23  28
HETATM   28  O   UNL     1      30.244  46.256  57.567  1.00  0.00    -0.354 OA
HETATM   29  C   UNL     1      30.675  45.667  58.788  1.00  0.00     0.210 C 
ENDBRANCH  23  28
BRANCH  26  30
HETATM   30  C   UNL     1      28.956  42.766  53.185  1.00  0.00    -0.024 C 
HETATM   31  C   UNL     1      30.190  41.925  52.793  1.00  0.00     0.019 C 
HETATM   32  C   UNL     1      27.828  41.774  53.554  1.00  0.00     0.019 C 
HETATM   33  C   UNL     1      28.474  43.563  51.955  1.00  0.00     0.019 C 
ENDBRANCH  26  30
ENDBRANCH  19  22
ENDBRANCH   1  18
TORSDOF 9
ENDMDL
MODEL 2
REMARK VINA RESULT:      -8.0      3.728      6.428
REMARK  9 active torsions:
REMARK  status: ('A' for Active; 'I' for Inactive)
REMARK    1  A    between atoms: C_4  and  S_5 
REMARK    2  A    between atoms: S_5  and  C_6 
REMARK    3  A    between atoms: C_6  and  C_7 
REMARK       I    between atoms: C_7  and  N_8 
REMARK    4  A    between atoms: C_13  and  C_14 
REMARK    5  A    between atoms: C_14  and  C_15 
REMARK    6  A    between atoms: C_15  and  C_16 
REMARK       I    between atoms: C_16  and  N_17 
REMARK    7  A    between atoms: N_17  and  C_18 
REMARK    8  A    between atoms: C_19  and  O_20 
REMARK    9  A    between atoms: C_24  and  C_25 
ROOT
HETATM    1  C   UNL     1      26.084  44.818  51.101  1.00  0.00     0.108 C 
ENDROOT
BRANCH   1   2
HETATM    2  C   UNL     1      25.531  45.153  49.707  1.00  0.00     0.052 C 
BRANCH   2   3
HETATM    3  C   UNL     1      24.637  46.365  49.564  1.00  0.00    -0.009 A 
HETATM    4  C   UNL     1      23.297  46.247  49.181  1.00  0.00     0.042 A 
HETATM    5  C   UNL     1      22.649  44.924  48.885  1.00  0.00     0.071 C 
HETATM    6  N   UNL     1      22.484  47.312  49.012  1.00  0.00    -0.228 NA
HETATM    7  C   UNL     1      23.000  48.522  49.246  1.00  0.00     0.189 A 
HETATM    8  N   UNL     1      24.271  48.749  49.593  1.00  0.00    -0.228 NA
HETATM    9  C   UNL     1      25.080  47.676  49.741  1.00  0.00     0.042 A 
HETATM   10  C   UNL     1      26.490  48.017  50.126  1.00  0.00     0.071 C 
BRANCH   7  11
HETATM   11  S   UNL     1      21.960  49.940  49.016  1.00  0.00    -0.081 SA
BRANCH  11  12
HETATM   12  C   UNL     1      20.347  49.168  49.356  1.00  0.00     0.185 C 
BRANCH  12  13
HETATM   13  C   UNL     1      19.523  50.057  50.265  1.00  0.00     0.225 C 
HETATM   14  N   UNL     1      19.579  51.398  50.002  1.00  0.00    -0.370 N 
HETATM   15  H   UNL     1      20.376  51.776  49.505  1.00  0.00     0.159 HD
HETATM   16  H   UNL     1      19.101  52.003  50.656  1.00  0.00     0.159 HD
HETATM   17  O   UNL     1      18.780  49.627  51.143  1.00  0.00    -0.273 OA
ENDBRANCH  12  13
ENDBRANCH  11  12
ENDBRANCH   7  11
ENDBRANCH   2   3
ENDBRANCH   1   2
BRANCH   1  18
HETATM   18  C   UNL     1      25.374  43.672  51.797  1.00  0.00     0.222 C 
HETATM   19  N   UNL     1      25.824  43.245  53.012  1.00  0.00    -0.325 N 
HETATM   20  H   UNL     1      25.118  42.733  53.537  1.00  0.00     0.169 HD
HETATM   21  O   UNL     1      24.359  43.156  51.327  1.00  0.00    -0.273 OA
BRANCH  19  22
HETATM   22  C   UNL     1      27.055  43.379  53.684  1.00  0.00     0.069 A 
HETATM   23  C   UNL     1      28.004  42.358  53.494  1.00  0.00     0.095 A 
HETATM   24  C   UNL     1      29.260  42.468  54.089  1.00  0.00     0.039 A 
HETATM   25  C   UNL     1      29.583  43.598  54.847  1.00  0.00     0.011 A 
HETATM   26  C   UNL     1      28.671  44.653  55.024  1.00  0.00    -0.048 A 
HETATM   27  C   UNL     1      27.402  44.514  54.430  1.00  0.00     0.040 A 
BRANCH  23  28
HETATM   28  O   UNL     1      27.597  41.304  52.710  1.00  0.00    -0.354 OA
HETATM   29  C   UNL     1      28.305  41.093  51.495  1.00  0.00     0.210 C 
ENDBRANCH  23  28
BRANCH  26  30
HETATM   30  C   UNL     1      29.091  45.914  55.802  1.00  0.00    -0.024 C 
HETATM   31  C   UNL     1      28.678  47.170  55.004  1.00  0.00     0.019 C 
HETATM   32  C   UNL     1      28.448  46.033  57.203  1.00  0.00     0.019 C 
HETATM   33  C   UNL     1      30.621  45.922  56.003  1.00  0.00     0.019 C 
ENDBRANCH  26  30
ENDBRANCH  19  22
ENDBRANCH   1  18
TORSDOF 9
ENDMDL
MODEL 3
REMARK VINA RESULT:      -7.9      3.617      6.199
REMARK  9 active torsions:
REMARK  status: ('A' for Active; 'I' for Inactive)
REMARK    1  A    between atoms: C_4  and  S_5 
REMARK    2  A    between atoms: S_5  and  C_6 
REMARK    3  A    between atoms: C_6  and  C_7 
REMARK       I    between atoms: C_7  and  N_8 
REMARK    4  A    between atoms: C_13  and  C_14 
REMARK    5  A    between atoms: C_14  and  C_15 
REMARK    6  A    between atoms: C_15  and  C_16 
REMARK       I    between atoms: C_16  and  N_17 
REMARK    7  A    between atoms: N_17  and  C_18 
REMARK    8  A    between atoms: C_19  and  O_20 
REMARK    9  A    between atoms: C_24  and  C_25 
ROOT
HETATM    1  C   UNL     1      26.128  44.759  50.968  1.00  0.00     0.108 C 
ENDROOT
BRANCH   1   2
HETATM    2  C   UNL     1      25.557  45.084  49.580  1.00  0.00     0.052 C 
BRANCH   2   3
HETATM    3  C   UNL     1      24.630  46.272  49.447  1.00  0.00    -0.009 A 
HETATM    4  C   UNL     1      25.055  47.571  49.743  1.00  0.00     0.042 A 
HETATM    5  C   UNL     1      26.448  47.885  50.211  1.00  0.00     0.071 C 
HETATM    6  N   UNL     1      24.242  48.647  49.666  1.00  0.00    -0.228 NA
HETATM    7  C   UNL     1      22.984  48.437  49.268  1.00  0.00     0.189 A 
HETATM    8  N   UNL     1      22.469  47.237  48.983  1.00  0.00    -0.228 NA
HETATM    9  C   UNL     1      23.288  46.166  49.082  1.00  0.00     0.042 A 
HETATM   10  C   UNL     1      22.632  44.857  48.751  1.00  0.00     0.071 C 
BRANCH   7  11
HETATM   11  S   UNL     1      21.887  49.828  49.173  1.00  0.00    -0.081 SA
BRANCH  11  12
HETATM   12  C   UNL     1      20.323  48.938  48.897  1.00  0.00     0.185 C 
BRANCH  12  13
HETATM   13  C   UNL     1      19.406  49.111  50.090  1.00  0.00     0.225 C 
HETATM   14  N   UNL     1      19.045  47.963  50.739  1.00  0.00    -0.370 N 
HETATM   15  H   UNL     1      19.078  47.079  50.246  1.00  0.00     0.159 HD
HETATM   16  H   UNL     1      18.366  48.062  51.482  1.00  0.00     0.159 HD
HETATM   17  O   UNL     1      19.053  50.205  50.521  1.00  0.00    -0.273 OA
ENDBRANCH  12  13
ENDBRANCH  11  12
ENDBRANCH   7  11
ENDBRANCH   2   3
ENDBRANCH   1   2
BRANCH   1  18
HETATM   18  C   UNL     1      25.357  43.698  51.730  1.00  0.00     0.222 C 
HETATM   19  N   UNL     1      25.782  43.323  52.971  1.00  0.00    -0.325 N 
HETATM   20  H   UNL     1      25.049  42.883  53.523  1.00  0.00     0.169 HD
HETATM   21  O   UNL     1      24.317  43.208  51.287  1.00  0.00    -0.273 OA
BRANCH  19  22
HETATM   22  C   UNL     1      27.017  43.434  53.641  1.00  0.00     0.069 A 
HETATM   23  C   UNL     1      27.951  42.402  53.436  1.00  0.00     0.095 A 
HETATM   24  C   UNL     1      29.211  42.489  54.028  1.00  0.00     0.039 A 
HETATM   25  C   UNL     1      29.552  43.606  54.796  1.00  0.00     0.011 A 
HETATM   26  C   UNL     1      28.655  44.671  54.988  1.00  0.00    -0.048 A 
HETATM   27  C   UNL     1      27.382  44.556  54.396  1.00  0.00     0.040 A 
BRANCH  23  28
HETATM   28  O   UNL     1      27.527  41.362  52.644  1.00  0.00    -0.354 OA
HETATM   29  C   UNL     1      28.283  41.097  51.468  1.00  0.00     0.210 C 
ENDBRANCH  23  28
BRANCH  26  30
HETATM   30  C   UNL     1      29.095  45.919  55.777  1.00  0.00    -0.024 C 
HETATM   31  C   UNL     1      28.354  45.958  57.131  1.00  0.00     0.019 C 
HETATM   32  C   UNL     1      30.610  45.966  56.085  1.00  0.00     0.019 C 
HETATM   33  C   UNL     1      28.755  47.193  54.976  1.00  0.00     0.019 C 
ENDBRANCH  26  30
ENDBRANCH  19  22
ENDBRANCH   1  18
TORSDOF 9
ENDMDL
MODEL 4
REMARK VINA RESULT:      -7.7      3.916      8.534
REMARK  9 active torsions:
REMARK  status: ('A' for Active; 'I' for Inactive)
REMARK    1  A    between atoms: C_4  and  S_5 
REMARK    2  A    between atoms: S_5  and  C_6 
REMARK    3  A    between atoms: C_6  and  C_7 
REMARK       I    between atoms: C_7  and  N_8 
REMARK    4  A    between atoms: C_13  and  C_14 
REMARK    5  A    between atoms: C_14  and  C_15 
REMARK    6  A    between atoms: C_15  and  C_16 
REMARK       I    between atoms: C_16  and  N_17 
REMARK    7  A    between atoms: N_17  and  C_18 
REMARK    8  A    between atoms: C_19  and  O_20 
REMARK    9  A    between atoms: C_24  and  C_25 
ROOT
HETATM    1  C   UNL     1      25.401  46.633  51.520  1.00  0.00     0.108 C 
ENDROOT
BRANCH   1   2
HETATM    2  C   UNL     1      25.319  45.771  52.788  1.00  0.00     0.052 C 
BRANCH   2   3
HETATM    3  C   UNL     1      26.609  45.271  53.399  1.00  0.00    -0.009 A 
HETATM    4  C   UNL     1      27.132  44.013  53.083  1.00  0.00     0.042 A 
HETATM    5  C   UNL     1      26.461  43.071  52.122  1.00  0.00     0.071 C 
HETATM    6  N   UNL     1      28.263  43.526  53.637  1.00  0.00    -0.228 NA
HETATM    7  C   UNL     1      28.904  44.307  54.511  1.00  0.00     0.189 A 
HETATM    8  N   UNL     1      28.481  45.513  54.901  1.00  0.00    -0.228 NA
HETATM    9  C   UNL     1      27.338  45.983  54.352  1.00  0.00     0.042 A 
HETATM   10  C   UNL     1      26.930  47.339  54.847  1.00  0.00     0.071 C 
BRANCH   7  11
HETATM   11  S   UNL     1      30.384  43.687  55.267  1.00  0.00    -0.081 SA
BRANCH  11  12
HETATM   12  C   UNL     1      30.663  45.019  56.477  1.00  0.00     0.185 C 
BRANCH  12  13
HETATM   13  C   UNL     1      31.366  44.473  57.703  1.00  0.00     0.225 C 
HETATM   14  N   UNL     1      31.182  45.176  58.862  1.00  0.00    -0.370 N 
HETATM   15  H   UNL     1      30.922  46.154  58.817  1.00  0.00     0.159 HD
HETATM   16  H   UNL     1      31.715  44.867  59.663  1.00  0.00     0.159 HD
HETATM   17  O   UNL     1      32.004  43.425  57.708  1.00  0.00    -0.273 OA
ENDBRANCH  12  13
ENDBRANCH  11  12
ENDBRANCH   7  11
ENDBRANCH   2   3
ENDBRANCH   1   2
BRANCH   1  18
HETATM   18  C   UNL     1      24.884  45.954  50.266  1.00  0.00     0.222 C 
HETATM   19  N   UNL     1      24.439  46.717  49.226  1.00  0.00    -0.325 N 
HETATM   20  H   UNL     1      24.435  46.215  48.341  1.00  0.00     0.169 HD
HETATM   21  O   UNL     1      24.914  44.730  50.132  1.00  0.00    -0.273 OA
BRANCH  19  22
HETATM   22  C   UNL     1      23.999  48.053  49.131  1.00  0.00     0.069 A 
HETATM   23  C   UNL     1      24.963  49.023  48.800  1.00  0.00     0.095 A 
HETATM   24  C   UNL     1      24.572  50.351  48.637  1.00  0.00     0.039 A 
HETATM   25  C   UNL     1      23.229  50.712  48.775  1.00  0.00     0.011 A 
HETATM   26  C   UNL     1      22.236  49.761  49.068  1.00  0.00    -0.048 A 
HETATM   27  C   UNL     1      22.653  48.428  49.246  1.00  0.00     0.040 A 
BRANCH  23  28
HETATM   28  O   UNL     1      26.250  48.561  48.661  1.00  0.00    -0.354 OA
HETATM   29  C   UNL     1      27.298  49.502  48.859  1.00  0.00     0.210 C 
ENDBRANCH  23  28
BRANCH  26  30
HETATM   30  C   UNL     1      20.756  50.184  49.136  1.00  0.00    -0.024 C 
HETATM   31  C   UNL     1      20.540  51.099  50.362  1.00  0.00     0.019 C 
HETATM   32  C   UNL     1      20.268  50.965  47.894  1.00  0.00     0.019 C 
HETATM   33  C   UNL     1      19.859  48.936  49.270  1.00  0.00     0.019 C 
ENDBRANCH  26  30
ENDBRANCH  19  22
ENDBRANCH   1  18
TORSDOF 9
ENDMDL
MODEL 5
REMARK VINA RESULT:      -7.5      4.014      6.198
REMARK  9 active torsions:
REMARK  status: ('A' for Active; 'I' for Inactive)
REMARK    1  A    between atoms: C_4  and  S_5 
REMARK    2  A    between atoms: S_5  and  C_6 
REMARK    3  A    between atoms: C_6  and  C_7 
REMARK       I    between atoms: C_7  and  N_8 
REMARK    4  A    between atoms: C_13  and  C_14 
REMARK    5  A    between atoms: C_14  and  C_15 
REMARK    6  A    between atoms: C_15  and  C_16 
REMARK       I    between atoms: C_16  and  N_17 
REMARK    7  A    between atoms: N_17  and  C_18 
REMARK    8  A    between atoms: C_19  and  O_20 
REMARK    9  A    between atoms: C_24  and  C_25 
ROOT
HETATM    1  C   UNL     1      25.811  45.256  50.703  1.00  0.00     0.108 C 
ENDROOT
BRANCH   1   2
HETATM    2  C   UNL     1      25.131  45.626  49.376  1.00  0.00     0.052 C 
BRANCH   2   3
HETATM    3  C   UNL     1      24.326  46.905  49.316  1.00  0.00    -0.009 A 
HETATM    4  C   UNL     1      22.955  46.896  49.038  1.00  0.00     0.042 A 
HETATM    5  C   UNL     1      22.184  45.632  48.781  1.00  0.00     0.071 C 
HETATM    6  N   UNL     1      22.216  48.024  48.944  1.00  0.00    -0.228 NA
HETATM    7  C   UNL     1      22.842  49.186  49.149  1.00  0.00     0.189 A 
HETATM    8  N   UNL     1      24.150  49.310  49.397  1.00  0.00    -0.228 NA
HETATM    9  C   UNL     1      24.882  48.175  49.471  1.00  0.00     0.042 A 
HETATM   10  C   UNL     1      26.340  48.400  49.747  1.00  0.00     0.071 C 
BRANCH   7  11
HETATM   11  S   UNL     1      21.902  50.684  49.016  1.00  0.00    -0.081 SA
BRANCH  11  12
HETATM   12  C   UNL     1      20.230  49.965  48.951  1.00  0.00     0.185 C 
BRANCH  12  13
HETATM   13  C   UNL     1      19.407  50.449  50.126  1.00  0.00     0.225 C 
HETATM   14  N   UNL     1      18.960  51.739  50.054  1.00  0.00    -0.370 N 
HETATM   15  H   UNL     1      19.446  52.404  49.465  1.00  0.00     0.159 HD
HETATM   16  H   UNL     1      18.484  52.095  50.872  1.00  0.00     0.159 HD
HETATM   17  O   UNL     1      19.078  49.730  51.066  1.00  0.00    -0.273 OA
ENDBRANCH  12  13
ENDBRANCH  11  12
ENDBRANCH   7  11
ENDBRANCH   2   3
ENDBRANCH   1   2
BRANCH   1  18
HETATM   18  C   UNL     1      24.850  44.956  51.838  1.00  0.00     0.222 C 
HETATM   19  N   UNL     1      25.260  45.131  53.127  1.00  0.00    -0.325 N 
HETATM   20  H   UNL     1      24.485  45.234  53.778  1.00  0.00     0.169 HD
HETATM   21  O   UNL     1      23.683  44.621  51.628  1.00  0.00    -0.273 OA
BRANCH  19  22
HETATM   22  C   UNL     1      26.532  45.208  53.731  1.00  0.00     0.069 A 
HETATM   23  C   UNL     1      26.815  46.365  54.480  1.00  0.00     0.095 A 
HETATM   24  C   UNL     1      28.036  46.469  55.146  1.00  0.00     0.039 A 
HETATM   25  C   UNL     1      28.959  45.421  55.091  1.00  0.00     0.011 A 
HETATM   26  C   UNL     1      28.691  44.237  54.382  1.00  0.00    -0.048 A 
HETATM   27  C   UNL     1      27.460  44.159  53.702  1.00  0.00     0.040 A 
BRANCH  23  28
HETATM   28  O   UNL     1      25.830  47.324  54.493  1.00  0.00    -0.354 OA
HETATM   29  C   UNL     1      26.043  48.457  55.326  1.00  0.00     0.210 C 
ENDBRANCH  23  28
BRANCH  26  30
HETATM   30  C   UNL     1      29.701  43.075  54.408  1.00  0.00    -0.024 C 
HETATM   31  C   UNL     1      30.562  43.114  53.126  1.00  0.00     0.019 C 
HETATM   32  C   UNL     1      30.673  43.113  55.610  1.00  0.00     0.019 C 
HETATM   33  C   UNL     1      28.950  41.729  54.474  1.00  0.00     0.019 C 
ENDBRANCH  26  30
ENDBRANCH  19  22
ENDBRANCH   1  18
TORSDOF 9
ENDMDL
MODEL 6
REMARK VINA RESULT:      -7.4     12.644     14.676
REMARK  9 active torsions:
REMARK  status: ('A' for Active; 'I' for Inactive)
REMARK    1  A    between atoms: C_4  and  S_5 
REMARK    2  A    between atoms: S_5  and  C_6 
REMARK    3  A    between atoms: C_6  and  C_7 
REMARK       I    between atoms: C_7  and  N_8 
REMARK    4  A    between atoms: C_13  and  C_14 
REMARK    5  A    between atoms: C_14  and  C_15 
REMARK    6  A    between atoms: C_15  and  C_16 
REMARK       I    between atoms: C_16  and  N_17 
REMARK    7  A    between atoms: N_17  and  C_18 
REMARK    8  A    between atoms: C_19  and  O_20 
REMARK    9  A    between atoms: C_24  and  C_25 
ROOT
HETATM    1  C   UNL     1      29.780  53.096  39.811  1.00  0.00     0.108 C 
ENDROOT
BRANCH   1   2
HETATM    2  C   UNL     1      29.379  52.327  38.543  1.00  0.00     0.052 C 
BRANCH   2   3
HETATM    3  C   UNL     1      29.433  50.816  38.575  1.00  0.00    -0.009 A 
HETATM    4  C   UNL     1      30.648  50.123  38.522  1.00  0.00     0.042 A 
HETATM    5  C   UNL     1      31.977  50.818  38.431  1.00  0.00     0.071 C 
HETATM    6  N   UNL     1      30.726  48.775  38.514  1.00  0.00    -0.228 NA
HETATM    7  C   UNL     1      29.579  48.093  38.579  1.00  0.00     0.189 A 
HETATM    8  N   UNL     1      28.365  48.653  38.610  1.00  0.00    -0.228 NA
HETATM    9  C   UNL     1      28.299  50.004  38.599  1.00  0.00     0.042 A 
HETATM   10  C   UNL     1      26.903  50.551  38.629  1.00  0.00     0.071 C 
BRANCH   7  11
HETATM   11  S   UNL     1      29.649  46.321  38.555  1.00  0.00    -0.081 SA
BRANCH  11  12
HETATM   12  C   UNL     1      27.887  45.963  38.842  1.00  0.00     0.185 C 
BRANCH  12  13
HETATM   13  C   UNL     1      27.726  45.070  40.055  1.00  0.00     0.225 C 
HETATM   14  N   UNL     1      26.613  45.292  40.819  1.00  0.00    -0.370 N 
HETATM   15  H   UNL     1      26.158  46.196  40.788  1.00  0.00     0.159 HD
HETATM   16  H   UNL     1      26.544  44.759  41.675  1.00  0.00     0.159 HD
HETATM   17  O   UNL     1      28.488  44.146  40.323  1.00  0.00    -0.273 OA
ENDBRANCH  12  13
ENDBRANCH  11  12
ENDBRANCH   7  11
ENDBRANCH   2   3
ENDBRANCH   1   2
BRANCH   1  18
HETATM   18  C   UNL     1      28.953  52.757  41.037  1.00  0.00     0.222 C 
HETATM   19  N   UNL     1      29.507  52.005  42.031  1.00  0.00    -0.325 N 
HETATM   20  H   UNL     1      29.027  52.111  42.922  1.00  0.00     0.169 HD
HETATM   21  O   UNL     1      27.813  53.196  41.192  1.00  0.00    -0.273 OA
BRANCH  19  22
HETATM   22  C   UNL     1      30.609  51.127  42.074  1.00  0.00     0.069 A 
HETATM   23  C   UNL     1      30.332  49.748  42.040  1.00  0.00     0.095 A 
HETATM   24  C   UNL     1      31.386  48.836  42.023  1.00  0.00     0.039 A 
HETATM   25  C   UNL     1      32.709  49.289  42.012  1.00  0.00     0.011 A 
HETATM   26  C   UNL     1      33.019  50.660  42.008  1.00  0.00    -0.048 A 
HETATM   27  C   UNL     1      31.940  51.565  42.043  1.00  0.00     0.040 A 
BRANCH  23  28
HETATM   28  O   UNL     1      29.000  49.408  42.026  1.00  0.00    -0.354 OA
HETATM   29  C   UNL     1      28.688  48.021  42.067  1.00  0.00     0.210 C 
ENDBRANCH  23  28
BRANCH  26  30
HETATM   30  C   UNL     1      34.487  51.120  41.918  1.00  0.00    -0.024 C 
HETATM   31  C   UNL     1      34.645  52.103  40.738  1.00  0.00     0.019 C 
HETATM   32  C   UNL     1      34.997  51.843  43.186  1.00  0.00     0.019 C 
HETATM   33  C   UNL     1      35.405  49.901  41.690  1.00  0.00     0.019 C 
ENDBRANCH  26  30
ENDBRANCH  19  22
ENDBRANCH   1  18
TORSDOF 9
ENDMDL
MODEL 7
REMARK VINA RESULT:      -7.2      8.942     13.012
REMARK  9 active torsions:
REMARK  status: ('A' for Active; 'I' for Inactive)
REMARK    1  A    between atoms: C_4  and  S_5 
REMARK    2  A    between atoms: S_5  and  C_6 
REMARK    3  A    between atoms: C_6  and  C_7 
REMARK       I    between atoms: C_7  and  N_8 
REMARK    4  A    between atoms: C_13  and  C_14 
REMARK    5  A    between atoms: C_14  and  C_15 
REMARK    6  A    between atoms: C_15  and  C_16 
REMARK       I    between atoms: C_16  and  N_17 
REMARK    7  A    between atoms: N_17  and  C_18 
REMARK    8  A    between atoms: C_19  and  O_20 
REMARK    9  A    between atoms: C_24  and  C_25 
ROOT
HETATM    1  C   UNL     1      19.695  51.422  49.534  1.00  0.00     0.108 C 
ENDROOT
BRANCH   1   2
HETATM    2  C   UNL     1      20.475  50.759  48.390  1.00  0.00     0.052 C 
BRANCH   2   3
HETATM    3  C   UNL     1      21.496  49.698  48.739  1.00  0.00    -0.009 A 
HETATM    4  C   UNL     1      22.782  50.033  49.177  1.00  0.00     0.042 A 
HETATM    5  C   UNL     1      23.243  51.454  49.334  1.00  0.00     0.071 C 
HETATM    6  N   UNL     1      23.725  49.110  49.464  1.00  0.00    -0.228 NA
HETATM    7  C   UNL     1      23.385  47.824  49.333  1.00  0.00     0.189 A 
HETATM    8  N   UNL     1      22.195  47.395  48.900  1.00  0.00    -0.228 NA
HETATM    9  C   UNL     1      21.265  48.330  48.599  1.00  0.00     0.042 A 
HETATM   10  C   UNL     1      19.961  47.766  48.116  1.00  0.00     0.071 C 
BRANCH   7  11
HETATM   11  S   UNL     1      24.607  46.589  49.687  1.00  0.00    -0.081 SA
BRANCH  11  12
HETATM   12  C   UNL     1      25.919  47.668  50.343  1.00  0.00     0.185 C 
BRANCH  12  13
HETATM   13  C   UNL     1      26.878  48.057  49.236  1.00  0.00     0.225 C 
HETATM   14  N   UNL     1      26.673  49.285  48.671  1.00  0.00    -0.370 N 
HETATM   15  H   UNL     1      25.758  49.714  48.725  1.00  0.00     0.159 HD
HETATM   16  H   UNL     1      27.254  49.515  47.876  1.00  0.00     0.159 HD
HETATM   17  O   UNL     1      27.837  47.370  48.896  1.00  0.00    -0.273 OA
ENDBRANCH  12  13
ENDBRANCH  11  12
ENDBRANCH   7  11
ENDBRANCH   2   3
ENDBRANCH   1   2
BRANCH   1  18
HETATM   18  C   UNL     1      18.727  50.499  50.250  1.00  0.00     0.222 C 
HETATM   19  N   UNL     1      17.405  50.525  49.915  1.00  0.00    -0.325 N 
HETATM   20  H   UNL     1      16.913  49.677  50.184  1.00  0.00     0.169 HD
HETATM   21  O   UNL     1      19.111  49.677  51.084  1.00  0.00    -0.273 OA
BRANCH  19  22
HETATM   22  C   UNL     1      16.595  51.478  49.265  1.00  0.00     0.069 A 
HETATM   23  C   UNL     1      16.416  51.328  47.877  1.00  0.00     0.095 A 
HETATM   24  C   UNL     1      15.579  52.208  47.193  1.00  0.00     0.039 A 
HETATM   25  C   UNL     1      14.902  53.216  47.885  1.00  0.00     0.011 A 
HETATM   26  C   UNL     1      15.029  53.370  49.277  1.00  0.00    -0.048 A 
HETATM   27  C   UNL     1      15.893  52.481  49.947  1.00  0.00     0.040 A 
BRANCH  23  28
HETATM   28  O   UNL     1      17.106  50.289  47.297  1.00  0.00    -0.354 OA
HETATM   29  C   UNL     1      16.335  49.293  46.637  1.00  0.00     0.210 C 
ENDBRANCH  23  28
BRANCH  26  30
HETATM   30  C   UNL     1      14.207  54.444  50.014  1.00  0.00    -0.024 C 
HETATM   31  C   UNL     1      14.527  55.833  49.420  1.00  0.00     0.019 C 
HETATM   32  C   UNL     1      12.677  54.246  49.910  1.00  0.00     0.019 C 
HETATM   33  C   UNL     1      14.564  54.440  51.515  1.00  0.00     0.019 C 
ENDBRANCH  26  30
ENDBRANCH  19  22
ENDBRANCH   1  18
TORSDOF 9
ENDMDL
MODEL 8
REMARK VINA RESULT:      -7.0     13.079     15.865
REMARK  9 active torsions:
REMARK  status: ('A' for Active; 'I' for Inactive)
REMARK    1  A    between atoms: C_4  and  S_5 
REMARK    2  A    between atoms: S_5  and  C_6 
REMARK    3  A    between atoms: C_6  and  C_7 
REMARK       I    between atoms: C_7  and  N_8 
REMARK    4  A    between atoms: C_13  and  C_14 
REMARK    5  A    between atoms: C_14  and  C_15 
REMARK    6  A    between atoms: C_15  and  C_16 
REMARK       I    between atoms: C_16  and  N_17 
REMARK    7  A    between atoms: N_17  and  C_18 
REMARK    8  A    between atoms: C_19  and  O_20 
REMARK    9  A    between atoms: C_24  and  C_25 
ROOT
HETATM    1  C   UNL     1      31.966  48.932  42.253  1.00  0.00     0.108 C 
ENDROOT
BRANCH   1   2
HETATM    2  C   UNL     1      32.321  50.379  41.880  1.00  0.00     0.052 C 
BRANCH   2   3
HETATM    3  C   UNL     1      33.555  50.996  42.499  1.00  0.00    -0.009 A 
HETATM    4  C   UNL     1      33.494  51.717  43.696  1.00  0.00     0.042 A 
HETATM    5  C   UNL     1      32.213  51.932  44.452  1.00  0.00     0.071 C 
HETATM    6  N   UNL     1      34.573  52.308  44.255  1.00  0.00    -0.228 NA
HETATM    7  C   UNL     1      35.744  52.168  43.626  1.00  0.00     0.189 A 
HETATM    8  N   UNL     1      35.910  51.521  42.468  1.00  0.00    -0.228 NA
HETATM    9  C   UNL     1      34.819  50.950  41.910  1.00  0.00     0.042 A 
HETATM   10  C   UNL     1      35.089  50.250  40.610  1.00  0.00     0.071 C 
BRANCH   7  11
HETATM   11  S   UNL     1      37.174  52.947  44.328  1.00  0.00    -0.081 SA
BRANCH  11  12
HETATM   12  C   UNL     1      38.466  52.020  43.439  1.00  0.00     0.185 C 
BRANCH  12  13
HETATM   13  C   UNL     1      38.822  50.759  44.200  1.00  0.00     0.225 C 
HETATM   14  N   UNL     1      38.192  49.616  43.793  1.00  0.00    -0.370 N 
HETATM   15  H   UNL     1      37.311  49.680  43.298  1.00  0.00     0.159 HD
HETATM   16  H   UNL     1      38.359  48.789  44.350  1.00  0.00     0.159 HD
HETATM   17  O   UNL     1      39.675  50.717  45.082  1.00  0.00    -0.273 OA
ENDBRANCH  12  13
ENDBRANCH  11  12
ENDBRANCH   7  11
ENDBRANCH   2   3
ENDBRANCH   1   2
BRANCH   1  18
HETATM   18  C   UNL     1      32.367  47.901  41.215  1.00  0.00     0.222 C 
HETATM   19  N   UNL     1      31.634  47.784  40.070  1.00  0.00    -0.325 N 
HETATM   20  H   UNL     1      32.148  47.334  39.316  1.00  0.00     0.169 HD
HETATM   21  O   UNL     1      33.376  47.207  41.345  1.00  0.00    -0.273 OA
BRANCH  19  22
HETATM   22  C   UNL     1      30.323  48.170  39.722  1.00  0.00     0.069 A 
HETATM   23  C   UNL     1      30.189  49.267  38.851  1.00  0.00     0.095 A 
HETATM   24  C   UNL     1      28.918  49.656  38.428  1.00  0.00     0.039 A 
HETATM   25  C   UNL     1      27.789  48.944  38.845  1.00  0.00     0.011 A 
HETATM   26  C   UNL     1      27.893  47.822  39.685  1.00  0.00    -0.048 A 
HETATM   27  C   UNL     1      29.184  47.456  40.114  1.00  0.00     0.040 A 
BRANCH  23  28
HETATM   28  O   UNL     1      31.362  49.880  38.479  1.00  0.00    -0.354 OA
HETATM   29  C   UNL     1      31.295  51.268  38.174  1.00  0.00     0.210 C 
ENDBRANCH  23  28
BRANCH  26  30
HETATM   30  C   UNL     1      26.634  47.019  40.060  1.00  0.00    -0.024 C 
HETATM   31  C   UNL     1      26.970  46.045  41.211  1.00  0.00     0.019 C 
HETATM   32  C   UNL     1      25.449  47.892  40.534  1.00  0.00     0.019 C 
HETATM   33  C   UNL     1      26.143  46.211  38.840  1.00  0.00     0.019 C 
ENDBRANCH  26  30
ENDBRANCH  19  22
ENDBRANCH   1  18
TORSDOF 9
ENDMDL
MODEL 9
REMARK VINA RESULT:      -7.0     12.850     15.090
REMARK  9 active torsions:
REMARK  status: ('A' for Active; 'I' for Inactive)
REMARK    1  A    between atoms: C_4  and  S_5 
REMARK    2  A    between atoms: S_5  and  C_6 
REMARK    3  A    between atoms: C_6  and  C_7 
REMARK       I    between atoms: C_7  and  N_8 
REMARK    4  A    between atoms: C_13  and  C_14 
REMARK    5  A    between atoms: C_14  and  C_15 
REMARK    6  A    between atoms: C_15  and  C_16 
REMARK       I    between atoms: C_16  and  N_17 
REMARK    7  A    between atoms: N_17  and  C_18 
REMARK    8  A    between atoms: C_19  and  O_20 
REMARK    9  A    between atoms: C_24  and  C_25 
ROOT
HETATM    1  C   UNL     1      31.158  47.630  39.865  1.00  0.00     0.108 C 
ENDROOT
BRANCH   1   2
HETATM    2  C   UNL     1      29.860  47.020  40.412  1.00  0.00     0.052 C 
BRANCH   2   3
HETATM    3  C   UNL     1      28.556  47.388  39.740  1.00  0.00    -0.009 A 
HETATM    4  C   UNL     1      27.647  48.270  40.335  1.00  0.00     0.042 A 
HETATM    5  C   UNL     1      27.892  48.912  41.671  1.00  0.00     0.071 C 
HETATM    6  N   UNL     1      26.461  48.592  39.775  1.00  0.00    -0.228 NA
HETATM    7  C   UNL     1      26.172  48.044  38.590  1.00  0.00     0.189 A 
HETATM    8  N   UNL     1      26.957  47.174  37.947  1.00  0.00    -0.228 NA
HETATM    9  C   UNL     1      28.134  46.846  38.526  1.00  0.00     0.042 A 
HETATM   10  C   UNL     1      28.951  45.860  37.744  1.00  0.00     0.071 C 
BRANCH   7  11
HETATM   11  S   UNL     1      24.615  48.435  37.838  1.00  0.00    -0.081 SA
BRANCH  11  12
HETATM   12  C   UNL     1      23.676  48.867  39.338  1.00  0.00     0.185 C 
BRANCH  12  13
HETATM   13  C   UNL     1      22.929  50.168  39.131  1.00  0.00     0.225 C 
HETATM   14  N   UNL     1      22.568  50.839  40.267  1.00  0.00    -0.370 N 
HETATM   15  H   UNL     1      22.474  50.331  41.138  1.00  0.00     0.159 HD
HETATM   16  H   UNL     1      21.996  51.662  40.138  1.00  0.00     0.159 HD
HETATM   17  O   UNL     1      22.714  50.658  38.026  1.00  0.00    -0.273 OA
ENDBRANCH  12  13
ENDBRANCH  11  12
ENDBRANCH   7  11
ENDBRANCH   2   3
ENDBRANCH   1   2
BRANCH   1  18
HETATM   18  C   UNL     1      32.200  47.940  40.922  1.00  0.00     0.222 C 
HETATM   19  N   UNL     1      32.061  49.057  41.694  1.00  0.00    -0.325 N 
HETATM   20  H   UNL     1      32.588  49.006  42.562  1.00  0.00     0.169 HD
HETATM   21  O   UNL     1      33.139  47.176  41.152  1.00  0.00    -0.273 OA
BRANCH  19  22
HETATM   22  C   UNL     1      31.328  50.251  41.535  1.00  0.00     0.069 A 
HETATM   23  C   UNL     1      31.372  51.175  42.595  1.00  0.00     0.095 A 
HETATM   24  C   UNL     1      30.713  52.397  42.469  1.00  0.00     0.039 A 
HETATM   25  C   UNL     1      30.037  52.713  41.286  1.00  0.00     0.011 A 
HETATM   26  C   UNL     1      30.007  51.828  40.195  1.00  0.00    -0.048 A 
HETATM   27  C   UNL     1      30.664  50.592  40.349  1.00  0.00     0.040 A 
BRANCH  23  28
HETATM   28  O   UNL     1      32.085  50.779  43.702  1.00  0.00    -0.354 OA
HETATM   29  C   UNL     1      32.502  51.800  44.600  1.00  0.00     0.210 C 
ENDBRANCH  23  28
BRANCH  26  30
HETATM   30  C   UNL     1      29.317  52.244  38.882  1.00  0.00    -0.024 C 
HETATM   31  C   UNL     1      30.205  51.839  37.685  1.00  0.00     0.019 C 
HETATM   32  C   UNL     1      27.933  51.589  38.664  1.00  0.00     0.019 C 
HETATM   33  C   UNL     1      29.104  53.772  38.862  1.00  0.00     0.019 C 
ENDBRANCH  26  30
ENDBRANCH  19  22
ENDBRANCH   1  18
TORSDOF 9
ENDMDL
MODEL 10
REMARK VINA RESULT:      -6.9     13.548     15.028
REMARK  9 active torsions:
REMARK  status: ('A' for Active; 'I' for Inactive)
REMARK    1  A    between atoms: C_4  and  S_5 
REMARK    2  A    between atoms: S_5  and  C_6 
REMARK    3  A    between atoms: C_6  and  C_7 
REMARK       I    between atoms: C_7  and  N_8 
REMARK    4  A    between atoms: C_13  and  C_14 
REMARK    5  A    between atoms: C_14  and  C_15 
REMARK    6  A    between atoms: C_15  and  C_16 
REMARK       I    between atoms: C_16  and  N_17 
REMARK    7  A    between atoms: N_17  and  C_18 
REMARK    8  A    between atoms: C_19  and  O_20 
REMARK    9  A    between atoms: C_24  and  C_25 
ROOT
HETATM    1  C   UNL     1      31.498  52.400  40.992  1.00  0.00     0.108 C 
ENDROOT
BRANCH   1   2
HETATM    2  C   UNL     1      30.437  53.072  40.107  1.00  0.00     0.052 C 
BRANCH   2   3
HETATM    3  C   UNL     1      29.383  52.198  39.464  1.00  0.00    -0.009 A 
HETATM    4  C   UNL     1      28.123  52.021  40.045  1.00  0.00     0.042 A 
HETATM    5  C   UNL     1      27.723  52.677  41.337  1.00  0.00     0.071 C 
HETATM    6  N   UNL     1      27.173  51.222  39.513  1.00  0.00    -0.228 NA
HETATM    7  C   UNL     1      27.468  50.596  38.370  1.00  0.00     0.189 A 
HETATM    8  N   UNL     1      28.647  50.676  37.744  1.00  0.00    -0.228 NA
HETATM    9  C   UNL     1      29.595  51.466  38.297  1.00  0.00     0.042 A 
HETATM   10  C   UNL     1      30.889  51.496  37.537  1.00  0.00     0.071 C 
BRANCH   7  11
HETATM   11  S   UNL     1      26.247  49.526  37.656  1.00  0.00    -0.081 SA
BRANCH  11  12
HETATM   12  C   UNL     1      24.911  49.771  38.868  1.00  0.00     0.185 C 
BRANCH  12  13
HETATM   13  C   UNL     1      23.598  50.020  38.156  1.00  0.00     0.225 C 
HETATM   14  N   UNL     1      23.330  49.205  37.091  1.00  0.00    -0.370 N 
HETATM   15  H   UNL     1      24.093  48.748  36.607  1.00  0.00     0.159 HD
HETATM   16  H   UNL     1      22.498  49.420  36.559  1.00  0.00     0.159 HD
HETATM   17  O   UNL     1      22.767  50.843  38.531  1.00  0.00    -0.273 OA
ENDBRANCH  12  13
ENDBRANCH  11  12
ENDBRANCH   7  11
ENDBRANCH   2   3
ENDBRANCH   1   2
BRANCH   1  18
HETATM   18  C   UNL     1      30.973  51.887  42.319  1.00  0.00     0.222 C 
HETATM   19  N   UNL     1      30.959  50.544  42.560  1.00  0.00    -0.325 N 
HETATM   20  H   UNL     1      30.918  50.320  43.551  1.00  0.00     0.169 HD
HETATM   21  O   UNL     1      30.618  52.653  43.216  1.00  0.00    -0.273 OA
BRANCH  19  22
HETATM   22  C   UNL     1      31.001  49.414  41.717  1.00  0.00     0.069 A 
HETATM   23  C   UNL     1      32.255  48.807  41.522  1.00  0.00     0.095 A 
HETATM   24  C   UNL     1      32.346  47.654  40.745  1.00  0.00     0.039 A 
HETATM   25  C   UNL     1      31.196  47.090  40.185  1.00  0.00     0.011 A 
HETATM   26  C   UNL     1      29.923  47.650  40.392  1.00  0.00    -0.048 A 
HETATM   27  C   UNL     1      29.855  48.825  41.166  1.00  0.00     0.040 A 
BRANCH  23  28
HETATM   28  O   UNL     1      33.318  49.425  42.137  1.00  0.00    -0.354 OA
HETATM   29  C   UNL     1      34.465  49.685  41.336  1.00  0.00     0.210 C 
ENDBRANCH  23  28
BRANCH  26  30
HETATM   30  C   UNL     1      28.671  46.956  39.823  1.00  0.00    -0.024 C 
HETATM   31  C   UNL     1      28.623  47.160  38.293  1.00  0.00     0.019 C 
HETATM   32  C   UNL     1      28.625  45.433  40.081  1.00  0.00     0.019 C 
HETATM   33  C   UNL     1      27.402  47.563  40.456  1.00  0.00     0.019 C 
ENDBRANCH  26  30
ENDBRANCH  19  22
ENDBRANCH   1  18
TORSDOF 9
ENDMDL
