MODEL 1
REMARK VINA RESULT:      -9.3      0.000      0.000
REMARK  3 active torsions:
REMARK  status: ('A' for Active; 'I' for Inactive)
REMARK    1  A    between atoms: C_7  and  C_8 
REMARK       I    between atoms: C_8  and  N_9 
REMARK    2  A    between atoms: N_9  and  C_10 
REMARK    3  A    between atoms: C_11  and  O_12 
ROOT
HETATM    1  C   UNL     1      25.624  45.029  51.892  1.00  0.00     0.252 C 
HETATM    2  N   UNL     1      26.893  44.646  52.264  1.00  0.00    -0.346 N 
HETATM    3  O   UNL     1      24.624  44.406  52.230  1.00  0.00    -0.268 OA
HETATM    4  H   UNL     1      27.705  45.072  51.844  1.00  0.00     0.163 HD
ENDROOT
BRANCH   1   5
HETATM    5  C   UNL     1      25.498  46.251  51.042  1.00  0.00     0.033 A 
HETATM    6  C   UNL     1      26.670  46.944  50.718  1.00  0.00     0.019 A 
HETATM    7  C   UNL     1      26.646  48.072  49.890  1.00  0.00     0.031 A 
HETATM    8  C   UNL     1      25.405  48.482  49.394  1.00  0.00     0.043 A 
HETATM    9  C   UNL     1      24.214  47.823  49.692  1.00  0.00    -0.001 A 
HETATM   10  N   UNL     1      25.092  49.528  48.559  1.00  0.00    -0.359 N 
HETATM   11  C   UNL     1      23.158  48.518  49.015  1.00  0.00    -0.027 A 
HETATM   12  C   UNL     1      24.264  46.683  50.526  1.00  0.00     0.031 A 
HETATM   13  C   UNL     1      21.707  48.191  49.045  1.00  0.00     0.051 C 
HETATM   14  C   UNL     1      23.742  49.563  48.316  1.00  0.00     0.012 A 
HETATM   15  C   UNL     1      23.136  50.591  47.430  1.00  0.00     0.068 C 
HETATM   16  H   UNL     1      25.770  50.170  48.174  1.00  0.00     0.166 HD
ENDBRANCH   1   5
BRANCH   2  17
HETATM   17  C   UNL     1      27.106  43.503  53.130  1.00  0.00     0.147 C 
HETATM   18  C   UNL     1      27.588  42.228  52.374  1.00  0.00     0.149 C 
HETATM   19  C   UNL     1      29.130  42.268  52.375  1.00  0.00     0.073 C 
HETATM   20  C   UNL     1      29.414  43.063  53.615  1.00  0.00    -0.047 A 
HETATM   21  C   UNL     1      28.278  43.762  54.039  1.00  0.00    -0.027 A 
HETATM   22  C   UNL     1      30.618  43.188  54.288  1.00  0.00     0.008 A 
HETATM   23  C   UNL     1      28.322  44.599  55.144  1.00  0.00     0.010 A 
HETATM   24  C   UNL     1      29.528  44.721  55.834  1.00  0.00     0.001 A 
HETATM   25  C   UNL     1      30.668  44.021  55.410  1.00  0.00     0.001 A 
BRANCH  18  26
HETATM   26  O   UNL     1      27.149  41.032  53.042  1.00  0.00    -0.393 OA
HETATM   27  H   UNL     1      26.320  41.242  53.507  1.00  0.00     0.210 HD
ENDBRANCH  18  26
ENDBRANCH   2  17
TORSDOF 3
ENDMDL
MODEL 2
REMARK VINA RESULT:      -9.1      2.964      7.931
REMARK  3 active torsions:
REMARK  status: ('A' for Active; 'I' for Inactive)
REMARK    1  A    between atoms: C_7  and  C_8 
REMARK       I    between atoms: C_8  and  N_9 
REMARK    2  A    between atoms: N_9  and  C_10 
REMARK    3  A    between atoms: C_11  and  O_12 
ROOT
HETATM    1  C   UNL     1      26.271  46.818  53.906  1.00  0.00     0.252 C 
HETATM    2  N   UNL     1      26.057  46.068  52.773  1.00  0.00    -0.346 N 
HETATM    3  O   UNL     1      25.584  47.794  54.188  1.00  0.00    -0.268 OA
HETATM    4  H   UNL     1      26.728  45.376  52.477  1.00  0.00     0.163 HD
ENDROOT
BRANCH   1   5
HETATM    5  C   UNL     1      27.392  46.404  54.802  1.00  0.00     0.033 A 
HETATM    6  C   UNL     1      27.549  47.091  56.011  1.00  0.00     0.019 A 
HETATM    7  C   UNL     1      28.545  46.737  56.928  1.00  0.00     0.031 A 
HETATM    8  C   UNL     1      29.379  45.666  56.593  1.00  0.00     0.043 A 
HETATM    9  C   UNL     1      29.260  44.955  55.401  1.00  0.00    -0.001 A 
HETATM   10  N   UNL     1      30.413  45.100  57.301  1.00  0.00    -0.359 N 
HETATM   11  C   UNL     1      30.272  43.940  55.403  1.00  0.00    -0.027 A 
HETATM   12  C   UNL     1      28.243  45.328  54.493  1.00  0.00     0.031 A 
HETATM   13  C   UNL     1      30.543  42.943  54.332  1.00  0.00     0.051 C 
HETATM   14  C   UNL     1      30.961  44.055  56.600  1.00  0.00     0.012 A 
HETATM   15  C   UNL     1      32.090  43.258  57.146  1.00  0.00     0.068 C 
HETATM   16  H   UNL     1      30.714  45.411  58.214  1.00  0.00     0.166 HD
ENDBRANCH   1   5
BRANCH   2  17
HETATM   17  C   UNL     1      24.960  46.366  51.873  1.00  0.00     0.147 C 
HETATM   18  C   UNL     1      25.314  47.425  50.786  1.00  0.00     0.149 C 
HETATM   19  C   UNL     1      25.844  46.647  49.565  1.00  0.00     0.073 C 
HETATM   20  C   UNL     1      25.151  45.325  49.720  1.00  0.00    -0.047 A 
HETATM   21  C   UNL     1      24.657  45.164  51.020  1.00  0.00    -0.027 A 
HETATM   22  C   UNL     1      25.016  44.321  48.777  1.00  0.00     0.008 A 
HETATM   23  C   UNL     1      24.015  43.995  51.402  1.00  0.00     0.010 A 
HETATM   24  C   UNL     1      23.865  42.983  50.454  1.00  0.00     0.001 A 
HETATM   25  C   UNL     1      24.361  43.144  49.151  1.00  0.00     0.001 A 
BRANCH  18  26
HETATM   26  O   UNL     1      24.151  48.177  50.395  1.00  0.00    -0.393 OA
HETATM   27  H   UNL     1      24.422  49.106  50.290  1.00  0.00     0.210 HD
ENDBRANCH  18  26
ENDBRANCH   2  17
TORSDOF 3
ENDMDL
MODEL 3
REMARK VINA RESULT:      -8.8      1.112      2.024
REMARK  3 active torsions:
REMARK  status: ('A' for Active; 'I' for Inactive)
REMARK    1  A    between atoms: C_7  and  C_8 
REMARK       I    between atoms: C_8  and  N_9 
REMARK    2  A    between atoms: N_9  and  C_10 
REMARK    3  A    between atoms: C_11  and  O_12 
ROOT
HETATM    1  C   UNL     1      25.530  44.352  51.965  1.00  0.00     0.252 C 
HETATM    2  N   UNL     1      26.818  44.215  52.429  1.00  0.00    -0.346 N 
HETATM    3  O   UNL     1      24.628  43.588  52.292  1.00  0.00    -0.268 OA
HETATM    4  H   UNL     1      27.572  44.748  52.024  1.00  0.00     0.163 HD
ENDROOT
BRANCH   1   5
HETATM    5  C   UNL     1      25.255  45.482  51.027  1.00  0.00     0.033 A 
HETATM    6  C   UNL     1      23.961  45.596  50.504  1.00  0.00     0.019 A 
HETATM    7  C   UNL     1      23.608  46.650  49.654  1.00  0.00     0.031 A 
HETATM    8  C   UNL     1      24.596  47.590  49.346  1.00  0.00     0.043 A 
HETATM    9  C   UNL     1      25.896  47.514  49.842  1.00  0.00    -0.001 A 
HETATM   10  N   UNL     1      24.525  48.718  48.564  1.00  0.00    -0.359 N 
HETATM   11  C   UNL     1      26.620  48.636  49.319  1.00  0.00    -0.027 A 
HETATM   12  C   UNL     1      26.228  46.444  50.703  1.00  0.00     0.031 A 
HETATM   13  C   UNL     1      28.050  48.969  49.560  1.00  0.00     0.051 C 
HETATM   14  C   UNL     1      25.735  49.364  48.539  1.00  0.00     0.012 A 
HETATM   15  C   UNL     1      25.931  50.623  47.776  1.00  0.00     0.068 C 
HETATM   16  H   UNL     1      23.690  49.027  48.086  1.00  0.00     0.166 HD
ENDBRANCH   1   5
BRANCH   2  17
HETATM   17  C   UNL     1      27.164  43.180  53.383  1.00  0.00     0.147 C 
HETATM   18  C   UNL     1      27.767  41.902  52.726  1.00  0.00     0.149 C 
HETATM   19  C   UNL     1      29.295  42.102  52.686  1.00  0.00     0.073 C 
HETATM   20  C   UNL     1      29.513  43.026  53.848  1.00  0.00    -0.047 A 
HETATM   21  C   UNL     1      28.315  43.637  54.238  1.00  0.00    -0.027 A 
HETATM   22  C   UNL     1      30.706  43.333  54.479  1.00  0.00     0.008 A 
HETATM   23  C   UNL     1      28.287  44.565  55.268  1.00  0.00     0.010 A 
HETATM   24  C   UNL     1      29.484  44.871  55.916  1.00  0.00     0.001 A 
HETATM   25  C   UNL     1      30.685  44.260  55.525  1.00  0.00     0.001 A 
BRANCH  18  26
HETATM   26  O   UNL     1      27.467  40.728  53.502  1.00  0.00    -0.393 OA
HETATM   27  H   UNL     1      27.271  41.018  54.410  1.00  0.00     0.210 HD
ENDBRANCH  18  26
ENDBRANCH   2  17
TORSDOF 3
ENDMDL
MODEL 4
REMARK VINA RESULT:      -8.2      2.914      8.334
REMARK  3 active torsions:
REMARK  status: ('A' for Active; 'I' for Inactive)
REMARK    1  A    between atoms: C_7  and  C_8 
REMARK       I    between atoms: C_8  and  N_9 
REMARK    2  A    between atoms: N_9  and  C_10 
REMARK    3  A    between atoms: C_11  and  O_12 
ROOT
HETATM    1  C   UNL     1      24.797  47.423  49.884  1.00  0.00     0.252 C 
HETATM    2  N   UNL     1      23.516  47.019  49.583  1.00  0.00    -0.346 N 
HETATM    3  O   UNL     1      25.375  48.301  49.252  1.00  0.00    -0.268 OA
HETATM    4  H   UNL     1      23.123  46.191  50.004  1.00  0.00     0.163 HD
ENDROOT
BRANCH   1   5
HETATM    5  C   UNL     1      25.480  46.744  51.025  1.00  0.00     0.033 A 
HETATM    6  C   UNL     1      25.861  45.408  50.856  1.00  0.00     0.019 A 
HETATM    7  C   UNL     1      26.545  44.711  51.858  1.00  0.00     0.031 A 
HETATM    8  C   UNL     1      26.839  45.401  53.038  1.00  0.00     0.043 A 
HETATM    9  C   UNL     1      26.478  46.730  53.250  1.00  0.00    -0.001 A 
HETATM   10  N   UNL     1      27.506  44.977  54.163  1.00  0.00    -0.359 N 
HETATM   11  C   UNL     1      26.940  47.097  54.556  1.00  0.00    -0.027 A 
HETATM   12  C   UNL     1      25.792  47.414  52.221  1.00  0.00     0.031 A 
HETATM   13  C   UNL     1      26.774  48.414  55.228  1.00  0.00     0.051 C 
HETATM   14  C   UNL     1      27.580  45.988  55.088  1.00  0.00     0.012 A 
HETATM   15  C   UNL     1      28.263  45.801  56.394  1.00  0.00     0.068 C 
HETATM   16  H   UNL     1      27.893  44.052  54.280  1.00  0.00     0.166 HD
ENDBRANCH   1   5
BRANCH   2  17
HETATM   17  C   UNL     1      22.759  47.658  48.524  1.00  0.00     0.147 C 
HETATM   18  C   UNL     1      21.660  46.744  47.904  1.00  0.00     0.149 C 
HETATM   19  C   UNL     1      20.368  46.994  48.709  1.00  0.00     0.073 C 
HETATM   20  C   UNL     1      20.577  48.398  49.195  1.00  0.00    -0.047 A 
HETATM   21  C   UNL     1      21.923  48.772  49.095  1.00  0.00    -0.027 A 
HETATM   22  C   UNL     1      19.636  49.261  49.731  1.00  0.00     0.008 A 
HETATM   23  C   UNL     1      22.353  50.017  49.528  1.00  0.00     0.010 A 
HETATM   24  C   UNL     1      21.410  50.896  50.059  1.00  0.00     0.001 A 
HETATM   25  C   UNL     1      20.061  50.522  50.160  1.00  0.00     0.001 A 
BRANCH  18  26
HETATM   26  O   UNL     1      21.424  47.079  46.525  1.00  0.00    -0.393 OA
HETATM   27  H   UNL     1      22.121  47.701  46.249  1.00  0.00     0.210 HD
ENDBRANCH  18  26
ENDBRANCH   2  17
TORSDOF 3
ENDMDL
MODEL 5
REMARK VINA RESULT:      -8.1      3.326      9.244
REMARK  3 active torsions:
REMARK  status: ('A' for Active; 'I' for Inactive)
REMARK    1  A    between atoms: C_7  and  C_8 
REMARK       I    between atoms: C_8  and  N_9 
REMARK    2  A    between atoms: N_9  and  C_10 
REMARK    3  A    between atoms: C_11  and  O_12 
ROOT
HETATM    1  C   UNL     1      22.294  47.152  48.408  1.00  0.00     0.252 C 
HETATM    2  N   UNL     1      21.137  47.524  49.055  1.00  0.00    -0.346 N 
HETATM    3  O   UNL     1      22.395  47.158  47.185  1.00  0.00    -0.268 OA
HETATM    4  H   UNL     1      21.022  47.357  50.042  1.00  0.00     0.163 HD
ENDROOT
BRANCH   1   5
HETATM    5  C   UNL     1      23.448  46.728  49.256  1.00  0.00     0.033 A 
HETATM    6  C   UNL     1      24.264  47.729  49.795  1.00  0.00     0.019 A 
HETATM    7  C   UNL     1      25.339  47.421  50.636  1.00  0.00     0.031 A 
HETATM    8  C   UNL     1      25.568  46.072  50.922  1.00  0.00     0.043 A 
HETATM    9  C   UNL     1      24.783  45.043  50.406  1.00  0.00    -0.001 A 
HETATM   10  N   UNL     1      26.526  45.490  51.718  1.00  0.00    -0.359 N 
HETATM   11  C   UNL     1      25.309  43.808  50.909  1.00  0.00    -0.027 A 
HETATM   12  C   UNL     1      23.700  45.379  49.563  1.00  0.00     0.031 A 
HETATM   13  C   UNL     1      24.808  42.437  50.620  1.00  0.00     0.051 C 
HETATM   14  C   UNL     1      26.383  44.125  51.726  1.00  0.00     0.012 A 
HETATM   15  C   UNL     1      27.284  43.252  52.521  1.00  0.00     0.068 C 
HETATM   16  H   UNL     1      27.228  46.005  52.231  1.00  0.00     0.166 HD
ENDBRANCH   1   5
BRANCH   2  17
HETATM   17  C   UNL     1      19.985  47.998  48.314  1.00  0.00     0.147 C 
HETATM   18  C   UNL     1      18.638  47.376  48.790  1.00  0.00     0.149 C 
HETATM   19  C   UNL     1      18.076  48.312  49.879  1.00  0.00     0.073 C 
HETATM   20  C   UNL     1      18.675  49.631  49.487  1.00  0.00    -0.047 A 
HETATM   21  C   UNL     1      19.752  49.456  48.610  1.00  0.00    -0.027 A 
HETATM   22  C   UNL     1      18.311  50.894  49.923  1.00  0.00     0.008 A 
HETATM   23  C   UNL     1      20.484  50.540  48.150  1.00  0.00     0.010 A 
HETATM   24  C   UNL     1      20.116  51.816  48.575  1.00  0.00     0.001 A 
HETATM   25  C   UNL     1      19.037  51.993  49.455  1.00  0.00     0.001 A 
BRANCH  18  26
HETATM   26  O   UNL     1      17.693  47.295  47.708  1.00  0.00    -0.393 OA
HETATM   27  H   UNL     1      17.910  48.002  47.074  1.00  0.00     0.210 HD
ENDBRANCH  18  26
ENDBRANCH   2  17
TORSDOF 3
ENDMDL
MODEL 6
REMARK VINA RESULT:      -8.1      4.896      7.615
REMARK  3 active torsions:
REMARK  status: ('A' for Active; 'I' for Inactive)
REMARK    1  A    between atoms: C_7  and  C_8 
REMARK       I    between atoms: C_8  and  N_9 
REMARK    2  A    between atoms: N_9  and  C_10 
REMARK    3  A    between atoms: C_11  and  O_12 
ROOT
HETATM    1  C   UNL     1      27.239  42.653  51.490  1.00  0.00     0.252 C 
HETATM    2  N   UNL     1      27.545  41.513  50.782  1.00  0.00    -0.346 N 
HETATM    3  O   UNL     1      26.282  43.365  51.208  1.00  0.00    -0.268 OA
HETATM    4  H   UNL     1      28.422  41.036  50.924  1.00  0.00     0.163 HD
ENDROOT
BRANCH   1   5
HETATM    5  C   UNL     1      28.130  43.008  52.636  1.00  0.00     0.033 A 
HETATM    6  C   UNL     1      29.289  42.245  52.822  1.00  0.00     0.019 A 
HETATM    7  C   UNL     1      30.199  42.539  53.843  1.00  0.00     0.031 A 
HETATM    8  C   UNL     1      29.911  43.627  54.672  1.00  0.00     0.043 A 
HETATM    9  C   UNL     1      28.770  44.412  54.523  1.00  0.00    -0.001 A 
HETATM   10  N   UNL     1      30.626  44.146  55.725  1.00  0.00    -0.359 N 
HETATM   11  C   UNL     1      28.810  45.424  55.539  1.00  0.00    -0.027 A 
HETATM   12  C   UNL     1      27.867  44.100  53.482  1.00  0.00     0.031 A 
HETATM   13  C   UNL     1      27.797  46.486  55.785  1.00  0.00     0.051 C 
HETATM   14  C   UNL     1      29.979  45.232  56.258  1.00  0.00     0.012 A 
HETATM   15  C   UNL     1      30.544  45.991  57.403  1.00  0.00     0.068 C 
HETATM   16  H   UNL     1      31.509  43.778  56.049  1.00  0.00     0.166 HD
ENDBRANCH   1   5
BRANCH   2  17
HETATM   17  C   UNL     1      26.707  41.064  49.687  1.00  0.00     0.147 C 
HETATM   18  C   UNL     1      26.980  41.808  48.346  1.00  0.00     0.149 C 
HETATM   19  C   UNL     1      28.054  40.993  47.597  1.00  0.00     0.073 C 
HETATM   20  C   UNL     1      27.821  39.612  48.136  1.00  0.00    -0.047 A 
HETATM   21  C   UNL     1      27.066  39.651  49.315  1.00  0.00    -0.027 A 
HETATM   22  C   UNL     1      28.291  38.412  47.631  1.00  0.00     0.008 A 
HETATM   23  C   UNL     1      26.766  38.490  50.011  1.00  0.00     0.010 A 
HETATM   24  C   UNL     1      27.226  37.275  49.502  1.00  0.00     0.001 A 
HETATM   25  C   UNL     1      27.983  37.236  48.321  1.00  0.00     0.001 A 
BRANCH  18  26
HETATM   26  O   UNL     1      25.792  41.873  47.537  1.00  0.00    -0.393 OA
HETATM   27  H   UNL     1      25.443  40.968  47.453  1.00  0.00     0.210 HD
ENDBRANCH  18  26
ENDBRANCH   2  17
TORSDOF 3
ENDMDL
MODEL 7
REMARK VINA RESULT:      -8.0      3.107      7.860
REMARK  3 active torsions:
REMARK  status: ('A' for Active; 'I' for Inactive)
REMARK    1  A    between atoms: C_7  and  C_8 
REMARK       I    between atoms: C_8  and  N_9 
REMARK    2  A    between atoms: N_9  and  C_10 
REMARK    3  A    between atoms: C_11  and  O_12 
ROOT
HETATM    1  C   UNL     1      28.208  43.426  52.114  1.00  0.00     0.252 C 
HETATM    2  N   UNL     1      27.214  43.935  51.309  1.00  0.00    -0.346 N 
HETATM    3  O   UNL     1      28.840  42.417  51.820  1.00  0.00    -0.268 OA
HETATM    4  H   UNL     1      26.600  44.662  51.644  1.00  0.00     0.163 HD
ENDROOT
BRANCH   1   5
HETATM    5  C   UNL     1      28.499  44.152  53.387  1.00  0.00     0.033 A 
HETATM    6  C   UNL     1      27.662  45.217  53.737  1.00  0.00     0.019 A 
HETATM    7  C   UNL     1      27.837  45.921  54.933  1.00  0.00     0.031 A 
HETATM    8  C   UNL     1      28.881  45.518  55.772  1.00  0.00     0.043 A 
HETATM    9  C   UNL     1      29.738  44.465  55.463  1.00  0.00    -0.001 A 
HETATM   10  N   UNL     1      29.267  46.010  56.996  1.00  0.00    -0.359 N 
HETATM   11  C   UNL     1      30.673  44.342  56.543  1.00  0.00    -0.027 A 
HETATM   12  C   UNL     1      29.539  43.766  54.251  1.00  0.00     0.031 A 
HETATM   13  C   UNL     1      31.790  43.365  56.654  1.00  0.00     0.051 C 
HETATM   14  C   UNL     1      30.344  45.310  57.479  1.00  0.00     0.012 A 
HETATM   15  C   UNL     1      30.954  45.629  58.795  1.00  0.00     0.068 C 
HETATM   16  H   UNL     1      28.808  46.774  57.472  1.00  0.00     0.166 HD
ENDBRANCH   1   5
BRANCH   2  17
HETATM   17  C   UNL     1      26.899  43.325  50.032  1.00  0.00     0.147 C 
HETATM   18  C   UNL     1      26.845  41.769  50.079  1.00  0.00     0.149 C 
HETATM   19  C   UNL     1      25.387  41.384  50.400  1.00  0.00     0.073 C 
HETATM   20  C   UNL     1      24.633  42.559  49.849  1.00  0.00    -0.047 A 
HETATM   21  C   UNL     1      25.482  43.653  49.646  1.00  0.00    -0.027 A 
HETATM   22  C   UNL     1      23.276  42.654  49.593  1.00  0.00     0.008 A 
HETATM   23  C   UNL     1      24.990  44.864  49.181  1.00  0.00     0.010 A 
HETATM   24  C   UNL     1      23.626  44.964  48.909  1.00  0.00     0.001 A 
HETATM   25  C   UNL     1      22.774  43.867  49.114  1.00  0.00     0.001 A 
BRANCH  18  26
HETATM   26  O   UNL     1      27.213  41.198  48.811  1.00  0.00    -0.393 OA
HETATM   27  H   UNL     1      26.723  40.363  48.711  1.00  0.00     0.210 HD
ENDBRANCH  18  26
ENDBRANCH   2  17
TORSDOF 3
ENDMDL
MODEL 8
REMARK VINA RESULT:      -7.9      9.186     14.658
REMARK  3 active torsions:
REMARK  status: ('A' for Active; 'I' for Inactive)
REMARK    1  A    between atoms: C_7  and  C_8 
REMARK       I    between atoms: C_8  and  N_9 
REMARK    2  A    between atoms: N_9  and  C_10 
REMARK    3  A    between atoms: C_11  and  O_12 
ROOT
HETATM    1  C   UNL     1      15.526  52.927  50.078  1.00  0.00     0.252 C 
HETATM    2  N   UNL     1      15.649  54.223  50.526  1.00  0.00    -0.346 N 
HETATM    3  O   UNL     1      14.532  52.245  50.304  1.00  0.00    -0.268 OA
HETATM    4  H   UNL     1      16.532  54.706  50.472  1.00  0.00     0.163 HD
ENDROOT
BRANCH   1   5
HETATM    5  C   UNL     1      16.665  52.360  49.296  1.00  0.00     0.033 A 
HETATM    6  C   UNL     1      16.487  52.186  47.918  1.00  0.00     0.019 A 
HETATM    7  C   UNL     1      17.518  51.703  47.104  1.00  0.00     0.031 A 
HETATM    8  C   UNL     1      18.738  51.403  47.718  1.00  0.00     0.043 A 
HETATM    9  C   UNL     1      18.958  51.561  49.085  1.00  0.00    -0.001 A 
HETATM   10  N   UNL     1      19.909  50.938  47.169  1.00  0.00    -0.359 N 
HETATM   11  C   UNL     1      20.309  51.159  49.350  1.00  0.00    -0.027 A 
HETATM   12  C   UNL     1      17.904  52.055  49.886  1.00  0.00     0.031 A 
HETATM   13  C   UNL     1      20.994  51.140  50.672  1.00  0.00     0.051 C 
HETATM   14  C   UNL     1      20.869  50.788  48.138  1.00  0.00     0.012 A 
HETATM   15  C   UNL     1      22.238  50.311  47.812  1.00  0.00     0.068 C 
HETATM   16  H   UNL     1      20.039  50.745  46.186  1.00  0.00     0.166 HD
ENDBRANCH   1   5
BRANCH   2  17
HETATM   17  C   UNL     1      14.572  54.871  51.249  1.00  0.00     0.147 C 
HETATM   18  C   UNL     1      14.861  55.053  52.769  1.00  0.00     0.149 C 
HETATM   19  C   UNL     1      15.534  56.431  52.930  1.00  0.00     0.073 C 
HETATM   20  C   UNL     1      14.985  57.180  51.752  1.00  0.00    -0.047 A 
HETATM   21  C   UNL     1      14.447  56.303  50.803  1.00  0.00    -0.027 A 
HETATM   22  C   UNL     1      15.008  58.546  51.527  1.00  0.00     0.008 A 
HETATM   23  C   UNL     1      13.920  56.775  49.610  1.00  0.00     0.010 A 
HETATM   24  C   UNL     1      13.930  58.151  49.380  1.00  0.00     0.001 A 
HETATM   25  C   UNL     1      14.470  59.030  50.331  1.00  0.00     0.001 A 
BRANCH  18  26
HETATM   26  O   UNL     1      13.644  55.033  53.535  1.00  0.00    -0.393 OA
HETATM   27  H   UNL     1      13.826  55.464  54.389  1.00  0.00     0.210 HD
ENDBRANCH  18  26
ENDBRANCH   2  17
TORSDOF 3
ENDMDL
MODEL 9
REMARK VINA RESULT:      -7.8      4.272      7.133
REMARK  3 active torsions:
REMARK  status: ('A' for Active; 'I' for Inactive)
REMARK    1  A    between atoms: C_7  and  C_8 
REMARK       I    between atoms: C_8  and  N_9 
REMARK    2  A    between atoms: N_9  and  C_10 
REMARK    3  A    between atoms: C_11  and  O_12 
ROOT
HETATM    1  C   UNL     1      26.702  42.570  51.901  1.00  0.00     0.252 C 
HETATM    2  N   UNL     1      27.495  41.490  51.582  1.00  0.00    -0.346 N 
HETATM    3  O   UNL     1      25.587  42.732  51.418  1.00  0.00    -0.268 OA
HETATM    4  H   UNL     1      28.464  41.461  51.860  1.00  0.00     0.163 HD
ENDROOT
BRANCH   1   5
HETATM    5  C   UNL     1      27.254  43.564  52.870  1.00  0.00     0.033 A 
HETATM    6  C   UNL     1      26.601  44.797  52.982  1.00  0.00     0.019 A 
HETATM    7  C   UNL     1      27.026  45.767  53.897  1.00  0.00     0.031 A 
HETATM    8  C   UNL     1      28.128  45.458  54.700  1.00  0.00     0.043 A 
HETATM    9  C   UNL     1      28.808  44.245  54.621  1.00  0.00    -0.001 A 
HETATM   10  N   UNL     1      28.740  46.203  55.681  1.00  0.00    -0.359 N 
HETATM   11  C   UNL     1      29.870  44.285  55.584  1.00  0.00    -0.027 A 
HETATM   12  C   UNL     1      28.358  43.279  53.692  1.00  0.00     0.031 A 
HETATM   13  C   UNL     1      30.874  43.220  55.854  1.00  0.00     0.051 C 
HETATM   14  C   UNL     1      29.790  45.509  56.227  1.00  0.00     0.012 A 
HETATM   15  C   UNL     1      30.616  46.081  57.322  1.00  0.00     0.068 C 
HETATM   16  H   UNL     1      28.443  47.127  55.960  1.00  0.00     0.166 HD
ENDBRANCH   1   5
BRANCH   2  17
HETATM   17  C   UNL     1      27.020  40.450  50.691  1.00  0.00     0.147 C 
HETATM   18  C   UNL     1      26.515  40.987  49.318  1.00  0.00     0.149 C 
HETATM   19  C   UNL     1      27.727  40.977  48.365  1.00  0.00     0.073 C 
HETATM   20  C   UNL     1      28.566  39.878  48.948  1.00  0.00    -0.047 A 
HETATM   21  C   UNL     1      28.171  39.583  50.258  1.00  0.00    -0.027 A 
HETATM   22  C   UNL     1      29.635  39.222  48.362  1.00  0.00     0.008 A 
HETATM   23  C   UNL     1      28.838  38.626  51.008  1.00  0.00     0.010 A 
HETATM   24  C   UNL     1      29.909  37.953  50.421  1.00  0.00     0.001 A 
HETATM   25  C   UNL     1      30.305  38.248  49.108  1.00  0.00     0.001 A 
BRANCH  18  26
HETATM   26  O   UNL     1      25.485  40.141  48.776  1.00  0.00    -0.393 OA
HETATM   27  H   UNL     1      25.782  39.841  47.899  1.00  0.00     0.210 HD
ENDBRANCH  18  26
ENDBRANCH   2  17
TORSDOF 3
ENDMDL
MODEL 10
REMARK VINA RESULT:      -7.8      8.239     14.120
REMARK  3 active torsions:
REMARK  status: ('A' for Active; 'I' for Inactive)
REMARK    1  A    between atoms: C_7  and  C_8 
REMARK       I    between atoms: C_8  and  N_9 
REMARK    2  A    between atoms: N_9  and  C_10 
REMARK    3  A    between atoms: C_11  and  O_12 
ROOT
HETATM    1  C   UNL     1      16.204  52.080  49.675  1.00  0.00     0.252 C 
HETATM    2  N   UNL     1      16.131  53.275  50.355  1.00  0.00    -0.346 N 
HETATM    3  O   UNL     1      15.211  51.404  49.426  1.00  0.00    -0.268 OA
HETATM    4  H   UNL     1      16.966  53.730  50.691  1.00  0.00     0.163 HD
ENDROOT
BRANCH   1   5
HETATM    5  C   UNL     1      17.557  51.617  49.244  1.00  0.00     0.033 A 
HETATM    6  C   UNL     1      18.487  52.590  48.857  1.00  0.00     0.019 A 
HETATM    7  C   UNL     1      19.790  52.245  48.482  1.00  0.00     0.031 A 
HETATM    8  C   UNL     1      20.133  50.890  48.512  1.00  0.00     0.043 A 
HETATM    9  C   UNL     1      19.240  49.890  48.889  1.00  0.00    -0.001 A 
HETATM   10  N   UNL     1      21.328  50.278  48.217  1.00  0.00    -0.359 N 
HETATM   11  C   UNL     1      19.936  48.639  48.799  1.00  0.00    -0.027 A 
HETATM   12  C   UNL     1      17.931  50.262  49.268  1.00  0.00     0.031 A 
HETATM   13  C   UNL     1      19.386  47.287  49.090  1.00  0.00     0.051 C 
HETATM   14  C   UNL     1      21.229  48.920  48.388  1.00  0.00     0.012 A 
HETATM   15  C   UNL     1      22.385  48.018  48.150  1.00  0.00     0.068 C 
HETATM   16  H   UNL     1      22.162  50.769  47.925  1.00  0.00     0.166 HD
ENDBRANCH   1   5
BRANCH   2  17
HETATM   17  C   UNL     1      14.854  53.826  50.766  1.00  0.00     0.147 C 
HETATM   18  C   UNL     1      14.953  54.783  51.991  1.00  0.00     0.149 C 
HETATM   19  C   UNL     1      15.162  56.204  51.429  1.00  0.00     0.073 C 
HETATM   20  C   UNL     1      14.507  56.099  50.083  1.00  0.00    -0.047 A 
HETATM   21  C   UNL     1      14.337  54.762  49.707  1.00  0.00    -0.027 A 
HETATM   22  C   UNL     1      14.133  57.130  49.237  1.00  0.00     0.008 A 
HETATM   23  C   UNL     1      13.789  54.428  48.477  1.00  0.00     0.010 A 
HETATM   24  C   UNL     1      13.399  55.461  47.624  1.00  0.00     0.001 A 
HETATM   25  C   UNL     1      13.570  56.802  48.001  1.00  0.00     0.001 A 
BRANCH  18  26
HETATM   26  O   UNL     1      13.742  54.759  52.767  1.00  0.00    -0.393 OA
HETATM   27  H   UNL     1      13.347  55.648  52.725  1.00  0.00     0.210 HD
ENDBRANCH  18  26
ENDBRANCH   2  17
TORSDOF 3
ENDMDL
