MODEL 1
REMARK VINA RESULT:      -7.9      0.000      0.000
REMARK  5 active torsions:
REMARK  status: ('A' for Active; 'I' for Inactive)
REMARK    1  A    between atoms: C_2  and  C_3 
REMARK    2  A    between atoms: C_3  and  C_4 
REMARK       I    between atoms: C_4  and  N_5 
REMARK    3  A    between atoms: N_5  and  C_6 
REMARK    4  A    between atoms: C_9  and  N_10 
REMARK       I    between atoms: N_10  and  C_11 
REMARK       I    between atoms: C_11  and  N_12 
REMARK    5  A    between atoms: N_12  and  C_13 
ROOT
HETATM    1  C   UNL     1      25.297  46.399  50.109  1.00  0.00     0.043 C 
HETATM    2  C   UNL     1      25.490  46.094  51.475  1.00  0.00    -0.008 C 
HETATM    3  C   UNL     1      25.846  47.149  52.496  1.00  0.00     0.053 C 
HETATM    4  C   UNL     1      25.460  44.736  51.890  1.00  0.00     0.044 C 
HETATM    5  C   UNL     1      25.348  43.714  50.942  1.00  0.00     0.030 C 
HETATM    6  C   UNL     1      25.270  44.020  49.588  1.00  0.00     0.005 C 
HETATM    7  C   UNL     1      25.242  45.351  49.176  1.00  0.00     0.030 C 
ENDROOT
BRANCH   4   8
HETATM    8  N   UNL     1      25.449  44.456  53.275  1.00  0.00    -0.308 N 
HETATM    9  C   UNL     1      26.453  44.127  54.148  1.00  0.00     0.325 C 
HETATM   10  N   UNL     1      27.699  44.579  53.816  1.00  0.00    -0.305 N 
HETATM   11  O   UNL     1      26.145  43.568  55.197  1.00  0.00    -0.247 OA
HETATM   12  H   UNL     1      27.706  45.359  53.176  1.00  0.00     0.171 HD
HETATM   13  H   UNL     1      24.538  44.362  53.707  1.00  0.00     0.170 HD
BRANCH  10  14
HETATM   14  C   UNL     1      28.860  44.358  54.535  1.00  0.00     0.086 A 
HETATM   15  C   UNL     1      29.930  43.428  54.379  1.00  0.00     0.079 A 
HETATM   16  C   UNL     1      30.162  42.402  53.331  1.00  0.00     0.075 C 
HETATM   17  N   UNL     1      30.861  43.590  55.332  1.00  0.00    -0.177 NA
HETATM   18  N   UNL     1      30.398  44.598  56.076  1.00  0.00    -0.280 N 
HETATM   19  H   UNL     1      30.947  44.885  56.879  1.00  0.00     0.189 HD
HETATM   20  C   UNL     1      29.214  45.117  55.634  1.00  0.00     0.052 A 
HETATM   21  C   UNL     1      28.567  46.248  56.338  1.00  0.00     0.072 C 
ENDBRANCH  10  14
ENDBRANCH   4   8
BRANCH   1  22
HETATM   22  N   UNL     1      25.168  47.698  49.559  1.00  0.00    -0.327 N 
HETATM   23  C   UNL     1      23.989  48.367  49.278  1.00  0.00     0.222 C 
HETATM   24  O   UNL     1      22.852  47.923  49.389  1.00  0.00    -0.273 OA
HETATM   25  H   UNL     1      25.984  48.052  49.074  1.00  0.00     0.169 HD
BRANCH  23  26
HETATM   26  C   UNL     1      24.221  49.755  48.707  1.00  0.00     0.103 C 
BRANCH  26  27
HETATM   27  C   UNL     1      23.092  50.186  47.777  1.00  0.00     0.005 C 
HETATM   28  C   UNL     1      22.087  51.104  48.460  1.00  0.00     0.005 C 
ENDBRANCH  26  27
ENDBRANCH  23  26
ENDBRANCH   1  22
TORSDOF 5
ENDMDL
MODEL 2
REMARK VINA RESULT:      -7.9      2.601      7.408
REMARK  5 active torsions:
REMARK  status: ('A' for Active; 'I' for Inactive)
REMARK    1  A    between atoms: C_2  and  C_3 
REMARK    2  A    between atoms: C_3  and  C_4 
REMARK       I    between atoms: C_4  and  N_5 
REMARK    3  A    between atoms: N_5  and  C_6 
REMARK    4  A    between atoms: C_9  and  N_10 
REMARK       I    between atoms: N_10  and  C_11 
REMARK       I    between atoms: C_11  and  N_12 
REMARK    5  A    between atoms: N_12  and  C_13 
ROOT
HETATM    1  C   UNL     1      28.869  43.706  54.597  1.00  0.00     0.043 C 
HETATM    2  C   UNL     1      27.625  43.310  54.058  1.00  0.00    -0.008 C 
HETATM    3  C   UNL     1      26.326  43.482  54.811  1.00  0.00     0.053 C 
HETATM    4  C   UNL     1      27.597  42.627  52.813  1.00  0.00     0.044 C 
HETATM    5  C   UNL     1      28.793  42.257  52.189  1.00  0.00     0.030 C 
HETATM    6  C   UNL     1      30.015  42.553  52.783  1.00  0.00     0.005 C 
HETATM    7  C   UNL     1      30.051  43.273  53.974  1.00  0.00     0.030 C 
ENDROOT
BRANCH   4   8
HETATM    8  N   UNL     1      26.348  42.418  52.187  1.00  0.00    -0.308 N 
HETATM    9  C   UNL     1      25.421  43.293  51.686  1.00  0.00     0.325 C 
HETATM   10  N   UNL     1      25.909  44.499  51.267  1.00  0.00    -0.305 N 
HETATM   11  O   UNL     1      24.268  42.893  51.542  1.00  0.00    -0.247 OA
HETATM   12  H   UNL     1      26.896  44.503  51.060  1.00  0.00     0.171 HD
HETATM   13  H   UNL     1      25.993  41.469  52.198  1.00  0.00     0.170 HD
BRANCH  10  14
HETATM   14  C   UNL     1      25.161  45.538  50.742  1.00  0.00     0.086 A 
HETATM   15  C   UNL     1      24.379  45.661  49.555  1.00  0.00     0.079 A 
HETATM   16  C   UNL     1      24.077  44.661  48.500  1.00  0.00     0.075 C 
HETATM   17  N   UNL     1      23.820  46.878  49.462  1.00  0.00    -0.177 NA
HETATM   18  N   UNL     1      24.231  47.514  50.562  1.00  0.00    -0.280 N 
HETATM   19  H   UNL     1      23.934  48.474  50.693  1.00  0.00     0.189 HD
HETATM   20  C   UNL     1      25.019  46.755  51.382  1.00  0.00     0.052 A 
HETATM   21  C   UNL     1      25.553  47.304  52.649  1.00  0.00     0.072 C 
ENDBRANCH  10  14
ENDBRANCH   4   8
BRANCH   1  22
HETATM   22  N   UNL     1      29.058  44.504  55.752  1.00  0.00    -0.327 N 
HETATM   23  C   UNL     1      28.832  45.865  55.866  1.00  0.00     0.222 C 
HETATM   24  O   UNL     1      28.500  46.628  54.967  1.00  0.00    -0.273 OA
HETATM   25  H   UNL     1      29.665  44.112  56.462  1.00  0.00     0.169 HD
BRANCH  23  26
HETATM   26  C   UNL     1      29.123  46.395  57.259  1.00  0.00     0.103 C 
BRANCH  26  27
HETATM   27  C   UNL     1      29.584  45.291  58.205  1.00  0.00     0.005 C 
HETATM   28  C   UNL     1      31.084  45.332  58.469  1.00  0.00     0.005 C 
ENDBRANCH  26  27
ENDBRANCH  23  26
ENDBRANCH   1  22
TORSDOF 5
ENDMDL
MODEL 3
REMARK VINA RESULT:      -7.7      3.274      7.571
REMARK  5 active torsions:
REMARK  status: ('A' for Active; 'I' for Inactive)
REMARK    1  A    between atoms: C_2  and  C_3 
REMARK    2  A    between atoms: C_3  and  C_4 
REMARK       I    between atoms: C_4  and  N_5 
REMARK    3  A    between atoms: N_5  and  C_6 
REMARK    4  A    between atoms: C_9  and  N_10 
REMARK       I    between atoms: N_10  and  C_11 
REMARK       I    between atoms: C_11  and  N_12 
REMARK    5  A    between atoms: N_12  and  C_13 
ROOT
HETATM    1  C   UNL     1      28.271  46.224  55.138  1.00  0.00     0.043 C 
HETATM    2  C   UNL     1      27.498  45.184  54.575  1.00  0.00    -0.008 C 
HETATM    3  C   UNL     1      27.950  43.742  54.591  1.00  0.00     0.053 C 
HETATM    4  C   UNL     1      26.308  45.510  53.872  1.00  0.00     0.044 C 
HETATM    5  C   UNL     1      25.968  46.849  53.650  1.00  0.00     0.030 C 
HETATM    6  C   UNL     1      26.795  47.868  54.113  1.00  0.00     0.005 C 
HETATM    7  C   UNL     1      27.933  47.557  54.852  1.00  0.00     0.030 C 
ENDROOT
BRANCH   4   8
HETATM    8  N   UNL     1      25.441  44.461  53.493  1.00  0.00    -0.308 N 
HETATM    9  C   UNL     1      25.337  43.736  52.335  1.00  0.00     0.325 C 
HETATM   10  N   UNL     1      26.484  43.626  51.600  1.00  0.00    -0.305 N 
HETATM   11  O   UNL     1      24.279  43.154  52.112  1.00  0.00    -0.247 OA
HETATM   12  H   UNL     1      27.333  43.789  52.119  1.00  0.00     0.171 HD
HETATM   13  H   UNL     1      24.674  44.262  54.124  1.00  0.00     0.170 HD
BRANCH  10  14
HETATM   14  C   UNL     1      26.613  42.957  50.395  1.00  0.00     0.086 A 
HETATM   15  C   UNL     1      27.346  41.796  50.010  1.00  0.00     0.079 A 
HETATM   16  C   UNL     1      28.193  40.885  50.821  1.00  0.00     0.075 C 
HETATM   17  N   UNL     1      27.162  41.511  48.711  1.00  0.00    -0.177 NA
HETATM   18  N   UNL     1      26.330  42.463  48.280  1.00  0.00    -0.280 N 
HETATM   19  H   UNL     1      26.062  42.450  47.302  1.00  0.00     0.189 HD
HETATM   20  C   UNL     1      25.946  43.347  49.249  1.00  0.00     0.052 A 
HETATM   21  C   UNL     1      25.018  44.459  48.943  1.00  0.00     0.072 C 
ENDBRANCH  10  14
ENDBRANCH   4   8
BRANCH   1  22
HETATM   22  N   UNL     1      29.402  46.059  55.974  1.00  0.00    -0.327 N 
HETATM   23  C   UNL     1      29.414  46.029  57.358  1.00  0.00     0.222 C 
HETATM   24  O   UNL     1      28.457  46.214  58.101  1.00  0.00    -0.273 OA
HETATM   25  H   UNL     1      30.298  46.258  55.545  1.00  0.00     0.169 HD
BRANCH  23  26
HETATM   26  C   UNL     1      30.805  45.818  57.931  1.00  0.00     0.103 C 
BRANCH  26  27
HETATM   27  C   UNL     1      31.116  44.340  58.144  1.00  0.00     0.005 C 
HETATM   28  C   UNL     1      31.789  43.702  56.935  1.00  0.00     0.005 C 
ENDBRANCH  26  27
ENDBRANCH  23  26
ENDBRANCH   1  22
TORSDOF 5
ENDMDL
MODEL 4
REMARK VINA RESULT:      -7.7      2.483      8.897
REMARK  5 active torsions:
REMARK  status: ('A' for Active; 'I' for Inactive)
REMARK    1  A    between atoms: C_2  and  C_3 
REMARK    2  A    between atoms: C_3  and  C_4 
REMARK       I    between atoms: C_4  and  N_5 
REMARK    3  A    between atoms: N_5  and  C_6 
REMARK    4  A    between atoms: C_9  and  N_10 
REMARK       I    between atoms: N_10  and  C_11 
REMARK       I    between atoms: C_11  and  N_12 
REMARK    5  A    between atoms: N_12  and  C_13 
ROOT
HETATM    1  C   UNL     1      25.660  44.685  52.126  1.00  0.00     0.043 C 
HETATM    2  C   UNL     1      25.540  46.032  51.719  1.00  0.00    -0.008 C 
HETATM    3  C   UNL     1      26.111  47.174  52.528  1.00  0.00     0.053 C 
HETATM    4  C   UNL     1      24.764  46.341  50.570  1.00  0.00     0.044 C 
HETATM    5  C   UNL     1      24.042  45.334  49.920  1.00  0.00     0.030 C 
HETATM    6  C   UNL     1      24.077  44.028  50.394  1.00  0.00     0.005 C 
HETATM    7  C   UNL     1      24.881  43.706  51.485  1.00  0.00     0.030 C 
ENDROOT
BRANCH   4   8
HETATM    8  N   UNL     1      24.817  47.655  50.056  1.00  0.00    -0.308 N 
HETATM    9  C   UNL     1      23.912  48.391  49.337  1.00  0.00     0.325 C 
HETATM   10  N   UNL     1      22.599  48.060  49.521  1.00  0.00    -0.305 N 
HETATM   11  O   UNL     1      24.330  49.349  48.691  1.00  0.00    -0.247 OA
HETATM   12  H   UNL     1      22.407  47.563  50.377  1.00  0.00     0.171 HD
HETATM   13  H   UNL     1      25.713  48.124  50.112  1.00  0.00     0.170 HD
BRANCH  10  14
HETATM   14  C   UNL     1      21.518  48.654  48.893  1.00  0.00     0.086 A 
HETATM   15  C   UNL     1      20.789  49.852  49.154  1.00  0.00     0.079 A 
HETATM   16  C   UNL     1      21.000  50.895  50.190  1.00  0.00     0.075 C 
HETATM   17  N   UNL     1      19.803  50.028  48.261  1.00  0.00    -0.177 NA
HETATM   18  N   UNL     1      19.901  48.972  47.450  1.00  0.00    -0.280 N 
HETATM   19  H   UNL     1      19.230  48.891  46.694  1.00  0.00     0.189 HD
HETATM   20  C   UNL     1      20.926  48.124  47.762  1.00  0.00     0.052 A 
HETATM   21  C   UNL     1      21.183  46.908  46.958  1.00  0.00     0.072 C 
ENDBRANCH  10  14
ENDBRANCH   4   8
BRANCH   1  22
HETATM   22  N   UNL     1      26.496  44.201  53.161  1.00  0.00    -0.327 N 
HETATM   23  C   UNL     1      27.832  43.852  53.055  1.00  0.00     0.222 C 
HETATM   24  O   UNL     1      28.502  43.832  52.029  1.00  0.00    -0.273 OA
HETATM   25  H   UNL     1      26.019  43.815  53.967  1.00  0.00     0.169 HD
BRANCH  23  26
HETATM   26  C   UNL     1      28.426  43.387  54.372  1.00  0.00     0.103 C 
BRANCH  26  27
HETATM   27  C   UNL     1      29.907  43.045  54.242  1.00  0.00     0.005 C 
HETATM   28  C   UNL     1      30.697  43.370  55.504  1.00  0.00     0.005 C 
ENDBRANCH  26  27
ENDBRANCH  23  26
ENDBRANCH   1  22
TORSDOF 5
ENDMDL
MODEL 5
REMARK VINA RESULT:      -7.5      4.412      8.025
REMARK  5 active torsions:
REMARK  status: ('A' for Active; 'I' for Inactive)
REMARK    1  A    between atoms: C_2  and  C_3 
REMARK    2  A    between atoms: C_3  and  C_4 
REMARK       I    between atoms: C_4  and  N_5 
REMARK    3  A    between atoms: N_5  and  C_6 
REMARK    4  A    between atoms: C_9  and  N_10 
REMARK       I    between atoms: N_10  and  C_11 
REMARK       I    between atoms: C_11  and  N_12 
REMARK    5  A    between atoms: N_12  and  C_13 
ROOT
HETATM    1  C   UNL     1      18.747  50.899  49.541  1.00  0.00     0.043 C 
HETATM    2  C   UNL     1      19.292  49.603  49.678  1.00  0.00    -0.008 C 
HETATM    3  C   UNL     1      18.637  48.538  50.527  1.00  0.00     0.053 C 
HETATM    4  C   UNL     1      20.553  49.318  49.091  1.00  0.00     0.044 C 
HETATM    5  C   UNL     1      21.290  50.338  48.482  1.00  0.00     0.030 C 
HETATM    6  C   UNL     1      20.795  51.638  48.449  1.00  0.00     0.005 C 
HETATM    7  C   UNL     1      19.534  51.914  48.971  1.00  0.00     0.030 C 
ENDROOT
BRANCH   4   8
HETATM    8  N   UNL     1      20.992  47.976  49.058  1.00  0.00    -0.308 N 
HETATM    9  C   UNL     1      22.246  47.425  49.077  1.00  0.00     0.325 C 
HETATM   10  N   UNL     1      23.214  48.172  49.689  1.00  0.00    -0.305 N 
HETATM   11  O   UNL     1      22.378  46.277  48.662  1.00  0.00    -0.247 OA
HETATM   12  H   UNL     1      22.863  48.865  50.334  1.00  0.00     0.171 HD
HETATM   13  H   UNL     1      20.283  47.276  48.873  1.00  0.00     0.170 HD
BRANCH  10  14
HETATM   14  C   UNL     1      24.547  47.826  49.815  1.00  0.00     0.086 A 
HETATM   15  C   UNL     1      25.206  46.751  50.482  1.00  0.00     0.079 A 
HETATM   16  C   UNL     1      24.643  45.604  51.239  1.00  0.00     0.075 C 
HETATM   17  N   UNL     1      26.537  46.821  50.324  1.00  0.00    -0.177 NA
HETATM   18  N   UNL     1      26.723  47.910  49.573  1.00  0.00    -0.280 N 
HETATM   19  H   UNL     1      27.675  48.167  49.338  1.00  0.00     0.189 HD
HETATM   20  C   UNL     1      25.565  48.542  49.214  1.00  0.00     0.052 A 
HETATM   21  C   UNL     1      25.590  49.760  48.373  1.00  0.00     0.072 C 
ENDBRANCH  10  14
ENDBRANCH   4   8
BRANCH   1  22
HETATM   22  N   UNL     1      17.452  51.304  49.949  1.00  0.00    -0.327 N 
HETATM   23  C   UNL     1      16.409  51.700  49.129  1.00  0.00     0.222 C 
HETATM   24  O   UNL     1      16.449  51.840  47.912  1.00  0.00    -0.273 OA
HETATM   25  H   UNL     1      17.368  51.595  50.915  1.00  0.00     0.169 HD
BRANCH  23  26
HETATM   26  C   UNL     1      15.152  52.052  49.904  1.00  0.00     0.103 C 
BRANCH  26  27
HETATM   27  C   UNL     1      14.795  53.529  49.774  1.00  0.00     0.005 C 
HETATM   28  C   UNL     1      13.411  53.849  50.324  1.00  0.00     0.005 C 
ENDBRANCH  26  27
ENDBRANCH  23  26
ENDBRANCH   1  22
TORSDOF 5
ENDMDL
MODEL 6
REMARK VINA RESULT:      -7.4      3.390      8.125
REMARK  5 active torsions:
REMARK  status: ('A' for Active; 'I' for Inactive)
REMARK    1  A    between atoms: C_2  and  C_3 
REMARK    2  A    between atoms: C_3  and  C_4 
REMARK       I    between atoms: C_4  and  N_5 
REMARK    3  A    between atoms: N_5  and  C_6 
REMARK    4  A    between atoms: C_9  and  N_10 
REMARK       I    between atoms: N_10  and  C_11 
REMARK       I    between atoms: C_11  and  N_12 
REMARK    5  A    between atoms: N_12  and  C_13 
ROOT
HETATM    1  C   UNL     1      28.675  44.021  54.534  1.00  0.00     0.043 C 
HETATM    2  C   UNL     1      27.817  44.512  53.525  1.00  0.00    -0.008 C 
HETATM    3  C   UNL     1      26.686  45.470  53.823  1.00  0.00     0.053 C 
HETATM    4  C   UNL     1      27.945  44.010  52.203  1.00  0.00     0.044 C 
HETATM    5  C   UNL     1      28.835  42.965  51.933  1.00  0.00     0.030 C 
HETATM    6  C   UNL     1      29.597  42.411  52.955  1.00  0.00     0.005 C 
HETATM    7  C   UNL     1      29.520  42.937  54.243  1.00  0.00     0.030 C 
ENDROOT
BRANCH   4   8
HETATM    8  N   UNL     1      27.227  44.648  51.168  1.00  0.00    -0.308 N 
HETATM    9  C   UNL     1      26.328  44.171  50.251  1.00  0.00     0.325 C 
HETATM   10  N   UNL     1      25.627  43.060  50.629  1.00  0.00    -0.305 N 
HETATM   11  O   UNL     1      26.138  44.831  49.232  1.00  0.00    -0.247 OA
HETATM   12  H   UNL     1      25.592  42.906  51.626  1.00  0.00     0.171 HD
HETATM   13  H   UNL     1      27.486  45.607  50.968  1.00  0.00     0.170 HD
BRANCH  10  14
HETATM   14  C   UNL     1      24.682  42.399  49.865  1.00  0.00     0.086 A 
HETATM   15  C   UNL     1      23.317  42.680  49.562  1.00  0.00     0.079 A 
HETATM   16  C   UNL     1      22.469  43.836  49.949  1.00  0.00     0.075 C 
HETATM   17  N   UNL     1      22.791  41.740  48.762  1.00  0.00    -0.177 NA
HETATM   18  N   UNL     1      23.795  40.883  48.557  1.00  0.00    -0.280 N 
HETATM   19  H   UNL     1      23.612  40.070  47.979  1.00  0.00     0.189 HD
HETATM   20  C   UNL     1      24.962  41.236  49.173  1.00  0.00     0.052 A 
HETATM   21  C   UNL     1      26.178  40.401  49.041  1.00  0.00     0.072 C 
ENDBRANCH  10  14
ENDBRANCH   4   8
BRANCH   1  22
HETATM   22  N   UNL     1      28.764  44.510  55.860  1.00  0.00    -0.327 N 
HETATM   23  C   UNL     1      29.378  45.680  56.274  1.00  0.00     0.222 C 
HETATM   24  O   UNL     1      30.013  46.459  55.573  1.00  0.00    -0.273 OA
HETATM   25  H   UNL     1      28.619  43.824  56.591  1.00  0.00     0.169 HD
BRANCH  23  26
HETATM   26  C   UNL     1      29.269  45.904  57.772  1.00  0.00     0.103 C 
BRANCH  26  27
HETATM   27  C   UNL     1      30.554  45.525  58.501  1.00  0.00     0.005 C 
HETATM   28  C   UNL     1      31.235  44.305  57.893  1.00  0.00     0.005 C 
ENDBRANCH  26  27
ENDBRANCH  23  26
ENDBRANCH   1  22
TORSDOF 5
ENDMDL
MODEL 7
REMARK VINA RESULT:      -7.3      1.866      2.308
REMARK  5 active torsions:
REMARK  status: ('A' for Active; 'I' for Inactive)
REMARK    1  A    between atoms: C_2  and  C_3 
REMARK    2  A    between atoms: C_3  and  C_4 
REMARK       I    between atoms: C_4  and  N_5 
REMARK    3  A    between atoms: N_5  and  C_6 
REMARK    4  A    between atoms: C_9  and  N_10 
REMARK       I    between atoms: N_10  and  C_11 
REMARK       I    between atoms: C_11  and  N_12 
REMARK    5  A    between atoms: N_12  and  C_13 
ROOT
HETATM    1  C   UNL     1      24.580  44.952  49.988  1.00  0.00     0.043 C 
HETATM    2  C   UNL     1      25.939  44.613  50.173  1.00  0.00    -0.008 C 
HETATM    3  C   UNL     1      27.065  45.484  49.667  1.00  0.00     0.053 C 
HETATM    4  C   UNL     1      26.265  43.360  50.757  1.00  0.00     0.044 C 
HETATM    5  C   UNL     1      25.256  42.434  51.041  1.00  0.00     0.030 C 
HETATM    6  C   UNL     1      23.928  42.733  50.752  1.00  0.00     0.005 C 
HETATM    7  C   UNL     1      23.595  43.981  50.233  1.00  0.00     0.030 C 
ENDROOT
BRANCH   4   8
HETATM    8  N   UNL     1      27.607  43.117  51.124  1.00  0.00    -0.308 N 
HETATM    9  C   UNL     1      28.403  43.669  52.093  1.00  0.00     0.325 C 
HETATM   10  N   UNL     1      27.749  44.169  53.184  1.00  0.00    -0.305 N 
HETATM   11  O   UNL     1      29.620  43.567  51.967  1.00  0.00    -0.247 OA
HETATM   12  H   UNL     1      26.821  43.798  53.323  1.00  0.00     0.171 HD
HETATM   13  H   UNL     1      28.139  42.514  50.507  1.00  0.00     0.170 HD
BRANCH  10  14
HETATM   14  C   UNL     1      28.341  44.782  54.274  1.00  0.00     0.086 A 
HETATM   15  C   UNL     1      29.388  44.381  55.155  1.00  0.00     0.079 A 
HETATM   16  C   UNL     1      30.230  43.158  55.149  1.00  0.00     0.075 C 
HETATM   17  N   UNL     1      29.633  45.321  56.082  1.00  0.00    -0.177 NA
HETATM   18  N   UNL     1      28.767  46.297  55.798  1.00  0.00    -0.280 N 
HETATM   19  H   UNL     1      28.766  47.118  56.393  1.00  0.00     0.189 HD
HETATM   20  C   UNL     1      27.981  46.043  54.709  1.00  0.00     0.052 A 
HETATM   21  C   UNL     1      26.973  47.026  54.250  1.00  0.00     0.072 C 
ENDBRANCH  10  14
ENDBRANCH   4   8
BRANCH   1  22
HETATM   22  N   UNL     1      24.089  46.205  49.546  1.00  0.00    -0.327 N 
HETATM   23  C   UNL     1      24.251  47.428  50.175  1.00  0.00     0.222 C 
HETATM   24  O   UNL     1      24.784  47.627  51.260  1.00  0.00    -0.273 OA
HETATM   25  H   UNL     1      23.330  46.168  48.877  1.00  0.00     0.169 HD
BRANCH  23  26
HETATM   26  C   UNL     1      23.606  48.572  49.412  1.00  0.00     0.103 C 
BRANCH  26  27
HETATM   27  C   UNL     1      24.634  49.393  48.638  1.00  0.00     0.005 C 
HETATM   28  C   UNL     1      23.999  50.521  47.836  1.00  0.00     0.005 C 
ENDBRANCH  26  27
ENDBRANCH  23  26
ENDBRANCH   1  22
TORSDOF 5
ENDMDL
MODEL 8
REMARK VINA RESULT:      -7.2     12.242     15.347
REMARK  5 active torsions:
REMARK  status: ('A' for Active; 'I' for Inactive)
REMARK    1  A    between atoms: C_2  and  C_3 
REMARK    2  A    between atoms: C_3  and  C_4 
REMARK       I    between atoms: C_4  and  N_5 
REMARK    3  A    between atoms: N_5  and  C_6 
REMARK    4  A    between atoms: C_9  and  N_10 
REMARK       I    between atoms: N_10  and  C_11 
REMARK       I    between atoms: C_11  and  N_12 
REMARK    5  A    between atoms: N_12  and  C_13 
ROOT
HETATM    1  C   UNL     1      34.721  51.625  43.533  1.00  0.00     0.043 C 
HETATM    2  C   UNL     1      34.242  50.906  42.415  1.00  0.00    -0.008 C 
HETATM    3  C   UNL     1      35.105  50.623  41.206  1.00  0.00     0.053 C 
HETATM    4  C   UNL     1      32.874  50.528  42.371  1.00  0.00     0.044 C 
HETATM    5  C   UNL     1      31.994  50.959  43.370  1.00  0.00     0.030 C 
HETATM    6  C   UNL     1      32.452  51.761  44.409  1.00  0.00     0.005 C 
HETATM    7  C   UNL     1      33.804  52.088  44.491  1.00  0.00     0.030 C 
ENDROOT
BRANCH   4   8
HETATM    8  N   UNL     1      32.453  49.640  41.356  1.00  0.00    -0.308 N 
HETATM    9  C   UNL     1      31.297  49.571  40.625  1.00  0.00     0.325 C 
HETATM   10  N   UNL     1      30.629  50.752  40.459  1.00  0.00    -0.305 N 
HETATM   11  O   UNL     1      31.017  48.504  40.086  1.00  0.00    -0.247 OA
HETATM   12  H   UNL     1      31.195  51.577  40.591  1.00  0.00     0.171 HD
HETATM   13  H   UNL     1      33.041  48.831  41.196  1.00  0.00     0.170 HD
BRANCH  10  14
HETATM   14  C   UNL     1      29.438  50.921  39.774  1.00  0.00     0.086 A 
HETATM   15  C   UNL     1      29.136  51.421  38.472  1.00  0.00     0.079 A 
HETATM   16  C   UNL     1      30.041  51.890  37.392  1.00  0.00     0.075 C 
HETATM   17  N   UNL     1      27.816  51.392  38.232  1.00  0.00    -0.177 NA
HETATM   18  N   UNL     1      27.289  50.885  39.350  1.00  0.00    -0.280 N 
HETATM   19  H   UNL     1      26.282  50.785  39.396  1.00  0.00     0.189 HD
HETATM   20  C   UNL     1      28.214  50.559  40.303  1.00  0.00     0.052 A 
HETATM   21  C   UNL     1      27.801  49.975  41.599  1.00  0.00     0.072 C 
ENDBRANCH  10  14
ENDBRANCH   4   8
BRANCH   1  22
HETATM   22  N   UNL     1      36.074  51.958  43.789  1.00  0.00    -0.327 N 
HETATM   23  C   UNL     1      36.808  52.967  43.189  1.00  0.00     0.222 C 
HETATM   24  O   UNL     1      36.436  53.700  42.280  1.00  0.00    -0.273 OA
HETATM   25  H   UNL     1      36.627  51.235  44.233  1.00  0.00     0.169 HD
BRANCH  23  26
HETATM   26  C   UNL     1      38.229  53.055  43.717  1.00  0.00     0.103 C 
BRANCH  26  27
HETATM   27  C   UNL     1      38.269  53.114  45.241  1.00  0.00     0.005 C 
HETATM   28  C   UNL     1      37.881  54.483  45.785  1.00  0.00     0.005 C 
ENDBRANCH  26  27
ENDBRANCH  23  26
ENDBRANCH   1  22
TORSDOF 5
ENDMDL
MODEL 9
REMARK VINA RESULT:      -7.1     12.142     15.252
REMARK  5 active torsions:
REMARK  status: ('A' for Active; 'I' for Inactive)
REMARK    1  A    between atoms: C_2  and  C_3 
REMARK    2  A    between atoms: C_3  and  C_4 
REMARK       I    between atoms: C_4  and  N_5 
REMARK    3  A    between atoms: N_5  and  C_6 
REMARK    4  A    between atoms: C_9  and  N_10 
REMARK       I    between atoms: N_10  and  C_11 
REMARK       I    between atoms: C_11  and  N_12 
REMARK    5  A    between atoms: N_12  and  C_13 
ROOT
HETATM    1  C   UNL     1      34.691  51.543  42.970  1.00  0.00     0.043 C 
HETATM    2  C   UNL     1      33.355  51.171  43.237  1.00  0.00    -0.008 C 
HETATM    3  C   UNL     1      32.579  51.729  44.408  1.00  0.00     0.053 C 
HETATM    4  C   UNL     1      32.748  50.158  42.447  1.00  0.00     0.044 C 
HETATM    5  C   UNL     1      33.502  49.466  41.494  1.00  0.00     0.030 C 
HETATM    6  C   UNL     1      34.849  49.763  41.315  1.00  0.00     0.005 C 
HETATM    7  C   UNL     1      35.436  50.793  42.045  1.00  0.00     0.030 C 
ENDROOT
BRANCH   4   8
HETATM    8  N   UNL     1      31.360  49.938  42.584  1.00  0.00    -0.308 N 
HETATM    9  C   UNL     1      30.290  50.374  41.849  1.00  0.00     0.325 C 
HETATM   10  N   UNL     1      30.547  50.656  40.536  1.00  0.00    -0.305 N 
HETATM   11  O   UNL     1      29.182  50.365  42.380  1.00  0.00    -0.247 OA
HETATM   12  H   UNL     1      31.376  50.214  40.167  1.00  0.00     0.171 HD
HETATM   13  H   UNL     1      31.061  49.473  43.433  1.00  0.00     0.170 HD
BRANCH  10  14
HETATM   14  C   UNL     1      29.628  51.121  39.612  1.00  0.00     0.086 A 
HETATM   15  C   UNL     1      28.777  50.457  38.680  1.00  0.00     0.079 A 
HETATM   16  C   UNL     1      28.569  49.007  38.435  1.00  0.00     0.075 C 
HETATM   17  N   UNL     1      28.041  51.335  37.980  1.00  0.00    -0.177 NA
HETATM   18  N   UNL     1      28.412  52.527  38.455  1.00  0.00    -0.280 N 
HETATM   19  H   UNL     1      27.984  53.352  38.049  1.00  0.00     0.189 HD
HETATM   20  C   UNL     1      29.343  52.464  39.452  1.00  0.00     0.052 A 
HETATM   21  C   UNL     1      29.856  53.694  40.097  1.00  0.00     0.072 C 
ENDBRANCH  10  14
ENDBRANCH   4   8
BRANCH   1  22
HETATM   22  N   UNL     1      35.391  52.617  43.573  1.00  0.00    -0.327 N 
HETATM   23  C   UNL     1      36.667  52.579  44.109  1.00  0.00     0.222 C 
HETATM   24  O   UNL     1      37.384  51.592  44.219  1.00  0.00    -0.273 OA
HETATM   25  H   UNL     1      34.819  53.391  43.889  1.00  0.00     0.169 HD
BRANCH  23  26
HETATM   26  C   UNL     1      37.114  53.922  44.659  1.00  0.00     0.103 C 
BRANCH  26  27
HETATM   27  C   UNL     1      38.433  53.817  45.419  1.00  0.00     0.005 C 
HETATM   28  C   UNL     1      38.288  54.163  46.895  1.00  0.00     0.005 C 
ENDBRANCH  26  27
ENDBRANCH  23  26
ENDBRANCH   1  22
TORSDOF 5
ENDMDL
MODEL 10
REMARK VINA RESULT:      -7.0     12.373     15.335
REMARK  5 active torsions:
REMARK  status: ('A' for Active; 'I' for Inactive)
REMARK    1  A    between atoms: C_2  and  C_3 
REMARK    2  A    between atoms: C_3  and  C_4 
REMARK       I    between atoms: C_4  and  N_5 
REMARK    3  A    between atoms: N_5  and  C_6 
REMARK    4  A    between atoms: C_9  and  N_10 
REMARK       I    between atoms: N_10  and  C_11 
REMARK       I    between atoms: C_11  and  N_12 
REMARK    5  A    between atoms: N_12  and  C_13 
ROOT
HETATM    1  C   UNL     1      34.659  51.462  43.044  1.00  0.00     0.043 C 
HETATM    2  C   UNL     1      33.278  51.610  43.302  1.00  0.00    -0.008 C 
HETATM    3  C   UNL     1      32.748  52.018  44.657  1.00  0.00     0.053 C 
HETATM    4  C   UNL     1      32.345  51.260  42.290  1.00  0.00     0.044 C 
HETATM    5  C   UNL     1      32.787  50.675  41.099  1.00  0.00     0.030 C 
HETATM    6  C   UNL     1      34.142  50.430  40.899  1.00  0.00     0.005 C 
HETATM    7  C   UNL     1      35.068  50.822  41.862  1.00  0.00     0.030 C 
ENDROOT
BRANCH   4   8
HETATM    8  N   UNL     1      30.987  51.602  42.479  1.00  0.00    -0.308 N 
HETATM    9  C   UNL     1      29.913  51.577  41.629  1.00  0.00     0.325 C 
HETATM   10  N   UNL     1      29.984  50.670  40.609  1.00  0.00    -0.305 N 
HETATM   11  O   UNL     1      28.938  52.269  41.911  1.00  0.00    -0.247 OA
HETATM   12  H   UNL     1      30.628  49.910  40.767  1.00  0.00     0.171 HD
HETATM   13  H   UNL     1      30.756  52.057  43.354  1.00  0.00     0.170 HD
BRANCH  10  14
HETATM   14  C   UNL     1      29.028  50.478  39.627  1.00  0.00     0.086 A 
HETATM   15  C   UNL     1      28.494  51.335  38.619  1.00  0.00     0.079 A 
HETATM   16  C   UNL     1      28.842  52.735  38.269  1.00  0.00     0.075 C 
HETATM   17  N   UNL     1      27.571  50.701  37.878  1.00  0.00    -0.177 NA
HETATM   18  N   UNL     1      27.521  49.471  38.397  1.00  0.00    -0.280 N 
HETATM   19  H   UNL     1      26.865  48.813  37.991  1.00  0.00     0.189 HD
HETATM   20  C   UNL     1      28.389  49.268  39.433  1.00  0.00     0.052 A 
HETATM   21  C   UNL     1      28.468  47.957  40.116  1.00  0.00     0.072 C 
ENDBRANCH  10  14
ENDBRANCH   4   8
BRANCH   1  22
HETATM   22  N   UNL     1      35.712  51.886  43.891  1.00  0.00    -0.327 N 
HETATM   23  C   UNL     1      36.574  52.948  43.675  1.00  0.00     0.222 C 
HETATM   24  O   UNL     1      36.621  53.660  42.679  1.00  0.00    -0.273 OA
HETATM   25  H   UNL     1      36.041  51.200  44.560  1.00  0.00     0.169 HD
BRANCH  23  26
HETATM   26  C   UNL     1      37.577  53.130  44.801  1.00  0.00     0.103 C 
BRANCH  26  27
HETATM   27  C   UNL     1      37.358  54.438  45.554  1.00  0.00     0.005 C 
HETATM   28  C   UNL     1      38.462  55.455  45.295  1.00  0.00     0.005 C 
ENDBRANCH  26  27
ENDBRANCH  23  26
ENDBRANCH   1  22
TORSDOF 5
ENDMDL
