MODEL 1
REMARK VINA RESULT:      -8.7      0.000      0.000
REMARK  3 active torsions:
REMARK  status: ('A' for Active; 'I' for Inactive)
REMARK    1  A    between atoms: C_4  and  N_5 
REMARK       I    between atoms: N_5  and  C_6 
REMARK    2  A    between atoms: C_6  and  C_7 
REMARK    3  A    between atoms: C_7  and  C_8 
ROOT
HETATM    1  C   UNL     1      26.455  45.124  52.799  1.00  0.00     0.286 C 
HETATM    2  N   UNL     1      26.330  43.633  53.091  1.00  0.00    -0.056 N 
HETATM    3  H   UNL     1      25.643  43.568  53.874  1.00  0.00     0.278 HD
HETATM    4  H   UNL     1      25.901  43.135  52.302  1.00  0.00     0.278 HD
HETATM    5  C   UNL     1      27.598  42.963  53.541  1.00  0.00     0.209 C 
HETATM    6  C   UNL     1      28.210  43.750  54.726  1.00  0.00     0.115 C 
HETATM    7  N   UNL     1      28.285  45.189  54.480  1.00  0.00    -0.353 N 
HETATM    8  C   UNL     1      27.284  45.889  53.852  1.00  0.00     0.249 C 
HETATM    9  O   UNL     1      27.161  47.092  54.053  1.00  0.00    -0.271 OA
HETATM   10  C   UNL     1      28.553  42.804  52.356  1.00  0.00     0.035 C 
HETATM   11  C   UNL     1      29.889  42.219  52.801  1.00  0.00     0.002 C 
HETATM   12  C   UNL     1      30.521  43.057  53.908  1.00  0.00     0.002 C 
HETATM   13  C   UNL     1      29.586  43.193  55.110  1.00  0.00     0.027 C 
HETATM   14  H   UNL     1      28.764  45.759  55.177  1.00  0.00     0.163 HD
ENDROOT
BRANCH   1  15
HETATM   15  C   UNL     1      25.088  45.790  52.575  1.00  0.00     0.146 C 
BRANCH  15  16
HETATM   16  C   UNL     1      24.344  45.175  51.418  1.00  0.00     0.224 C 
HETATM   17  N   UNL     1      24.183  45.811  50.228  1.00  0.00    -0.327 N 
HETATM   18  H   UNL     1      23.739  45.203  49.545  1.00  0.00     0.169 HD
HETATM   19  O   UNL     1      23.969  43.998  51.515  1.00  0.00    -0.273 OA
BRANCH  17  20
HETATM   20  C   UNL     1      24.505  47.094  49.737  1.00  0.00     0.035 A 
HETATM   21  C   UNL     1      23.599  48.047  49.274  1.00  0.00     0.036 A 
HETATM   22  C   UNL     1      24.040  49.286  48.775  1.00  0.00    -0.059 A 
HETATM   23  C   UNL     1      23.053  50.263  48.202  1.00  0.00     0.048 C 
HETATM   24  C   UNL     1      25.407  49.572  48.744  1.00  0.00     0.013 A 
HETATM   25  C   UNL     1      26.333  48.644  49.222  1.00  0.00    -0.059 A 
HETATM   26  C   UNL     1      25.875  47.406  49.694  1.00  0.00     0.036 A 
HETATM   27  C   UNL     1      27.804  48.939  49.166  1.00  0.00     0.048 C 
ENDBRANCH  17  20
ENDBRANCH  15  16
ENDBRANCH   1  15
TORSDOF 3
ENDMDL
MODEL 2
REMARK VINA RESULT:      -8.6      2.285      6.852
REMARK  3 active torsions:
REMARK  status: ('A' for Active; 'I' for Inactive)
REMARK    1  A    between atoms: C_4  and  N_5 
REMARK       I    between atoms: N_5  and  C_6 
REMARK    2  A    between atoms: C_6  and  C_7 
REMARK    3  A    between atoms: C_7  and  C_8 
ROOT
HETATM    1  C   UNL     1      25.485  45.993  51.500  1.00  0.00     0.286 C 
HETATM    2  N   UNL     1      26.116  44.756  50.872  1.00  0.00    -0.056 N 
HETATM    3  H   UNL     1      26.924  45.115  50.319  1.00  0.00     0.278 HD
HETATM    4  H   UNL     1      26.519  44.139  51.587  1.00  0.00     0.278 HD
HETATM    5  C   UNL     1      25.223  43.994  49.931  1.00  0.00     0.209 C 
HETATM    6  C   UNL     1      24.635  44.963  48.874  1.00  0.00     0.115 C 
HETATM    7  N   UNL     1      24.077  46.180  49.461  1.00  0.00    -0.353 N 
HETATM    8  C   UNL     1      24.676  46.846  50.502  1.00  0.00     0.249 C 
HETATM    9  O   UNL     1      24.460  48.041  50.667  1.00  0.00    -0.271 OA
HETATM   10  C   UNL     1      24.157  43.234  50.722  1.00  0.00     0.035 C 
HETATM   11  C   UNL     1      23.175  42.533  49.789  1.00  0.00     0.002 C 
HETATM   12  C   UNL     1      22.538  43.518  48.813  1.00  0.00     0.002 C 
HETATM   13  C   UNL     1      23.596  44.259  47.995  1.00  0.00     0.027 C 
HETATM   14  H   UNL     1      23.587  46.819  48.837  1.00  0.00     0.163 HD
ENDROOT
BRANCH   1  15
HETATM   15  C   UNL     1      26.514  46.847  52.260  1.00  0.00     0.146 C 
BRANCH  15  16
HETATM   16  C   UNL     1      26.200  46.934  53.730  1.00  0.00     0.224 C 
HETATM   17  N   UNL     1      26.773  46.119  54.653  1.00  0.00    -0.327 N 
HETATM   18  H   UNL     1      26.509  46.390  55.596  1.00  0.00     0.169 HD
HETATM   19  O   UNL     1      25.482  47.863  54.127  1.00  0.00    -0.273 OA
BRANCH  17  20
HETATM   20  C   UNL     1      27.649  45.014  54.593  1.00  0.00     0.035 A 
HETATM   21  C   UNL     1      27.391  43.794  53.969  1.00  0.00     0.036 A 
HETATM   22  C   UNL     1      28.331  42.749  54.002  1.00  0.00    -0.059 A 
HETATM   23  C   UNL     1      27.996  41.414  53.398  1.00  0.00     0.048 C 
HETATM   24  C   UNL     1      29.546  42.932  54.666  1.00  0.00     0.013 A 
HETATM   25  C   UNL     1      29.839  44.151  55.279  1.00  0.00    -0.059 A 
HETATM   26  C   UNL     1      28.879  45.173  55.255  1.00  0.00     0.036 A 
HETATM   27  C   UNL     1      31.133  44.341  56.015  1.00  0.00     0.048 C 
ENDBRANCH  17  20
ENDBRANCH  15  16
ENDBRANCH   1  15
TORSDOF 3
ENDMDL
MODEL 3
REMARK VINA RESULT:      -8.5      3.475      8.825
REMARK  3 active torsions:
REMARK  status: ('A' for Active; 'I' for Inactive)
REMARK    1  A    between atoms: C_4  and  N_5 
REMARK       I    between atoms: N_5  and  C_6 
REMARK    2  A    between atoms: C_6  and  C_7 
REMARK    3  A    between atoms: C_7  and  C_8 
ROOT
HETATM    1  C   UNL     1      21.908  48.812  48.919  1.00  0.00     0.286 C 
HETATM    2  N   UNL     1      21.933  50.023  49.845  1.00  0.00    -0.056 N 
HETATM    3  H   UNL     1      22.076  49.629  50.801  1.00  0.00     0.278 HD
HETATM    4  H   UNL     1      22.753  50.614  49.662  1.00  0.00     0.278 HD
HETATM    5  C   UNL     1      20.666  50.832  49.871  1.00  0.00     0.209 C 
HETATM    6  C   UNL     1      19.460  49.900  50.145  1.00  0.00     0.115 C 
HETATM    7  N   UNL     1      19.454  48.707  49.300  1.00  0.00    -0.353 N 
HETATM    8  C   UNL     1      20.595  48.006  48.997  1.00  0.00     0.249 C 
HETATM    9  O   UNL     1      20.520  46.821  48.691  1.00  0.00    -0.271 OA
HETATM   10  C   UNL     1      20.535  51.637  48.576  1.00  0.00     0.035 C 
HETATM   11  C   UNL     1      19.209  52.390  48.529  1.00  0.00     0.002 C 
HETATM   12  C   UNL     1      18.026  51.443  48.712  1.00  0.00     0.002 C 
HETATM   13  C   UNL     1      18.134  50.660  50.020  1.00  0.00     0.027 C 
HETATM   14  H   UNL     1      18.640  48.096  49.358  1.00  0.00     0.163 HD
ENDROOT
BRANCH   1  15
HETATM   15  C   UNL     1      23.133  47.905  49.115  1.00  0.00     0.146 C 
BRANCH  15  16
HETATM   16  C   UNL     1      24.424  48.678  49.053  1.00  0.00     0.224 C 
HETATM   17  N   UNL     1      25.587  48.208  49.573  1.00  0.00    -0.327 N 
HETATM   18  H   UNL     1      26.364  48.826  49.352  1.00  0.00     0.169 HD
HETATM   19  O   UNL     1      24.452  49.730  48.397  1.00  0.00    -0.273 OA
BRANCH  17  20
HETATM   20  C   UNL     1      25.950  47.068  50.322  1.00  0.00     0.035 A 
HETATM   21  C   UNL     1      26.365  45.843  49.803  1.00  0.00     0.036 A 
HETATM   22  C   UNL     1      26.673  44.762  50.649  1.00  0.00    -0.059 A 
HETATM   23  C   UNL     1      27.033  43.425  50.065  1.00  0.00     0.048 C 
HETATM   24  C   UNL     1      26.565  44.916  52.033  1.00  0.00     0.013 A 
HETATM   25  C   UNL     1      26.173  46.139  52.579  1.00  0.00    -0.059 A 
HETATM   26  C   UNL     1      25.850  47.197  51.717  1.00  0.00     0.036 A 
HETATM   27  C   UNL     1      26.033  46.298  54.065  1.00  0.00     0.048 C 
ENDBRANCH  17  20
ENDBRANCH  15  16
ENDBRANCH   1  15
TORSDOF 3
ENDMDL
MODEL 4
REMARK VINA RESULT:      -8.5      2.489      7.033
REMARK  3 active torsions:
REMARK  status: ('A' for Active; 'I' for Inactive)
REMARK    1  A    between atoms: C_4  and  N_5 
REMARK       I    between atoms: N_5  and  C_6 
REMARK    2  A    between atoms: C_6  and  C_7 
REMARK    3  A    between atoms: C_7  and  C_8 
ROOT
HETATM    1  C   UNL     1      26.718  43.097  52.797  1.00  0.00     0.286 C 
HETATM    2  N   UNL     1      27.558  43.746  51.702  1.00  0.00    -0.056 N 
HETATM    3  H   UNL     1      28.356  44.194  52.204  1.00  0.00     0.278 HD
HETATM    4  H   UNL     1      27.977  43.039  51.087  1.00  0.00     0.278 HD
HETATM    5  C   UNL     1      26.857  44.817  50.913  1.00  0.00     0.209 C 
HETATM    6  C   UNL     1      26.238  45.855  51.880  1.00  0.00     0.115 C 
HETATM    7  N   UNL     1      25.476  45.243  52.967  1.00  0.00    -0.353 N 
HETATM    8  C   UNL     1      25.891  44.108  53.618  1.00  0.00     0.249 C 
HETATM    9  O   UNL     1      25.505  43.883  54.760  1.00  0.00    -0.271 OA
HETATM   10  C   UNL     1      25.838  44.182  49.964  1.00  0.00     0.035 C 
HETATM   11  C   UNL     1      25.040  45.250  49.221  1.00  0.00     0.002 C 
HETATM   12  C   UNL     1      24.364  46.213  50.193  1.00  0.00     0.002 C 
HETATM   13  C   UNL     1      25.380  46.875  51.123  1.00  0.00     0.027 C 
HETATM   14  H   UNL     1      24.961  45.866  53.587  1.00  0.00     0.163 HD
ENDROOT
BRANCH   1  15
HETATM   15  C   UNL     1      27.557  42.188  53.711  1.00  0.00     0.146 C 
BRANCH  15  16
HETATM   16  C   UNL     1      29.004  42.153  53.298  1.00  0.00     0.224 C 
HETATM   17  N   UNL     1      29.963  42.888  53.919  1.00  0.00    -0.327 N 
HETATM   18  H   UNL     1      30.888  42.662  53.563  1.00  0.00     0.169 HD
HETATM   19  O   UNL     1      29.354  41.334  52.436  1.00  0.00    -0.273 OA
BRANCH  17  20
HETATM   20  C   UNL     1      29.960  43.863  54.940  1.00  0.00     0.035 A 
HETATM   21  C   UNL     1      30.750  43.851  56.089  1.00  0.00     0.036 A 
HETATM   22  C   UNL     1      30.638  44.865  57.058  1.00  0.00    -0.059 A 
HETATM   23  C   UNL     1      31.436  44.786  58.328  1.00  0.00     0.048 C 
HETATM   24  C   UNL     1      29.723  45.904  56.869  1.00  0.00     0.013 A 
HETATM   25  C   UNL     1      28.936  45.951  55.717  1.00  0.00    -0.059 A 
HETATM   26  C   UNL     1      29.047  44.919  54.774  1.00  0.00     0.036 A 
HETATM   27  C   UNL     1      27.935  47.052  55.524  1.00  0.00     0.048 C 
ENDBRANCH  17  20
ENDBRANCH  15  16
ENDBRANCH   1  15
TORSDOF 3
ENDMDL
MODEL 5
REMARK VINA RESULT:      -8.4      2.674      7.107
REMARK  3 active torsions:
REMARK  status: ('A' for Active; 'I' for Inactive)
REMARK    1  A    between atoms: C_4  and  N_5 
REMARK       I    between atoms: N_5  and  C_6 
REMARK    2  A    between atoms: C_6  and  C_7 
REMARK    3  A    between atoms: C_7  and  C_8 
ROOT
HETATM    1  C   UNL     1      26.780  42.974  52.169  1.00  0.00     0.286 C 
HETATM    2  N   UNL     1      25.737  43.722  52.991  1.00  0.00    -0.056 N 
HETATM    3  H   UNL     1      25.056  42.992  53.293  1.00  0.00     0.278 HD
HETATM    4  H   UNL     1      26.144  44.097  53.856  1.00  0.00     0.278 HD
HETATM    5  C   UNL     1      24.972  44.777  52.241  1.00  0.00     0.209 C 
HETATM    6  C   UNL     1      24.381  44.167  50.945  1.00  0.00     0.115 C 
HETATM    7  N   UNL     1      25.359  43.400  50.175  1.00  0.00    -0.353 N 
HETATM    8  C   UNL     1      26.285  42.574  50.764  1.00  0.00     0.249 C 
HETATM    9  O   UNL     1      26.763  41.642  50.128  1.00  0.00    -0.271 OA
HETATM   10  C   UNL     1      25.867  45.993  51.991  1.00  0.00     0.035 C 
HETATM   11  C   UNL     1      25.149  47.039  51.144  1.00  0.00     0.002 C 
HETATM   12  C   UNL     1      24.651  46.442  49.831  1.00  0.00     0.002 C 
HETATM   13  C   UNL     1      23.729  45.246  50.072  1.00  0.00     0.027 C 
HETATM   14  H   UNL     1      25.067  43.050  49.264  1.00  0.00     0.163 HD
ENDROOT
BRANCH   1  15
HETATM   15  C   UNL     1      27.355  41.763  52.923  1.00  0.00     0.146 C 
BRANCH  15  16
HETATM   16  C   UNL     1      28.823  41.572  52.646  1.00  0.00     0.224 C 
HETATM   17  N   UNL     1      29.791  42.249  53.316  1.00  0.00    -0.327 N 
HETATM   18  H   UNL     1      30.717  41.918  53.057  1.00  0.00     0.169 HD
HETATM   19  O   UNL     1      29.164  40.675  51.861  1.00  0.00    -0.273 OA
BRANCH  17  20
HETATM   20  C   UNL     1      29.795  43.276  54.284  1.00  0.00     0.035 A 
HETATM   21  C   UNL     1      29.026  44.439  54.251  1.00  0.00     0.036 A 
HETATM   22  C   UNL     1      29.138  45.412  55.260  1.00  0.00    -0.059 A 
HETATM   23  C   UNL     1      28.363  46.696  55.159  1.00  0.00     0.048 C 
HETATM   24  C   UNL     1      30.030  45.214  56.316  1.00  0.00     0.013 A 
HETATM   25  C   UNL     1      30.796  44.049  56.384  1.00  0.00    -0.059 A 
HETATM   26  C   UNL     1      30.686  43.101  55.356  1.00  0.00     0.036 A 
HETATM   27  C   UNL     1      31.774  43.846  57.505  1.00  0.00     0.048 C 
ENDBRANCH  17  20
ENDBRANCH  15  16
ENDBRANCH   1  15
TORSDOF 3
ENDMDL
MODEL 6
REMARK VINA RESULT:      -8.4      1.835      7.427
REMARK  3 active torsions:
REMARK  status: ('A' for Active; 'I' for Inactive)
REMARK    1  A    between atoms: C_4  and  N_5 
REMARK       I    between atoms: N_5  and  C_6 
REMARK    2  A    between atoms: C_6  and  C_7 
REMARK    3  A    between atoms: C_7  and  C_8 
ROOT
HETATM    1  C   UNL     1      24.597  47.110  49.993  1.00  0.00     0.286 C 
HETATM    2  N   UNL     1      23.494  46.997  48.947  1.00  0.00    -0.056 N 
HETATM    3  H   UNL     1      23.945  46.534  48.128  1.00  0.00     0.278 HD
HETATM    4  H   UNL     1      22.753  46.357  49.255  1.00  0.00     0.278 HD
HETATM    5  C   UNL     1      22.928  48.308  48.475  1.00  0.00     0.209 C 
HETATM    6  C   UNL     1      24.081  49.240  48.025  1.00  0.00     0.115 C 
HETATM    7  N   UNL     1      25.170  49.313  48.996  1.00  0.00    -0.353 N 
HETATM    8  C   UNL     1      25.627  48.216  49.685  1.00  0.00     0.249 C 
HETATM    9  O   UNL     1      26.772  48.203  50.123  1.00  0.00    -0.271 OA
HETATM   10  C   UNL     1      22.040  48.915  49.563  1.00  0.00     0.035 C 
HETATM   11  C   UNL     1      21.533  50.294  49.153  1.00  0.00     0.002 C 
HETATM   12  C   UNL     1      22.687  51.227  48.798  1.00  0.00     0.002 C 
HETATM   13  C   UNL     1      23.560  50.642  47.688  1.00  0.00     0.027 C 
HETATM   14  H   UNL     1      25.918  49.981  48.812  1.00  0.00     0.163 HD
ENDROOT
BRANCH   1  15
HETATM   15  C   UNL     1      25.288  45.762  50.257  1.00  0.00     0.146 C 
BRANCH  15  16
HETATM   16  C   UNL     1      24.507  44.907  51.220  1.00  0.00     0.224 C 
HETATM   17  N   UNL     1      24.874  44.739  52.517  1.00  0.00    -0.327 N 
HETATM   18  H   UNL     1      24.176  44.207  53.030  1.00  0.00     0.169 HD
HETATM   19  O   UNL     1      23.424  44.434  50.846  1.00  0.00    -0.273 OA
BRANCH  17  20
HETATM   20  C   UNL     1      25.978  45.146  53.296  1.00  0.00     0.035 A 
HETATM   21  C   UNL     1      27.140  44.409  53.523  1.00  0.00     0.036 A 
HETATM   22  C   UNL     1      28.166  44.906  54.347  1.00  0.00    -0.059 A 
HETATM   23  C   UNL     1      29.370  44.058  54.647  1.00  0.00     0.048 C 
HETATM   24  C   UNL     1      28.023  46.158  54.949  1.00  0.00     0.013 A 
HETATM   25  C   UNL     1      26.880  46.925  54.722  1.00  0.00    -0.059 A 
HETATM   26  C   UNL     1      25.859  46.403  53.914  1.00  0.00     0.036 A 
HETATM   27  C   UNL     1      26.714  48.260  55.388  1.00  0.00     0.048 C 
ENDBRANCH  17  20
ENDBRANCH  15  16
ENDBRANCH   1  15
TORSDOF 3
ENDMDL
MODEL 7
REMARK VINA RESULT:      -8.2      2.811      7.404
REMARK  3 active torsions:
REMARK  status: ('A' for Active; 'I' for Inactive)
REMARK    1  A    between atoms: C_4  and  N_5 
REMARK       I    between atoms: N_5  and  C_6 
REMARK    2  A    between atoms: C_6  and  C_7 
REMARK    3  A    between atoms: C_7  and  C_8 
ROOT
HETATM    1  C   UNL     1      26.718  43.735  51.254  1.00  0.00     0.286 C 
HETATM    2  N   UNL     1      26.604  43.275  49.805  1.00  0.00    -0.056 N 
HETATM    3  H   UNL     1      27.287  43.864  49.280  1.00  0.00     0.278 HD
HETATM    4  H   UNL     1      26.929  42.307  49.696  1.00  0.00     0.278 HD
HETATM    5  C   UNL     1      25.252  43.476  49.178  1.00  0.00     0.209 C 
HETATM    6  C   UNL     1      24.803  44.946  49.371  1.00  0.00     0.115 C 
HETATM    7  N   UNL     1      24.959  45.416  50.747  1.00  0.00    -0.353 N 
HETATM    8  C   UNL     1      26.048  45.099  51.521  1.00  0.00     0.249 C 
HETATM    9  O   UNL     1      26.371  45.831  52.450  1.00  0.00    -0.271 OA
HETATM   10  C   UNL     1      24.260  42.455  49.738  1.00  0.00     0.035 C 
HETATM   11  C   UNL     1      22.855  42.698  49.196  1.00  0.00     0.002 C 
HETATM   12  C   UNL     1      22.393  44.126  49.474  1.00  0.00     0.002 C 
HETATM   13  C   UNL     1      23.363  45.153  48.888  1.00  0.00     0.027 C 
HETATM   14  H   UNL     1      24.595  46.342  50.969  1.00  0.00     0.163 HD
ENDROOT
BRANCH   1  15
HETATM   15  C   UNL     1      28.172  43.720  51.756  1.00  0.00     0.146 C 
BRANCH  15  16
HETATM   16  C   UNL     1      28.544  42.394  52.365  1.00  0.00     0.224 C 
HETATM   17  N   UNL     1      29.109  42.283  53.595  1.00  0.00    -0.327 N 
HETATM   18  H   UNL     1      29.201  41.309  53.870  1.00  0.00     0.169 HD
HETATM   19  O   UNL     1      28.214  41.357  51.771  1.00  0.00    -0.273 OA
BRANCH  17  20
HETATM   20  C   UNL     1      29.571  43.203  54.561  1.00  0.00     0.035 A 
HETATM   21  C   UNL     1      30.643  43.010  55.432  1.00  0.00     0.036 A 
HETATM   22  C   UNL     1      30.994  43.989  56.379  1.00  0.00    -0.059 A 
HETATM   23  C   UNL     1      32.097  43.724  57.365  1.00  0.00     0.048 C 
HETATM   24  C   UNL     1      30.261  45.176  56.450  1.00  0.00     0.013 A 
HETATM   25  C   UNL     1      29.198  45.403  55.575  1.00  0.00    -0.059 A 
HETATM   26  C   UNL     1      28.850  44.405  54.653  1.00  0.00     0.036 A 
HETATM   27  C   UNL     1      28.394  46.667  55.667  1.00  0.00     0.048 C 
ENDBRANCH  17  20
ENDBRANCH  15  16
ENDBRANCH   1  15
TORSDOF 3
ENDMDL
MODEL 8
REMARK VINA RESULT:      -8.2      2.126      7.235
REMARK  3 active torsions:
REMARK  status: ('A' for Active; 'I' for Inactive)
REMARK    1  A    between atoms: C_4  and  N_5 
REMARK       I    between atoms: N_5  and  C_6 
REMARK    2  A    between atoms: C_6  and  C_7 
REMARK    3  A    between atoms: C_7  and  C_8 
ROOT
HETATM    1  C   UNL     1      24.542  45.374  50.341  1.00  0.00     0.286 C 
HETATM    2  N   UNL     1      24.199  44.961  48.914  1.00  0.00    -0.056 N 
HETATM    3  H   UNL     1      25.022  45.254  48.343  1.00  0.00     0.278 HD
HETATM    4  H   UNL     1      24.148  43.939  48.825  1.00  0.00     0.278 HD
HETATM    5  C   UNL     1      22.981  45.625  48.334  1.00  0.00     0.209 C 
HETATM    6  C   UNL     1      23.101  47.161  48.495  1.00  0.00     0.115 C 
HETATM    7  N   UNL     1      23.483  47.567  49.846  1.00  0.00    -0.353 N 
HETATM    8  C   UNL     1      24.421  46.892  50.588  1.00  0.00     0.249 C 
HETATM    9  O   UNL     1      25.031  47.474  51.478  1.00  0.00    -0.271 OA
HETATM   10  C   UNL     1      21.717  45.041  48.967  1.00  0.00     0.035 C 
HETATM   11  C   UNL     1      20.469  45.766  48.473  1.00  0.00     0.002 C 
HETATM   12  C   UNL     1      20.566  47.268  48.720  1.00  0.00     0.002 C 
HETATM   13  C   UNL     1      21.810  47.865  48.062  1.00  0.00     0.027 C 
HETATM   14  H   UNL     1      23.488  48.566  50.052  1.00  0.00     0.163 HD
ENDROOT
BRANCH   1  15
HETATM   15  C   UNL     1      25.915  44.844  50.786  1.00  0.00     0.146 C 
BRANCH  15  16
HETATM   16  C   UNL     1      25.806  43.520  51.497  1.00  0.00     0.224 C 
HETATM   17  N   UNL     1      26.376  43.288  52.707  1.00  0.00    -0.327 N 
HETATM   18  H   UNL     1      26.115  42.373  53.066  1.00  0.00     0.169 HD
HETATM   19  O   UNL     1      25.067  42.650  51.014  1.00  0.00    -0.273 OA
BRANCH  17  20
HETATM   20  C   UNL     1      27.219  44.026  53.565  1.00  0.00     0.035 A 
HETATM   21  C   UNL     1      26.994  45.325  54.019  1.00  0.00     0.036 A 
HETATM   22  C   UNL     1      27.924  45.976  54.850  1.00  0.00    -0.059 A 
HETATM   23  C   UNL     1      27.703  47.405  55.256  1.00  0.00     0.048 C 
HETATM   24  C   UNL     1      29.092  45.312  55.232  1.00  0.00     0.013 A 
HETATM   25  C   UNL     1      29.331  44.003  54.809  1.00  0.00    -0.059 A 
HETATM   26  C   UNL     1      28.402  43.381  53.963  1.00  0.00     0.036 A 
HETATM   27  C   UNL     1      30.598  43.298  55.197  1.00  0.00     0.048 C 
ENDBRANCH  17  20
ENDBRANCH  15  16
ENDBRANCH   1  15
TORSDOF 3
ENDMDL
MODEL 9
REMARK VINA RESULT:      -8.1      4.257      6.793
REMARK  3 active torsions:
REMARK  status: ('A' for Active; 'I' for Inactive)
REMARK    1  A    between atoms: C_4  and  N_5 
REMARK       I    between atoms: N_5  and  C_6 
REMARK    2  A    between atoms: C_6  and  C_7 
REMARK    3  A    between atoms: C_7  and  C_8 
ROOT
HETATM    1  C   UNL     1      27.574  41.775  49.833  1.00  0.00     0.286 C 
HETATM    2  N   UNL     1      26.399  41.290  48.991  1.00  0.00    -0.056 N 
HETATM    3  H   UNL     1      25.582  41.292  49.639  1.00  0.00     0.278 HD
HETATM    4  H   UNL     1      26.169  41.964  48.251  1.00  0.00     0.278 HD
HETATM    5  C   UNL     1      26.541  39.898  48.441  1.00  0.00     0.209 C 
HETATM    6  C   UNL     1      26.892  38.919  49.590  1.00  0.00     0.115 C 
HETATM    7  N   UNL     1      27.981  39.399  50.438  1.00  0.00    -0.353 N 
HETATM    8  C   UNL     1      28.103  40.713  50.819  1.00  0.00     0.249 C 
HETATM    9  O   UNL     1      28.716  40.998  51.841  1.00  0.00    -0.271 OA
HETATM   10  C   UNL     1      27.559  39.889  47.299  1.00  0.00     0.035 C 
HETATM   11  C   UNL     1      27.800  38.472  46.788  1.00  0.00     0.002 C 
HETATM   12  C   UNL     1      28.231  37.541  47.918  1.00  0.00     0.002 C 
HETATM   13  C   UNL     1      27.202  37.519  49.049  1.00  0.00     0.027 C 
HETATM   14  H   UNL     1      28.330  38.765  51.156  1.00  0.00     0.163 HD
ENDROOT
BRANCH   1  15
HETATM   15  C   UNL     1      27.266  43.099  50.551  1.00  0.00     0.146 C 
BRANCH  15  16
HETATM   16  C   UNL     1      26.132  42.960  51.531  1.00  0.00     0.224 C 
HETATM   17  N   UNL     1      26.200  43.425  52.805  1.00  0.00    -0.327 N 
HETATM   18  H   UNL     1      25.308  43.323  53.282  1.00  0.00     0.169 HD
HETATM   19  O   UNL     1      25.051  42.510  51.124  1.00  0.00    -0.273 OA
BRANCH  17  20
HETATM   20  C   UNL     1      27.210  44.022  53.591  1.00  0.00     0.035 A 
HETATM   21  C   UNL     1      28.385  43.409  54.021  1.00  0.00     0.036 A 
HETATM   22  C   UNL     1      29.308  44.096  54.831  1.00  0.00    -0.059 A 
HETATM   23  C   UNL     1      30.526  43.388  55.355  1.00  0.00     0.048 C 
HETATM   24  C   UNL     1      29.048  45.415  55.209  1.00  0.00     0.013 A 
HETATM   25  C   UNL     1      27.889  46.059  54.773  1.00  0.00    -0.059 A 
HETATM   26  C   UNL     1      26.971  45.349  53.986  1.00  0.00     0.036 A 
HETATM   27  C   UNL     1      27.596  47.468  55.200  1.00  0.00     0.048 C 
ENDBRANCH  17  20
ENDBRANCH  15  16
ENDBRANCH   1  15
TORSDOF 3
ENDMDL
MODEL 10
REMARK VINA RESULT:      -8.1      1.854      6.816
REMARK  3 active torsions:
REMARK  status: ('A' for Active; 'I' for Inactive)
REMARK    1  A    between atoms: C_4  and  N_5 
REMARK       I    between atoms: N_5  and  C_6 
REMARK    2  A    between atoms: C_6  and  C_7 
REMARK    3  A    between atoms: C_7  and  C_8 
ROOT
HETATM    1  C   UNL     1      25.842  45.051  49.890  1.00  0.00     0.286 C 
HETATM    2  N   UNL     1      26.021  46.140  50.941  1.00  0.00    -0.056 N 
HETATM    3  H   UNL     1      25.386  45.867  51.723  1.00  0.00     0.278 HD
HETATM    4  H   UNL     1      26.969  46.125  51.334  1.00  0.00     0.278 HD
HETATM    5  C   UNL     1      25.630  47.523  50.499  1.00  0.00     0.209 C 
HETATM    6  C   UNL     1      24.197  47.495  49.910  1.00  0.00     0.115 C 
HETATM    7  N   UNL     1      23.997  46.420  48.940  1.00  0.00    -0.353 N 
HETATM    8  C   UNL     1      24.514  45.159  49.111  1.00  0.00     0.249 C 
HETATM    9  O   UNL     1      23.985  44.202  48.558  1.00  0.00    -0.271 OA
HETATM   10  C   UNL     1      26.678  48.076  49.530  1.00  0.00     0.035 C 
HETATM   11  C   UNL     1      26.258  49.438  48.985  1.00  0.00     0.002 C 
HETATM   12  C   UNL     1      24.881  49.372  48.330  1.00  0.00     0.002 C 
HETATM   13  C   UNL     1      23.822  48.852  49.302  1.00  0.00     0.027 C 
HETATM   14  H   UNL     1      23.109  46.399  48.441  1.00  0.00     0.163 HD
ENDROOT
BRANCH   1  15
HETATM   15  C   UNL     1      26.033  43.642  50.474  1.00  0.00     0.146 C 
BRANCH  15  16
HETATM   16  C   UNL     1      25.119  43.387  51.643  1.00  0.00     0.224 C 
HETATM   17  N   UNL     1      25.507  43.574  52.932  1.00  0.00    -0.327 N 
HETATM   18  H   UNL     1      24.728  43.441  53.572  1.00  0.00     0.169 HD
HETATM   19  O   UNL     1      23.933  43.110  51.417  1.00  0.00    -0.273 OA
BRANCH  17  20
HETATM   20  C   UNL     1      26.720  43.922  53.563  1.00  0.00     0.035 A 
HETATM   21  C   UNL     1      26.899  44.948  54.489  1.00  0.00     0.036 A 
HETATM   22  C   UNL     1      28.168  45.225  55.031  1.00  0.00    -0.059 A 
HETATM   23  C   UNL     1      28.353  46.390  55.961  1.00  0.00     0.048 C 
HETATM   24  C   UNL     1      29.268  44.459  54.638  1.00  0.00     0.013 A 
HETATM   25  C   UNL     1      29.112  43.412  53.729  1.00  0.00    -0.059 A 
HETATM   26  C   UNL     1      27.843  43.167  53.184  1.00  0.00     0.036 A 
HETATM   27  C   UNL     1      30.298  42.605  53.287  1.00  0.00     0.048 C 
ENDBRANCH  17  20
ENDBRANCH  15  16
ENDBRANCH   1  15
TORSDOF 3
ENDMDL
