MODEL 1
REMARK VINA RESULT:     -10.7      0.000      0.000
REMARK  9 active torsions:
REMARK  status: ('A' for Active; 'I' for Inactive)
REMARK    1  A    between atoms: C_7  and  C_8 
REMARK    2  A    between atoms: C_9  and  O_10 
REMARK    3  A    between atoms: C_13  and  N_14 
REMARK    4  A    between atoms: N_14  and  C_15 
REMARK    5  A    between atoms: C_15  and  N_16 
REMARK       I    between atoms: N_16  and  C_17 
REMARK    6  A    between atoms: C_17  and  C_18 
REMARK    7  A    between atoms: C_21  and  O_22 
REMARK    8  A    between atoms: O_22  and  C_23 
REMARK    9  A    between atoms: C_23  and  C_24 
ROOT
HETATM    1  N   UNL     1      24.620  47.437  50.550  1.00  0.00    -0.337 N 
HETATM    2  H   UNL     1      23.766  47.779  50.975  1.00  0.00     0.168 HD
ENDROOT
BRANCH   1   3
HETATM    3  C   UNL     1      25.142  46.238  51.085  1.00  0.00     0.035 A 
HETATM    4  C   UNL     1      24.590  45.029  50.656  1.00  0.00     0.032 A 
HETATM    5  C   UNL     1      25.029  43.822  51.201  1.00  0.00     0.040 A 
HETATM    6  C   UNL     1      25.998  43.820  52.202  1.00  0.00     0.080 A 
HETATM    7  C   UNL     1      26.550  45.019  52.675  1.00  0.00     0.052 A 
HETATM    8  C   UNL     1      26.109  46.224  52.099  1.00  0.00     0.048 A 
BRANCH   6   9
HETATM    9  O   UNL     1      26.352  42.590  52.696  1.00  0.00    -0.360 OA
HETATM   10  H   UNL     1      27.276  42.640  53.022  1.00  0.00     0.217 HD
ENDBRANCH   6   9
BRANCH   7  11
HETATM   11  C   UNL     1      27.524  45.016  53.764  1.00  0.00     0.183 A 
HETATM   12  N   UNL     1      27.666  45.909  54.733  1.00  0.00    -0.221 NA
HETATM   13  C   UNL     1      28.748  45.443  55.442  1.00  0.00     0.093 A 
HETATM   14  C   UNL     1      29.211  44.267  54.876  1.00  0.00     0.107 A 
HETATM   15  C   UNL     1      29.406  45.956  56.565  1.00  0.00     0.035 A 
HETATM   16  C   UNL     1      30.293  43.531  55.346  1.00  0.00     0.046 A 
HETATM   17  O   UNL     1      28.429  43.985  53.797  1.00  0.00    -0.289 OA
HETATM   18  C   UNL     1      30.942  44.043  56.482  1.00  0.00    -0.059 A 
HETATM   19  C   UNL     1      32.144  43.332  57.038  1.00  0.00     0.048 C 
HETATM   20  C   UNL     1      30.508  45.247  57.070  1.00  0.00     0.009 A 
ENDBRANCH   7  11
ENDBRANCH   1   3
BRANCH   1  21
HETATM   21  C   UNL     1      25.044  48.114  49.432  1.00  0.00     0.157 C 
HETATM   22  S   UNL     1      26.561  48.785  49.195  1.00  0.00    -0.047 SA
BRANCH  21  23
HETATM   23  N   UNL     1      24.137  48.224  48.399  1.00  0.00    -0.201 NA
HETATM   24  C   UNL     1      23.438  49.389  48.174  1.00  0.00     0.237 C 
HETATM   25  O   UNL     1      23.787  50.206  47.329  1.00  0.00    -0.274 OA
HETATM   26  H   UNL     1      24.637  47.953  47.557  1.00  0.00     0.139 HD
BRANCH  24  27
HETATM   27  C   UNL     1      22.180  49.582  48.930  1.00  0.00     0.026 A 
HETATM   28  C   UNL     1      22.048  50.708  49.748  1.00  0.00     0.019 A 
HETATM   29  C   UNL     1      20.831  50.970  50.387  1.00  0.00     0.038 A 
HETATM   30  C   UNL     1      19.737  50.127  50.182  1.00  0.00     0.068 A 
HETATM   31  C   UNL     1      19.885  48.986  49.387  1.00  0.00     0.038 A 
HETATM   32  C   UNL     1      21.103  48.707  48.760  1.00  0.00     0.019 A 
BRANCH  30  33
HETATM   33  O   UNL     1      18.482  50.312  50.695  1.00  0.00    -0.351 OA
BRANCH  33  34
HETATM   34  C   UNL     1      17.503  50.857  49.805  1.00  0.00     0.179 C 
BRANCH  34  35
HETATM   35  C   UNL     1      17.720  52.373  49.686  1.00  0.00     0.002 C 
HETATM   36  C   UNL     1      18.389  52.710  48.354  1.00  0.00     0.011 C 
HETATM   37  C   UNL     1      16.400  53.134  49.821  1.00  0.00     0.011 C 
ENDBRANCH  34  35
ENDBRANCH  33  34
ENDBRANCH  30  33
ENDBRANCH  24  27
ENDBRANCH  21  23
ENDBRANCH   1  21
TORSDOF 9
ENDMDL
MODEL 2
REMARK VINA RESULT:     -10.7      2.036     11.166
REMARK  9 active torsions:
REMARK  status: ('A' for Active; 'I' for Inactive)
REMARK    1  A    between atoms: C_7  and  C_8 
REMARK    2  A    between atoms: C_9  and  O_10 
REMARK    3  A    between atoms: C_13  and  N_14 
REMARK    4  A    between atoms: N_14  and  C_15 
REMARK    5  A    between atoms: C_15  and  N_16 
REMARK       I    between atoms: N_16  and  C_17 
REMARK    6  A    between atoms: C_17  and  C_18 
REMARK    7  A    between atoms: C_21  and  O_22 
REMARK    8  A    between atoms: O_22  and  C_23 
REMARK    9  A    between atoms: C_23  and  C_24 
ROOT
HETATM    1  N   UNL     1      26.369  46.273  51.010  1.00  0.00    -0.337 N 
HETATM    2  H   UNL     1      26.898  46.516  51.839  1.00  0.00     0.168 HD
ENDROOT
BRANCH   1   3
HETATM    3  C   UNL     1      26.130  47.325  50.097  1.00  0.00     0.035 A 
HETATM    4  C   UNL     1      27.232  47.964  49.524  1.00  0.00     0.032 A 
HETATM    5  C   UNL     1      27.048  49.048  48.665  1.00  0.00     0.040 A 
HETATM    6  C   UNL     1      25.763  49.519  48.401  1.00  0.00     0.080 A 
HETATM    7  C   UNL     1      24.639  48.918  48.984  1.00  0.00     0.052 A 
HETATM    8  C   UNL     1      24.844  47.814  49.832  1.00  0.00     0.048 A 
BRANCH   6   9
HETATM    9  O   UNL     1      25.679  50.603  47.564  1.00  0.00    -0.360 OA
HETATM   10  H   UNL     1      24.903  51.142  47.829  1.00  0.00     0.217 HD
ENDBRANCH   6   9
BRANCH   7  11
HETATM   11  C   UNL     1      23.299  49.451  48.750  1.00  0.00     0.183 A 
HETATM   12  N   UNL     1      22.598  49.429  47.626  1.00  0.00    -0.221 NA
HETATM   13  C   UNL     1      21.444  50.100  47.954  1.00  0.00     0.093 A 
HETATM   14  C   UNL     1      21.488  50.490  49.283  1.00  0.00     0.107 A 
HETATM   15  C   UNL     1      20.319  50.430  47.192  1.00  0.00     0.035 A 
HETATM   16  C   UNL     1      20.482  51.189  49.940  1.00  0.00     0.046 A 
HETATM   17  O   UNL     1      22.678  50.076  49.801  1.00  0.00    -0.289 OA
HETATM   18  C   UNL     1      19.348  51.506  49.173  1.00  0.00    -0.059 A 
HETATM   19  C   UNL     1      18.226  52.293  49.791  1.00  0.00     0.048 C 
HETATM   20  C   UNL     1      19.280  51.140  47.815  1.00  0.00     0.009 A 
ENDBRANCH   7  11
ENDBRANCH   1   3
BRANCH   1  21
HETATM   21  C   UNL     1      26.101  44.936  50.842  1.00  0.00     0.157 C 
HETATM   22  S   UNL     1      24.587  44.220  50.845  1.00  0.00    -0.047 SA
BRANCH  21  23
HETATM   23  N   UNL     1      27.187  44.114  50.623  1.00  0.00    -0.201 NA
HETATM   24  C   UNL     1      27.443  43.027  51.430  1.00  0.00     0.237 C 
HETATM   25  O   UNL     1      27.113  41.889  51.114  1.00  0.00    -0.274 OA
HETATM   26  H   UNL     1      27.123  43.818  49.654  1.00  0.00     0.139 HD
BRANCH  24  27
HETATM   27  C   UNL     1      28.224  43.267  52.664  1.00  0.00     0.026 A 
HETATM   28  C   UNL     1      29.499  42.705  52.777  1.00  0.00     0.019 A 
HETATM   29  C   UNL     1      30.300  43.005  53.885  1.00  0.00     0.038 A 
HETATM   30  C   UNL     1      29.841  43.892  54.861  1.00  0.00     0.068 A 
HETATM   31  C   UNL     1      28.552  44.426  54.756  1.00  0.00     0.038 A 
HETATM   32  C   UNL     1      27.739  44.116  53.662  1.00  0.00     0.019 A 
BRANCH  30  33
HETATM   33  O   UNL     1      30.552  44.315  55.951  1.00  0.00    -0.351 OA
BRANCH  33  34
HETATM   34  C   UNL     1      30.575  45.725  56.189  1.00  0.00     0.179 C 
BRANCH  34  35
HETATM   35  C   UNL     1      30.317  45.988  57.681  1.00  0.00     0.002 C 
HETATM   36  C   UNL     1      28.816  46.007  57.964  1.00  0.00     0.011 C 
HETATM   37  C   UNL     1      31.006  44.940  58.557  1.00  0.00     0.011 C 
ENDBRANCH  34  35
ENDBRANCH  33  34
ENDBRANCH  30  33
ENDBRANCH  24  27
ENDBRANCH  21  23
ENDBRANCH   1  21
TORSDOF 9
ENDMDL
MODEL 3
REMARK VINA RESULT:      -9.8      2.862     10.645
REMARK  9 active torsions:
REMARK  status: ('A' for Active; 'I' for Inactive)
REMARK    1  A    between atoms: C_7  and  C_8 
REMARK    2  A    between atoms: C_9  and  O_10 
REMARK    3  A    between atoms: C_13  and  N_14 
REMARK    4  A    between atoms: N_14  and  C_15 
REMARK    5  A    between atoms: C_15  and  N_16 
REMARK       I    between atoms: N_16  and  C_17 
REMARK    6  A    between atoms: C_17  and  C_18 
REMARK    7  A    between atoms: C_21  and  O_22 
REMARK    8  A    between atoms: O_22  and  C_23 
REMARK    9  A    between atoms: C_23  and  C_24 
ROOT
HETATM    1  N   UNL     1      26.626  43.306  49.276  1.00  0.00    -0.337 N 
HETATM    2  H   UNL     1      26.607  43.397  48.267  1.00  0.00     0.168 HD
ENDROOT
BRANCH   1   3
HETATM    3  C   UNL     1      26.279  44.464  50.009  1.00  0.00     0.035 A 
HETATM    4  C   UNL     1      26.653  44.528  51.353  1.00  0.00     0.032 A 
HETATM    5  C   UNL     1      26.279  45.622  52.135  1.00  0.00     0.040 A 
HETATM    6  C   UNL     1      25.502  46.640  51.585  1.00  0.00     0.080 A 
HETATM    7  C   UNL     1      25.086  46.589  50.247  1.00  0.00     0.052 A 
HETATM    8  C   UNL     1      25.490  45.488  49.470  1.00  0.00     0.048 A 
BRANCH   6   9
HETATM    9  O   UNL     1      25.162  47.664  52.434  1.00  0.00    -0.360 OA
HETATM   10  H   UNL     1      25.974  47.968  52.893  1.00  0.00     0.217 HD
ENDBRANCH   6   9
BRANCH   7  11
HETATM   11  C   UNL     1      24.225  47.629  49.691  1.00  0.00     0.183 A 
HETATM   12  N   UNL     1      24.428  48.939  49.684  1.00  0.00    -0.221 NA
HETATM   13  C   UNL     1      23.295  49.436  49.084  1.00  0.00     0.093 A 
HETATM   14  C   UNL     1      22.451  48.394  48.735  1.00  0.00     0.107 A 
HETATM   15  C   UNL     1      22.898  50.748  48.805  1.00  0.00     0.035 A 
HETATM   16  C   UNL     1      21.220  48.545  48.109  1.00  0.00     0.046 A 
HETATM   17  O   UNL     1      23.042  47.229  49.122  1.00  0.00    -0.289 OA
HETATM   18  C   UNL     1      20.831  49.864  47.818  1.00  0.00    -0.059 A 
HETATM   19  C   UNL     1      19.498  50.124  47.175  1.00  0.00     0.048 C 
HETATM   20  C   UNL     1      21.657  50.947  48.177  1.00  0.00     0.009 A 
ENDBRANCH   7  11
ENDBRANCH   1   3
BRANCH   1  21
HETATM   21  C   UNL     1      26.840  42.038  49.758  1.00  0.00     0.157 C 
HETATM   22  S   UNL     1      25.685  40.837  49.935  1.00  0.00    -0.047 SA
BRANCH  21  23
HETATM   23  N   UNL     1      28.137  41.721  50.102  1.00  0.00    -0.201 NA
HETATM   24  C   UNL     1      28.433  41.068  51.278  1.00  0.00     0.237 C 
HETATM   25  O   UNL     1      28.624  39.857  51.321  1.00  0.00    -0.274 OA
HETATM   26  H   UNL     1      28.517  41.204  49.315  1.00  0.00     0.139 HD
BRANCH  24  27
HETATM   27  C   UNL     1      28.608  41.899  52.490  1.00  0.00     0.026 A 
HETATM   28  C   UNL     1      29.804  42.601  52.662  1.00  0.00     0.019 A 
HETATM   29  C   UNL     1      29.952  43.477  53.743  1.00  0.00     0.038 A 
HETATM   30  C   UNL     1      28.894  43.677  54.632  1.00  0.00     0.068 A 
HETATM   31  C   UNL     1      27.712  42.947  54.472  1.00  0.00     0.038 A 
HETATM   32  C   UNL     1      27.563  42.056  53.405  1.00  0.00     0.019 A 
BRANCH  30  33
HETATM   33  O   UNL     1      28.892  44.552  55.684  1.00  0.00    -0.351 OA
BRANCH  33  34
HETATM   34  C   UNL     1      29.989  45.467  55.755  1.00  0.00     0.179 C 
BRANCH  34  35
HETATM   35  C   UNL     1      30.332  45.729  57.230  1.00  0.00     0.002 C 
HETATM   36  C   UNL     1      29.065  46.058  58.018  1.00  0.00     0.011 C 
HETATM   37  C   UNL     1      31.046  44.529  57.855  1.00  0.00     0.011 C 
ENDBRANCH  34  35
ENDBRANCH  33  34
ENDBRANCH  30  33
ENDBRANCH  24  27
ENDBRANCH  21  23
ENDBRANCH   1  21
TORSDOF 9
ENDMDL
MODEL 4
REMARK VINA RESULT:      -9.6      1.530      1.858
REMARK  9 active torsions:
REMARK  status: ('A' for Active; 'I' for Inactive)
REMARK    1  A    between atoms: C_7  and  C_8 
REMARK    2  A    between atoms: C_9  and  O_10 
REMARK    3  A    between atoms: C_13  and  N_14 
REMARK    4  A    between atoms: N_14  and  C_15 
REMARK    5  A    between atoms: C_15  and  N_16 
REMARK       I    between atoms: N_16  and  C_17 
REMARK    6  A    between atoms: C_17  and  C_18 
REMARK    7  A    between atoms: C_21  and  O_22 
REMARK    8  A    between atoms: O_22  and  C_23 
REMARK    9  A    between atoms: C_23  and  C_24 
ROOT
HETATM    1  N   UNL     1      23.949  47.285  50.218  1.00  0.00    -0.337 N 
HETATM    2  H   UNL     1      23.927  48.067  50.862  1.00  0.00     0.168 HD
ENDROOT
BRANCH   1   3
HETATM    3  C   UNL     1      24.587  46.114  50.686  1.00  0.00     0.035 A 
HETATM    4  C   UNL     1      24.146  44.883  50.196  1.00  0.00     0.032 A 
HETATM    5  C   UNL     1      24.702  43.695  50.674  1.00  0.00     0.040 A 
HETATM    6  C   UNL     1      25.678  43.732  51.668  1.00  0.00     0.080 A 
HETATM    7  C   UNL     1      26.121  44.951  52.200  1.00  0.00     0.052 A 
HETATM    8  C   UNL     1      25.562  46.138  51.691  1.00  0.00     0.048 A 
BRANCH   6   9
HETATM    9  O   UNL     1      26.151  42.517  52.093  1.00  0.00    -0.360 OA
HETATM   10  H   UNL     1      26.431  42.603  53.030  1.00  0.00     0.217 HD
ENDBRANCH   6   9
BRANCH   7  11
HETATM   11  C   UNL     1      27.102  44.983  53.282  1.00  0.00     0.183 A 
HETATM   12  N   UNL     1      27.239  45.896  54.232  1.00  0.00    -0.221 NA
HETATM   13  C   UNL     1      28.332  45.459  54.941  1.00  0.00     0.093 A 
HETATM   14  C   UNL     1      28.807  44.278  54.395  1.00  0.00     0.107 A 
HETATM   15  C   UNL     1      28.991  46.003  56.049  1.00  0.00     0.035 A 
HETATM   16  C   UNL     1      29.902  43.567  54.871  1.00  0.00     0.046 A 
HETATM   17  O   UNL     1      28.021  43.965  53.327  1.00  0.00    -0.289 OA
HETATM   18  C   UNL     1      30.553  44.109  55.992  1.00  0.00    -0.059 A 
HETATM   19  C   UNL     1      31.769  43.426  56.552  1.00  0.00     0.048 C 
HETATM   20  C   UNL     1      30.107  45.318  56.560  1.00  0.00     0.009 A 
ENDBRANCH   7  11
ENDBRANCH   1   3
BRANCH   1  21
HETATM   21  C   UNL     1      23.229  47.445  49.059  1.00  0.00     0.157 C 
HETATM   22  S   UNL     1      21.975  46.468  48.529  1.00  0.00    -0.047 SA
BRANCH  21  23
HETATM   23  N   UNL     1      23.556  48.532  48.276  1.00  0.00    -0.201 NA
HETATM   24  C   UNL     1      23.334  49.822  48.704  1.00  0.00     0.237 C 
HETATM   25  O   UNL     1      24.223  50.507  49.200  1.00  0.00    -0.274 OA
HETATM   26  H   UNL     1      24.533  48.414  48.027  1.00  0.00     0.139 HD
BRANCH  24  27
HETATM   27  C   UNL     1      21.993  50.398  48.456  1.00  0.00     0.026 A 
HETATM   28  C   UNL     1      21.309  50.043  47.290  1.00  0.00     0.019 A 
HETATM   29  C   UNL     1      19.998  50.487  47.085  1.00  0.00     0.038 A 
HETATM   30  C   UNL     1      19.360  51.258  48.059  1.00  0.00     0.068 A 
HETATM   31  C   UNL     1      20.061  51.635  49.209  1.00  0.00     0.038 A 
HETATM   32  C   UNL     1      21.378  51.211  49.412  1.00  0.00     0.019 A 
BRANCH  30  33
HETATM   33  O   UNL     1      18.064  51.695  48.006  1.00  0.00    -0.351 OA
BRANCH  33  34
HETATM   34  C   UNL     1      17.570  52.368  49.167  1.00  0.00     0.179 C 
BRANCH  34  35
HETATM   35  C   UNL     1      16.225  51.748  49.575  1.00  0.00     0.002 C 
HETATM   36  C   UNL     1      15.230  52.843  49.957  1.00  0.00     0.011 C 
HETATM   37  C   UNL     1      15.650  50.882  48.452  1.00  0.00     0.011 C 
ENDBRANCH  34  35
ENDBRANCH  33  34
ENDBRANCH  30  33
ENDBRANCH  24  27
ENDBRANCH  21  23
ENDBRANCH   1  21
TORSDOF 9
ENDMDL
MODEL 5
REMARK VINA RESULT:      -9.5      2.414     11.293
REMARK  9 active torsions:
REMARK  status: ('A' for Active; 'I' for Inactive)
REMARK    1  A    between atoms: C_7  and  C_8 
REMARK    2  A    between atoms: C_9  and  O_10 
REMARK    3  A    between atoms: C_13  and  N_14 
REMARK    4  A    between atoms: N_14  and  C_15 
REMARK    5  A    between atoms: C_15  and  N_16 
REMARK       I    between atoms: N_16  and  C_17 
REMARK    6  A    between atoms: C_17  and  C_18 
REMARK    7  A    between atoms: C_21  and  O_22 
REMARK    8  A    between atoms: O_22  and  C_23 
REMARK    9  A    between atoms: C_23  and  C_24 
ROOT
HETATM    1  N   UNL     1      25.403  44.573  50.257  1.00  0.00    -0.337 N 
HETATM    2  H   UNL     1      25.376  44.393  51.253  1.00  0.00     0.168 HD
ENDROOT
BRANCH   1   3
HETATM    3  C   UNL     1      25.345  45.931  49.870  1.00  0.00     0.035 A 
HETATM    4  C   UNL     1      26.495  46.709  50.021  1.00  0.00     0.032 A 
HETATM    5  C   UNL     1      26.470  48.070  49.712  1.00  0.00     0.040 A 
HETATM    6  C   UNL     1      25.285  48.666  49.282  1.00  0.00     0.080 A 
HETATM    7  C   UNL     1      24.107  47.917  49.148  1.00  0.00     0.052 A 
HETATM    8  C   UNL     1      24.158  46.543  49.446  1.00  0.00     0.048 A 
BRANCH   6   9
HETATM    9  O   UNL     1      25.348  50.012  49.023  1.00  0.00    -0.360 OA
HETATM   10  H   UNL     1      24.808  50.200  48.226  1.00  0.00     0.217 HD
ENDBRANCH   6   9
BRANCH   7  11
HETATM   11  C   UNL     1      22.855  48.557  48.752  1.00  0.00     0.183 A 
HETATM   12  N   UNL     1      21.927  48.091  47.929  1.00  0.00    -0.221 NA
HETATM   13  C   UNL     1      21.002  49.107  47.882  1.00  0.00     0.093 A 
HETATM   14  C   UNL     1      21.406  50.151  48.699  1.00  0.00     0.107 A 
HETATM   15  C   UNL     1      19.804  49.233  47.171  1.00  0.00     0.035 A 
HETATM   16  C   UNL     1      20.701  51.335  48.884  1.00  0.00     0.046 A 
HETATM   17  O   UNL     1      22.597  49.804  49.262  1.00  0.00    -0.289 OA
HETATM   18  C   UNL     1      19.491  51.451  48.178  1.00  0.00    -0.059 A 
HETATM   19  C   UNL     1      18.681  52.712  48.288  1.00  0.00     0.048 C 
HETATM   20  C   UNL     1      19.062  50.416  47.324  1.00  0.00     0.009 A 
ENDBRANCH   7  11
ENDBRANCH   1   3
BRANCH   1  21
HETATM   21  C   UNL     1      25.639  43.480  49.458  1.00  0.00     0.157 C 
HETATM   22  S   UNL     1      24.496  42.632  48.574  1.00  0.00    -0.047 SA
BRANCH  21  23
HETATM   23  N   UNL     1      26.950  43.064  49.357  1.00  0.00    -0.201 NA
HETATM   24  C   UNL     1      27.424  41.992  50.081  1.00  0.00     0.237 C 
HETATM   25  O   UNL     1      27.524  40.871  49.595  1.00  0.00    -0.274 OA
HETATM   26  H   UNL     1      27.122  42.916  48.368  1.00  0.00     0.139 HD
BRANCH  24  27
HETATM   27  C   UNL     1      27.906  42.260  51.455  1.00  0.00     0.026 A 
HETATM   28  C   UNL     1      28.115  41.183  52.320  1.00  0.00     0.019 A 
HETATM   29  C   UNL     1      28.672  41.400  53.586  1.00  0.00     0.038 A 
HETATM   30  C   UNL     1      29.050  42.688  53.972  1.00  0.00     0.068 A 
HETATM   31  C   UNL     1      28.809  43.765  53.113  1.00  0.00     0.038 A 
HETATM   32  C   UNL     1      28.236  43.558  51.855  1.00  0.00     0.019 A 
BRANCH  30  33
HETATM   33  O   UNL     1      29.663  43.018  55.151  1.00  0.00    -0.351 OA
BRANCH  33  34
HETATM   34  C   UNL     1      30.263  44.315  55.216  1.00  0.00     0.179 C 
BRANCH  34  35
HETATM   35  C   UNL     1      31.104  44.417  56.497  1.00  0.00     0.002 C 
HETATM   36  C   UNL     1      30.368  45.245  57.550  1.00  0.00     0.011 C 
HETATM   37  C   UNL     1      31.437  43.031  57.054  1.00  0.00     0.011 C 
ENDBRANCH  34  35
ENDBRANCH  33  34
ENDBRANCH  30  33
ENDBRANCH  24  27
ENDBRANCH  21  23
ENDBRANCH   1  21
TORSDOF 9
ENDMDL
MODEL 6
REMARK VINA RESULT:      -9.5      4.624      6.048
REMARK  9 active torsions:
REMARK  status: ('A' for Active; 'I' for Inactive)
REMARK    1  A    between atoms: C_7  and  C_8 
REMARK    2  A    between atoms: C_9  and  O_10 
REMARK    3  A    between atoms: C_13  and  N_14 
REMARK    4  A    between atoms: N_14  and  C_15 
REMARK    5  A    between atoms: C_15  and  N_16 
REMARK       I    between atoms: N_16  and  C_17 
REMARK    6  A    between atoms: C_17  and  C_18 
REMARK    7  A    between atoms: C_21  and  O_22 
REMARK    8  A    between atoms: O_22  and  C_23 
REMARK    9  A    between atoms: C_23  and  C_24 
ROOT
HETATM    1  N   UNL     1      25.861  42.286  48.084  1.00  0.00    -0.337 N 
HETATM    2  H   UNL     1      26.122  43.198  47.729  1.00  0.00     0.168 HD
ENDROOT
BRANCH   1   3
HETATM    3  C   UNL     1      26.740  41.714  49.032  1.00  0.00     0.035 A 
HETATM    4  C   UNL     1      27.057  40.360  48.904  1.00  0.00     0.032 A 
HETATM    5  C   UNL     1      27.870  39.735  49.850  1.00  0.00     0.040 A 
HETATM    6  C   UNL     1      28.343  40.453  50.947  1.00  0.00     0.080 A 
HETATM    7  C   UNL     1      28.019  41.807  51.118  1.00  0.00     0.052 A 
HETATM    8  C   UNL     1      27.214  42.423  50.143  1.00  0.00     0.048 A 
BRANCH   6   9
HETATM    9  O   UNL     1      29.117  39.753  51.838  1.00  0.00    -0.360 OA
HETATM   10  H   UNL     1      28.544  39.452  52.576  1.00  0.00     0.217 HD
ENDBRANCH   6   9
BRANCH   7  11
HETATM   11  C   UNL     1      28.470  42.540  52.298  1.00  0.00     0.183 A 
HETATM   12  N   UNL     1      28.050  43.719  52.734  1.00  0.00    -0.221 NA
HETATM   13  C   UNL     1      28.834  43.949  53.840  1.00  0.00     0.093 A 
HETATM   14  C   UNL     1      29.694  42.881  54.039  1.00  0.00     0.107 A 
HETATM   15  C   UNL     1      28.891  45.033  54.722  1.00  0.00     0.035 A 
HETATM   16  C   UNL     1      30.623  42.789  55.069  1.00  0.00     0.046 A 
HETATM   17  O   UNL     1      29.466  41.971  53.051  1.00  0.00    -0.289 OA
HETATM   18  C   UNL     1      30.666  43.874  55.961  1.00  0.00    -0.059 A 
HETATM   19  C   UNL     1      31.665  43.877  57.084  1.00  0.00     0.048 C 
HETATM   20  C   UNL     1      29.819  44.984  55.776  1.00  0.00     0.009 A 
ENDBRANCH   7  11
ENDBRANCH   1   3
BRANCH   1  21
HETATM   21  C   UNL     1      24.625  41.826  47.699  1.00  0.00     0.157 C 
HETATM   22  S   UNL     1      24.265  41.032  46.267  1.00  0.00    -0.047 SA
BRANCH  21  23
HETATM   23  N   UNL     1      23.592  42.014  48.592  1.00  0.00    -0.201 NA
HETATM   24  C   UNL     1      22.873  43.189  48.627  1.00  0.00     0.237 C 
HETATM   25  O   UNL     1      21.787  43.305  48.070  1.00  0.00    -0.274 OA
HETATM   26  H   UNL     1      22.963  41.228  48.464  1.00  0.00     0.139 HD
BRANCH  24  27
HETATM   27  C   UNL     1      23.417  44.294  49.448  1.00  0.00     0.026 A 
HETATM   28  C   UNL     1      23.998  43.995  50.684  1.00  0.00     0.019 A 
HETATM   29  C   UNL     1      24.615  45.006  51.430  1.00  0.00     0.038 A 
HETATM   30  C   UNL     1      24.682  46.306  50.925  1.00  0.00     0.068 A 
HETATM   31  C   UNL     1      24.071  46.604  49.703  1.00  0.00     0.038 A 
HETATM   32  C   UNL     1      23.436  45.603  48.961  1.00  0.00     0.019 A 
BRANCH  30  33
HETATM   33  O   UNL     1      25.313  47.362  51.525  1.00  0.00    -0.351 OA
BRANCH  33  34
HETATM   34  C   UNL     1      26.346  47.040  52.460  1.00  0.00     0.179 C 
BRANCH  34  35
HETATM   35  C   UNL     1      25.790  47.162  53.887  1.00  0.00     0.002 C 
HETATM   36  C   UNL     1      25.624  45.777  54.512  1.00  0.00     0.011 C 
HETATM   37  C   UNL     1      26.695  48.030  54.763  1.00  0.00     0.011 C 
ENDBRANCH  34  35
ENDBRANCH  33  34
ENDBRANCH  30  33
ENDBRANCH  24  27
ENDBRANCH  21  23
ENDBRANCH   1  21
TORSDOF 9
ENDMDL
MODEL 7
REMARK VINA RESULT:      -9.5      1.807      2.218
REMARK  9 active torsions:
REMARK  status: ('A' for Active; 'I' for Inactive)
REMARK    1  A    between atoms: C_7  and  C_8 
REMARK    2  A    between atoms: C_9  and  O_10 
REMARK    3  A    between atoms: C_13  and  N_14 
REMARK    4  A    between atoms: N_14  and  C_15 
REMARK    5  A    between atoms: C_15  and  N_16 
REMARK       I    between atoms: N_16  and  C_17 
REMARK    6  A    between atoms: C_17  and  C_18 
REMARK    7  A    between atoms: C_21  and  O_22 
REMARK    8  A    between atoms: O_22  and  C_23 
REMARK    9  A    between atoms: C_23  and  C_24 
ROOT
HETATM    1  N   UNL     1      25.165  44.882  49.075  1.00  0.00    -0.337 N 
HETATM    2  H   UNL     1      25.503  44.923  48.121  1.00  0.00     0.168 HD
ENDROOT
BRANCH   1   3
HETATM    3  C   UNL     1      25.779  43.921  49.910  1.00  0.00     0.035 A 
HETATM    4  C   UNL     1      25.481  42.574  49.696  1.00  0.00     0.032 A 
HETATM    5  C   UNL     1      26.013  41.593  50.534  1.00  0.00     0.040 A 
HETATM    6  C   UNL     1      26.820  41.959  51.611  1.00  0.00     0.080 A 
HETATM    7  C   UNL     1      27.113  43.305  51.869  1.00  0.00     0.052 A 
HETATM    8  C   UNL     1      26.583  44.277  51.001  1.00  0.00     0.048 A 
BRANCH   6   9
HETATM    9  O   UNL     1      27.280  40.931  52.395  1.00  0.00    -0.360 OA
HETATM   10  H   UNL     1      26.614  40.751  53.093  1.00  0.00     0.217 HD
ENDBRANCH   6   9
BRANCH   7  11
HETATM   11  C   UNL     1      27.912  43.687  53.031  1.00  0.00     0.183 A 
HETATM   12  N   UNL     1      27.837  44.805  53.739  1.00  0.00    -0.221 NA
HETATM   13  C   UNL     1      28.835  44.659  54.674  1.00  0.00     0.093 A 
HETATM   14  C   UNL     1      29.468  43.439  54.501  1.00  0.00     0.107 A 
HETATM   15  C   UNL     1      29.277  45.509  55.693  1.00  0.00     0.035 A 
HETATM   16  C   UNL     1      30.522  42.973  55.278  1.00  0.00     0.046 A 
HETATM   17  O   UNL     1      28.879  42.808  53.447  1.00  0.00    -0.289 OA
HETATM   18  C   UNL     1      30.953  43.824  56.310  1.00  0.00    -0.059 A 
HETATM   19  C   UNL     1      32.112  43.418  57.177  1.00  0.00     0.048 C 
HETATM   20  C   UNL     1      30.344  45.080  56.500  1.00  0.00     0.009 A 
ENDBRANCH   7  11
ENDBRANCH   1   3
BRANCH   1  21
HETATM   21  C   UNL     1      24.273  45.863  49.436  1.00  0.00     0.157 C 
HETATM   22  S   UNL     1      24.645  47.312  50.189  1.00  0.00    -0.047 SA
BRANCH  21  23
HETATM   23  N   UNL     1      22.950  45.637  49.120  1.00  0.00    -0.201 NA
HETATM   24  C   UNL     1      22.364  46.213  48.014  1.00  0.00     0.237 C 
HETATM   25  O   UNL     1      22.231  45.607  46.956  1.00  0.00    -0.274 OA
HETATM   26  H   UNL     1      22.838  44.629  49.084  1.00  0.00     0.139 HD
BRANCH  24  27
HETATM   27  C   UNL     1      21.806  47.575  48.174  1.00  0.00     0.026 A 
HETATM   28  C   UNL     1      20.573  47.730  48.813  1.00  0.00     0.019 A 
HETATM   29  C   UNL     1      20.075  49.012  49.073  1.00  0.00     0.038 A 
HETATM   30  C   UNL     1      20.825  50.137  48.724  1.00  0.00     0.068 A 
HETATM   31  C   UNL     1      22.043  49.975  48.056  1.00  0.00     0.038 A 
HETATM   32  C   UNL     1      22.538  48.697  47.777  1.00  0.00     0.019 A 
BRANCH  30  33
HETATM   33  O   UNL     1      20.480  51.436  48.983  1.00  0.00    -0.351 OA
BRANCH  33  34
HETATM   34  C   UNL     1      19.551  51.649  50.050  1.00  0.00     0.179 C 
BRANCH  34  35
HETATM   35  C   UNL     1      18.301  52.350  49.497  1.00  0.00     0.002 C 
HETATM   36  C   UNL     1      18.500  52.707  48.024  1.00  0.00     0.011 C 
HETATM   37  C   UNL     1      17.055  51.478  49.664  1.00  0.00     0.011 C 
ENDBRANCH  34  35
ENDBRANCH  33  34
ENDBRANCH  30  33
ENDBRANCH  24  27
ENDBRANCH  21  23
ENDBRANCH   1  21
TORSDOF 9
ENDMDL
MODEL 8
REMARK VINA RESULT:      -9.5     12.609     15.584
REMARK  9 active torsions:
REMARK  status: ('A' for Active; 'I' for Inactive)
REMARK    1  A    between atoms: C_7  and  C_8 
REMARK    2  A    between atoms: C_9  and  O_10 
REMARK    3  A    between atoms: C_13  and  N_14 
REMARK    4  A    between atoms: N_14  and  C_15 
REMARK    5  A    between atoms: C_15  and  N_16 
REMARK       I    between atoms: N_16  and  C_17 
REMARK    6  A    between atoms: C_17  and  C_18 
REMARK    7  A    between atoms: C_21  and  O_22 
REMARK    8  A    between atoms: O_22  and  C_23 
REMARK    9  A    between atoms: C_23  and  C_24 
ROOT
HETATM    1  N   UNL     1      27.777  50.538  38.253  1.00  0.00    -0.337 N 
HETATM    2  H   UNL     1      27.546  51.025  37.396  1.00  0.00     0.168 HD
ENDROOT
BRANCH   1   3
HETATM    3  C   UNL     1      28.637  51.221  39.143  1.00  0.00     0.035 A 
HETATM    4  C   UNL     1      28.061  51.967  40.174  1.00  0.00     0.032 A 
HETATM    5  C   UNL     1      28.866  52.709  41.040  1.00  0.00     0.040 A 
HETATM    6  C   UNL     1      30.248  52.736  40.857  1.00  0.00     0.080 A 
HETATM    7  C   UNL     1      30.852  52.021  39.813  1.00  0.00     0.052 A 
HETATM    8  C   UNL     1      30.026  51.263  38.964  1.00  0.00     0.048 A 
BRANCH   6   9
HETATM    9  O   UNL     1      30.957  53.510  41.740  1.00  0.00    -0.360 OA
HETATM   10  H   UNL     1      30.461  54.343  41.891  1.00  0.00     0.217 HD
ENDBRANCH   6   9
BRANCH   7  11
HETATM   11  C   UNL     1      32.294  52.098  39.591  1.00  0.00     0.183 A 
HETATM   12  N   UNL     1      33.140  51.100  39.381  1.00  0.00    -0.221 NA
HETATM   13  C   UNL     1      34.359  51.729  39.283  1.00  0.00     0.093 A 
HETATM   14  C   UNL     1      34.196  53.097  39.425  1.00  0.00     0.107 A 
HETATM   15  C   UNL     1      35.647  51.220  39.087  1.00  0.00     0.035 A 
HETATM   16  C   UNL     1      35.226  54.029  39.377  1.00  0.00     0.046 A 
HETATM   17  O   UNL     1      32.870  53.342  39.623  1.00  0.00    -0.289 OA
HETATM   18  C   UNL     1      36.517  53.515  39.166  1.00  0.00    -0.059 A 
HETATM   19  C   UNL     1      37.696  54.446  39.137  1.00  0.00     0.048 C 
HETATM   20  C   UNL     1      36.719  52.127  39.038  1.00  0.00     0.009 A 
ENDBRANCH   7  11
ENDBRANCH   1   3
BRANCH   1  21
HETATM   21  C   UNL     1      27.101  49.362  38.474  1.00  0.00     0.157 C 
HETATM   22  S   UNL     1      25.458  49.203  38.764  1.00  0.00    -0.047 SA
BRANCH  21  23
HETATM   23  N   UNL     1      27.847  48.204  38.424  1.00  0.00    -0.201 NA
HETATM   24  C   UNL     1      28.111  47.466  39.557  1.00  0.00     0.237 C 
HETATM   25  O   UNL     1      27.456  46.473  39.855  1.00  0.00    -0.274 OA
HETATM   26  H   UNL     1      27.406  47.616  37.724  1.00  0.00     0.139 HD
BRANCH  24  27
HETATM   27  C   UNL     1      29.286  47.861  40.366  1.00  0.00     0.026 A 
HETATM   28  C   UNL     1      30.565  47.547  39.898  1.00  0.00     0.019 A 
HETATM   29  C   UNL     1      31.694  48.003  40.588  1.00  0.00     0.038 A 
HETATM   30  C   UNL     1      31.545  48.799  41.726  1.00  0.00     0.068 A 
HETATM   31  C   UNL     1      30.262  49.083  42.205  1.00  0.00     0.038 A 
HETATM   32  C   UNL     1      29.130  48.615  41.532  1.00  0.00     0.019 A 
BRANCH  30  33
HETATM   33  O   UNL     1      32.565  49.359  42.446  1.00  0.00    -0.351 OA
BRANCH  33  34
HETATM   34  C   UNL     1      32.211  50.423  43.333  1.00  0.00     0.179 C 
BRANCH  34  35
HETATM   35  C   UNL     1      33.280  51.523  43.253  1.00  0.00     0.002 C 
HETATM   36  C   UNL     1      33.537  52.115  44.638  1.00  0.00     0.011 C 
HETATM   37  C   UNL     1      34.583  50.988  42.657  1.00  0.00     0.011 C 
ENDBRANCH  34  35
ENDBRANCH  33  34
ENDBRANCH  30  33
ENDBRANCH  24  27
ENDBRANCH  21  23
ENDBRANCH   1  21
TORSDOF 9
ENDMDL
MODEL 9
REMARK VINA RESULT:      -9.3      2.674      3.422
REMARK  9 active torsions:
REMARK  status: ('A' for Active; 'I' for Inactive)
REMARK    1  A    between atoms: C_7  and  C_8 
REMARK    2  A    between atoms: C_9  and  O_10 
REMARK    3  A    between atoms: C_13  and  N_14 
REMARK    4  A    between atoms: N_14  and  C_15 
REMARK    5  A    between atoms: C_15  and  N_16 
REMARK       I    between atoms: N_16  and  C_17 
REMARK    6  A    between atoms: C_17  and  C_18 
REMARK    7  A    between atoms: C_21  and  O_22 
REMARK    8  A    between atoms: O_22  and  C_23 
REMARK    9  A    between atoms: C_23  and  C_24 
ROOT
HETATM    1  N   UNL     1      22.828  43.823  49.190  1.00  0.00    -0.337 N 
HETATM    2  H   UNL     1      22.665  42.932  49.643  1.00  0.00     0.168 HD
ENDROOT
BRANCH   1   3
HETATM    3  C   UNL     1      23.707  44.707  49.857  1.00  0.00     0.035 A 
HETATM    4  C   UNL     1      23.524  46.079  49.678  1.00  0.00     0.032 A 
HETATM    5  C   UNL     1      24.404  46.989  50.265  1.00  0.00     0.040 A 
HETATM    6  C   UNL     1      25.491  46.530  51.006  1.00  0.00     0.080 A 
HETATM    7  C   UNL     1      25.719  45.157  51.180  1.00  0.00     0.052 A 
HETATM    8  C   UNL     1      24.809  44.256  50.596  1.00  0.00     0.048 A 
BRANCH   6   9
HETATM    9  O   UNL     1      26.316  47.495  51.527  1.00  0.00    -0.360 OA
HETATM   10  H   UNL     1      25.817  48.338  51.573  1.00  0.00     0.217 HD
ENDBRANCH   6   9
BRANCH   7  11
HETATM   11  C   UNL     1      26.890  44.679  51.909  1.00  0.00     0.183 A 
HETATM   12  N   UNL     1      27.791  43.791  51.513  1.00  0.00    -0.221 NA
HETATM   13  C   UNL     1      28.634  43.687  52.593  1.00  0.00     0.093 A 
HETATM   14  C   UNL     1      28.214  44.537  53.603  1.00  0.00     0.107 A 
HETATM   15  C   UNL     1      29.767  42.894  52.807  1.00  0.00     0.035 A 
HETATM   16  C   UNL     1      28.843  44.680  54.835  1.00  0.00     0.046 A 
HETATM   17  O   UNL     1      27.093  45.179  53.171  1.00  0.00    -0.289 OA
HETATM   18  C   UNL     1      29.989  43.892  55.039  1.00  0.00    -0.059 A 
HETATM   19  C   UNL     1      30.712  43.954  56.355  1.00  0.00     0.048 C 
HETATM   20  C   UNL     1      30.431  43.003  54.040  1.00  0.00     0.009 A 
ENDBRANCH   7  11
ENDBRANCH   1   3
BRANCH   1  21
HETATM   21  C   UNL     1      22.286  43.964  47.935  1.00  0.00     0.157 C 
HETATM   22  S   UNL     1      23.090  43.758  46.480  1.00  0.00    -0.047 SA
BRANCH  21  23
HETATM   23  N   UNL     1      20.945  44.279  47.876  1.00  0.00    -0.201 NA
HETATM   24  C   UNL     1      20.491  45.370  47.168  1.00  0.00     0.237 C 
HETATM   25  O   UNL     1      20.034  45.266  46.034  1.00  0.00    -0.274 OA
HETATM   26  H   UNL     1      20.474  43.439  47.557  1.00  0.00     0.139 HD
BRANCH  24  27
HETATM   27  C   UNL     1      20.483  46.676  47.864  1.00  0.00     0.026 A 
HETATM   28  C   UNL     1      21.291  47.707  47.375  1.00  0.00     0.019 A 
HETATM   29  C   UNL     1      21.221  48.982  47.948  1.00  0.00     0.038 A 
HETATM   30  C   UNL     1      20.321  49.235  48.985  1.00  0.00     0.068 A 
HETATM   31  C   UNL     1      19.538  48.191  49.489  1.00  0.00     0.038 A 
HETATM   32  C   UNL     1      19.616  46.910  48.934  1.00  0.00     0.019 A 
BRANCH  30  33
HETATM   33  O   UNL     1      20.111  50.449  49.580  1.00  0.00    -0.351 OA
BRANCH  33  34
HETATM   34  C   UNL     1      18.790  50.703  50.065  1.00  0.00     0.179 C 
BRANCH  34  35
HETATM   35  C   UNL     1      18.082  51.678  49.113  1.00  0.00     0.002 C 
HETATM   36  C   UNL     1      17.123  52.578  49.891  1.00  0.00     0.011 C 
HETATM   37  C   UNL     1      19.090  52.527  48.337  1.00  0.00     0.011 C 
ENDBRANCH  34  35
ENDBRANCH  33  34
ENDBRANCH  30  33
ENDBRANCH  24  27
ENDBRANCH  21  23
ENDBRANCH   1  21
TORSDOF 9
ENDMDL
MODEL 10
REMARK VINA RESULT:      -9.1     12.473     15.407
REMARK  9 active torsions:
REMARK  status: ('A' for Active; 'I' for Inactive)
REMARK    1  A    between atoms: C_7  and  C_8 
REMARK    2  A    between atoms: C_9  and  O_10 
REMARK    3  A    between atoms: C_13  and  N_14 
REMARK    4  A    between atoms: N_14  and  C_15 
REMARK    5  A    between atoms: C_15  and  N_16 
REMARK       I    between atoms: N_16  and  C_17 
REMARK    6  A    between atoms: C_17  and  C_18 
REMARK    7  A    between atoms: C_21  and  O_22 
REMARK    8  A    between atoms: O_22  and  C_23 
REMARK    9  A    between atoms: C_23  and  C_24 
ROOT
HETATM    1  N   UNL     1      31.924  52.457  39.333  1.00  0.00    -0.337 N 
HETATM    2  H   UNL     1      32.075  52.802  38.393  1.00  0.00     0.168 HD
ENDROOT
BRANCH   1   3
HETATM    3  C   UNL     1      30.577  52.356  39.749  1.00  0.00     0.035 A 
HETATM    4  C   UNL     1      30.180  53.075  40.878  1.00  0.00     0.032 A 
HETATM    5  C   UNL     1      28.876  52.960  41.363  1.00  0.00     0.040 A 
HETATM    6  C   UNL     1      27.974  52.098  40.741  1.00  0.00     0.080 A 
HETATM    7  C   UNL     1      28.352  51.341  39.623  1.00  0.00     0.052 A 
HETATM    8  C   UNL     1      29.664  51.487  39.137  1.00  0.00     0.048 A 
BRANCH   6   9
HETATM    9  O   UNL     1      26.723  52.030  41.300  1.00  0.00    -0.360 OA
HETATM   10  H   UNL     1      26.641  51.176  41.775  1.00  0.00     0.217 HD
ENDBRANCH   6   9
BRANCH   7  11
HETATM   11  C   UNL     1      27.421  50.397  39.010  1.00  0.00     0.183 A 
HETATM   12  N   UNL     1      27.317  50.070  37.729  1.00  0.00    -0.221 NA
HETATM   13  C   UNL     1      26.263  49.188  37.709  1.00  0.00     0.093 A 
HETATM   14  C   UNL     1      25.778  49.003  38.993  1.00  0.00     0.107 A 
HETATM   15  C   UNL     1      25.649  48.508  36.651  1.00  0.00     0.035 A 
HETATM   16  C   UNL     1      24.714  48.173  39.329  1.00  0.00     0.046 A 
HETATM   17  O   UNL     1      26.517  49.777  39.835  1.00  0.00    -0.289 OA
HETATM   18  C   UNL     1      24.109  47.482  38.265  1.00  0.00    -0.059 A 
HETATM   19  C   UNL     1      22.929  46.590  38.530  1.00  0.00     0.048 C 
HETATM   20  C   UNL     1      24.567  47.662  36.945  1.00  0.00     0.009 A 
ENDBRANCH   7  11
ENDBRANCH   1   3
BRANCH   1  21
HETATM   21  C   UNL     1      33.043  52.008  39.992  1.00  0.00     0.157 C 
HETATM   22  S   UNL     1      34.607  51.987  39.390  1.00  0.00    -0.047 SA
BRANCH  21  23
HETATM   23  N   UNL     1      32.858  51.556  41.282  1.00  0.00    -0.201 NA
HETATM   24  C   UNL     1      33.002  50.226  41.608  1.00  0.00     0.237 C 
HETATM   25  O   UNL     1      34.034  49.784  42.103  1.00  0.00    -0.274 OA
HETATM   26  H   UNL     1      33.463  52.123  41.867  1.00  0.00     0.139 HD
BRANCH  24  27
HETATM   27  C   UNL     1      31.822  49.351  41.428  1.00  0.00     0.026 A 
HETATM   28  C   UNL     1      30.703  49.548  42.241  1.00  0.00     0.019 A 
HETATM   29  C   UNL     1      29.537  48.807  42.019  1.00  0.00     0.038 A 
HETATM   30  C   UNL     1      29.478  47.894  40.964  1.00  0.00     0.068 A 
HETATM   31  C   UNL     1      30.612  47.680  40.173  1.00  0.00     0.038 A 
HETATM   32  C   UNL     1      31.787  48.403  40.401  1.00  0.00     0.019 A 
BRANCH  30  33
HETATM   33  O   UNL     1      28.379  47.162  40.603  1.00  0.00    -0.351 OA
BRANCH  33  34
HETATM   34  C   UNL     1      28.622  45.986  39.827  1.00  0.00     0.179 C 
BRANCH  34  35
HETATM   35  C   UNL     1      27.634  45.945  38.651  1.00  0.00     0.002 C 
HETATM   36  C   UNL     1      28.389  45.858  37.326  1.00  0.00     0.011 C 
HETATM   37  C   UNL     1      26.663  44.770  38.784  1.00  0.00     0.011 C 
ENDBRANCH  34  35
ENDBRANCH  33  34
ENDBRANCH  30  33
ENDBRANCH  24  27
ENDBRANCH  21  23
ENDBRANCH   1  21
TORSDOF 9
ENDMDL
