MODEL 1
REMARK VINA RESULT:      -9.1      0.000      0.000
REMARK  9 active torsions:
REMARK  status: ('A' for Active; 'I' for Inactive)
REMARK    1  A    between atoms: C_3  and  C_4 
REMARK    2  A    between atoms: C_4  and  C_5 
REMARK    3  A    between atoms: C_5  and  O_6 
REMARK    4  A    between atoms: C_16  and  O_17 
REMARK    5  A    between atoms: C_18  and  C_19 
REMARK    6  A    between atoms: C_19  and  N_20 
REMARK    7  A    between atoms: N_20  and  C_23 
REMARK    8  A    between atoms: N_26  and  C_28 
REMARK    9  A    between atoms: C_28  and  C_29 
ROOT
HETATM    1  C   UNL     1      21.105  46.542  48.671  1.00  0.00     0.050 C 
HETATM    2  C   UNL     1      21.911  47.816  48.707  1.00  0.00    -0.036 C 
HETATM    3  C   UNL     1      21.378  49.045  48.533  1.00  0.00     0.034 C 
HETATM    4  C   UNL     1      22.238  50.257  48.463  1.00  0.00     0.295 C 
HETATM    5  O   UNL     1      21.765  51.386  48.463  1.00  0.00    -0.259 OA
HETATM    6  O   UNL     1      23.601  50.051  48.381  1.00  0.00    -0.274 OA
HETATM    7  C   UNL     1      24.183  48.815  48.717  1.00  0.00     0.099 A 
HETATM    8  C   UNL     1      23.367  47.703  48.936  1.00  0.00     0.006 A 
HETATM    9  C   UNL     1      25.580  48.794  48.890  1.00  0.00     0.007 A 
HETATM   10  C   UNL     1      26.407  50.023  48.615  1.00  0.00     0.054 C 
HETATM   11  C   UNL     1      26.148  47.612  49.376  1.00  0.00     0.082 A 
HETATM   12  C   UNL     1      25.357  46.485  49.658  1.00  0.00     0.002 A 
HETATM   13  C   UNL     1      23.976  46.532  49.409  1.00  0.00     0.026 A 
ENDROOT
BRANCH  12  14
HETATM   14  C   UNL     1      25.968  45.277  50.307  1.00  0.00     0.274 C 
BRANCH  14  15
HETATM   15  N   UNL     1      26.456  45.664  51.676  1.00  0.00    -0.067 N 
HETATM   16  H   UNL     1      27.266  45.059  51.865  1.00  0.00     0.277 HD
HETATM   17  H   UNL     1      26.895  46.591  51.545  1.00  0.00     0.277 HD
BRANCH  15  18
HETATM   18  C   UNL     1      25.515  45.769  52.844  1.00  0.00     0.189 C 
HETATM   19  C   UNL     1      25.719  44.724  53.939  1.00  0.00     0.060 C 
HETATM   20  C   UNL     1      26.725  45.088  55.027  1.00  0.00     0.237 C 
HETATM   21  N   UNL     1      27.639  46.196  54.581  1.00  0.00    -0.067 N 
HETATM   22  H   UNL     1      28.167  45.869  53.758  1.00  0.00     0.280 HD
HETATM   23  C   UNL     1      26.896  47.460  54.227  1.00  0.00     0.237 C 
HETATM   24  C   UNL     1      25.618  47.178  53.429  1.00  0.00     0.060 C 
BRANCH  21  25
HETATM   25  C   UNL     1      28.786  46.468  55.581  1.00  0.00     0.273 C 
BRANCH  25  26
HETATM   26  C   UNL     1      29.663  45.297  55.920  1.00  0.00    -0.033 A 
HETATM   27  C   UNL     1      30.367  45.279  57.137  1.00  0.00     0.009 A 
HETATM   28  C   UNL     1      31.219  44.221  57.448  1.00  0.00     0.001 A 
HETATM   29  C   UNL     1      31.376  43.168  56.553  1.00  0.00     0.000 A 
HETATM   30  C   UNL     1      30.673  43.164  55.351  1.00  0.00     0.001 A 
HETATM   31  C   UNL     1      29.815  44.220  55.035  1.00  0.00     0.009 A 
ENDBRANCH  25  26
ENDBRANCH  21  25
ENDBRANCH  15  18
ENDBRANCH  14  15
ENDBRANCH  12  14
BRANCH  11  32
HETATM   32  O   UNL     1      27.494  47.528  49.667  1.00  0.00    -0.359 OA
HETATM   33  H   UNL     1      27.895  48.322  49.246  1.00  0.00     0.217 HD
ENDBRANCH  11  32
BRANCH   3  34
HETATM   34  C   UNL     1      19.906  49.372  48.398  1.00  0.00     0.156 C 
BRANCH  34  35
HETATM   35  C   UNL     1      19.198  49.242  49.733  1.00  0.00     0.262 C 
HETATM   36  O   UNL     1      18.562  48.260  50.094  1.00  0.00    -0.265 OA
BRANCH  35  37
HETATM   37  O   UNL     1      19.428  50.359  50.476  1.00  0.00    -0.326 OA
HETATM   38  C   UNL     1      18.762  51.534  50.010  1.00  0.00     0.213 C 
ENDBRANCH  35  37
ENDBRANCH  34  35
ENDBRANCH   3  34
TORSDOF 9
ENDMDL
MODEL 2
REMARK VINA RESULT:      -8.9      3.196     10.353
REMARK  9 active torsions:
REMARK  status: ('A' for Active; 'I' for Inactive)
REMARK    1  A    between atoms: C_3  and  C_4 
REMARK    2  A    between atoms: C_4  and  C_5 
REMARK    3  A    between atoms: C_5  and  O_6 
REMARK    4  A    between atoms: C_16  and  O_17 
REMARK    5  A    between atoms: C_18  and  C_19 
REMARK    6  A    between atoms: C_19  and  N_20 
REMARK    7  A    between atoms: N_20  and  C_23 
REMARK    8  A    between atoms: N_26  and  C_28 
REMARK    9  A    between atoms: C_28  and  C_29 
ROOT
HETATM    1  C   UNL     1      26.174  47.449  54.005  1.00  0.00     0.050 C 
HETATM    2  C   UNL     1      26.533  46.080  53.484  1.00  0.00    -0.036 C 
HETATM    3  C   UNL     1      27.248  45.175  54.188  1.00  0.00     0.034 C 
HETATM    4  C   UNL     1      27.672  43.884  53.580  1.00  0.00     0.295 C 
HETATM    5  O   UNL     1      28.181  42.992  54.245  1.00  0.00    -0.259 OA
HETATM    6  O   UNL     1      27.477  43.742  52.219  1.00  0.00    -0.274 OA
HETATM    7  C   UNL     1      26.606  44.584  51.505  1.00  0.00     0.099 A 
HETATM    8  C   UNL     1      26.081  45.721  52.124  1.00  0.00     0.006 A 
HETATM    9  C   UNL     1      26.250  44.177  50.205  1.00  0.00     0.007 A 
HETATM   10  C   UNL     1      26.869  42.952  49.585  1.00  0.00     0.054 C 
HETATM   11  C   UNL     1      25.265  44.922  49.549  1.00  0.00     0.082 A 
HETATM   12  C   UNL     1      24.673  46.044  50.155  1.00  0.00     0.002 A 
HETATM   13  C   UNL     1      25.107  46.449  51.426  1.00  0.00     0.026 A 
ENDROOT
BRANCH  12  14
HETATM   14  C   UNL     1      23.523  46.744  49.489  1.00  0.00     0.274 C 
BRANCH  14  15
HETATM   15  N   UNL     1      23.781  48.225  49.520  1.00  0.00    -0.067 N 
HETATM   16  H   UNL     1      23.512  48.534  50.464  1.00  0.00     0.277 HD
HETATM   17  H   UNL     1      24.812  48.311  49.542  1.00  0.00     0.277 HD
BRANCH  15  18
HETATM   18  C   UNL     1      23.273  49.133  48.436  1.00  0.00     0.189 C 
HETATM   19  C   UNL     1      22.000  48.662  47.737  1.00  0.00     0.060 C 
HETATM   20  C   UNL     1      20.687  49.096  48.381  1.00  0.00     0.237 C 
HETATM   21  N   UNL     1      20.891  49.523  49.809  1.00  0.00    -0.067 N 
HETATM   22  H   UNL     1      21.253  48.716  50.340  1.00  0.00     0.280 HD
HETATM   23  C   UNL     1      21.850  50.679  49.941  1.00  0.00     0.237 C 
HETATM   24  C   UNL     1      23.069  50.530  49.024  1.00  0.00     0.060 C 
BRANCH  21  25
HETATM   25  C   UNL     1      19.562  49.795  50.550  1.00  0.00     0.273 C 
BRANCH  25  26
HETATM   26  C   UNL     1      18.537  50.599  49.802  1.00  0.00    -0.033 A 
HETATM   27  C   UNL     1      18.597  52.004  49.824  1.00  0.00     0.009 A 
HETATM   28  C   UNL     1      17.630  52.765  49.172  1.00  0.00     0.001 A 
HETATM   29  C   UNL     1      16.595  52.137  48.487  1.00  0.00     0.000 A 
HETATM   30  C   UNL     1      16.531  50.746  48.443  1.00  0.00     0.001 A 
HETATM   31  C   UNL     1      17.500  49.978  49.092  1.00  0.00     0.009 A 
ENDBRANCH  25  26
ENDBRANCH  21  25
ENDBRANCH  15  18
ENDBRANCH  14  15
ENDBRANCH  12  14
BRANCH  11  32
HETATM   32  O   UNL     1      24.782  44.544  48.312  1.00  0.00    -0.359 OA
HETATM   33  H   UNL     1      25.583  44.321  47.785  1.00  0.00     0.217 HD
ENDBRANCH  11  32
BRANCH   3  34
HETATM   34  C   UNL     1      27.701  45.312  55.625  1.00  0.00     0.156 C 
BRANCH  34  35
HETATM   35  C   UNL     1      29.108  45.873  55.698  1.00  0.00     0.262 C 
HETATM   36  O   UNL     1      29.491  46.876  55.111  1.00  0.00    -0.265 OA
BRANCH  35  37
HETATM   37  O   UNL     1      29.850  45.119  56.554  1.00  0.00    -0.326 OA
HETATM   38  C   UNL     1      30.943  44.427  55.946  1.00  0.00     0.213 C 
ENDBRANCH  35  37
ENDBRANCH  34  35
ENDBRANCH   3  34
TORSDOF 9
ENDMDL
MODEL 3
REMARK VINA RESULT:      -8.9      1.562      2.339
REMARK  9 active torsions:
REMARK  status: ('A' for Active; 'I' for Inactive)
REMARK    1  A    between atoms: C_3  and  C_4 
REMARK    2  A    between atoms: C_4  and  C_5 
REMARK    3  A    between atoms: C_5  and  O_6 
REMARK    4  A    between atoms: C_16  and  O_17 
REMARK    5  A    between atoms: C_18  and  C_19 
REMARK    6  A    between atoms: C_19  and  N_20 
REMARK    7  A    between atoms: N_20  and  C_23 
REMARK    8  A    between atoms: N_26  and  C_28 
REMARK    9  A    between atoms: C_28  and  C_29 
ROOT
HETATM    1  C   UNL     1      22.768  50.273  49.670  1.00  0.00     0.050 C 
HETATM    2  C   UNL     1      22.297  49.062  48.902  1.00  0.00    -0.036 C 
HETATM    3  C   UNL     1      21.229  49.069  48.076  1.00  0.00     0.034 C 
HETATM    4  C   UNL     1      20.740  47.818  47.435  1.00  0.00     0.295 C 
HETATM    5  O   UNL     1      19.877  47.830  46.567  1.00  0.00    -0.259 OA
HETATM    6  O   UNL     1      21.296  46.633  47.876  1.00  0.00    -0.274 OA
HETATM    7  C   UNL     1      22.500  46.607  48.604  1.00  0.00     0.099 A 
HETATM    8  C   UNL     1      23.047  47.801  49.079  1.00  0.00     0.006 A 
HETATM    9  C   UNL     1      23.132  45.357  48.745  1.00  0.00     0.007 A 
HETATM   10  C   UNL     1      22.478  44.101  48.230  1.00  0.00     0.054 C 
HETATM   11  C   UNL     1      24.403  45.345  49.328  1.00  0.00     0.082 A 
HETATM   12  C   UNL     1      25.012  46.530  49.774  1.00  0.00     0.002 A 
HETATM   13  C   UNL     1      24.316  47.744  49.671  1.00  0.00     0.026 A 
ENDROOT
BRANCH  12  14
HETATM   14  C   UNL     1      26.430  46.510  50.269  1.00  0.00     0.274 C 
BRANCH  14  15
HETATM   15  N   UNL     1      26.504  45.616  51.476  1.00  0.00    -0.067 N 
HETATM   16  H   UNL     1      26.584  44.658  51.109  1.00  0.00     0.277 HD
HETATM   17  H   UNL     1      27.447  45.783  51.868  1.00  0.00     0.277 HD
BRANCH  15  18
HETATM   18  C   UNL     1      25.516  45.735  52.603  1.00  0.00     0.189 C 
HETATM   19  C   UNL     1      25.674  44.702  53.716  1.00  0.00     0.060 C 
HETATM   20  C   UNL     1      26.635  45.077  54.841  1.00  0.00     0.237 C 
HETATM   21  N   UNL     1      27.568  46.179  54.421  1.00  0.00    -0.067 N 
HETATM   22  H   UNL     1      28.129  45.842  53.624  1.00  0.00     0.280 HD
HETATM   23  C   UNL     1      26.842  47.439  54.023  1.00  0.00     0.237 C 
HETATM   24  C   UNL     1      25.598  47.150  53.176  1.00  0.00     0.060 C 
BRANCH  21  25
HETATM   25  C   UNL     1      28.673  46.461  55.465  1.00  0.00     0.273 C 
BRANCH  25  26
HETATM   26  C   UNL     1      29.564  45.304  55.817  1.00  0.00    -0.033 A 
HETATM   27  C   UNL     1      30.250  45.297  57.045  1.00  0.00     0.009 A 
HETATM   28  C   UNL     1      31.114  44.253  57.369  1.00  0.00     0.001 A 
HETATM   29  C   UNL     1      31.301  43.203  56.477  1.00  0.00     0.000 A 
HETATM   30  C   UNL     1      30.617  43.188  55.264  1.00  0.00     0.001 A 
HETATM   31  C   UNL     1      29.747  44.230  54.935  1.00  0.00     0.009 A 
ENDBRANCH  25  26
ENDBRANCH  21  25
ENDBRANCH  15  18
ENDBRANCH  14  15
ENDBRANCH  12  14
BRANCH  11  32
HETATM   32  O   UNL     1      25.140  44.181  49.422  1.00  0.00    -0.359 OA
HETATM   33  H   UNL     1      25.982  44.450  49.856  1.00  0.00     0.217 HD
ENDBRANCH  11  32
BRANCH   3  34
HETATM   34  C   UNL     1      20.408  50.278  47.682  1.00  0.00     0.156 C 
BRANCH  34  35
HETATM   35  C   UNL     1      19.381  50.606  48.748  1.00  0.00     0.262 C 
HETATM   36  O   UNL     1      18.660  49.785  49.300  1.00  0.00    -0.265 OA
BRANCH  35  37
HETATM   37  O   UNL     1      19.430  51.937  49.026  1.00  0.00    -0.326 OA
HETATM   38  C   UNL     1      18.175  52.614  48.930  1.00  0.00     0.213 C 
ENDBRANCH  35  37
ENDBRANCH  34  35
ENDBRANCH   3  34
TORSDOF 9
ENDMDL
MODEL 4
REMARK VINA RESULT:      -8.8      2.762      3.979
REMARK  9 active torsions:
REMARK  status: ('A' for Active; 'I' for Inactive)
REMARK    1  A    between atoms: C_3  and  C_4 
REMARK    2  A    between atoms: C_4  and  C_5 
REMARK    3  A    between atoms: C_5  and  O_6 
REMARK    4  A    between atoms: C_16  and  O_17 
REMARK    5  A    between atoms: C_18  and  C_19 
REMARK    6  A    between atoms: C_19  and  N_20 
REMARK    7  A    between atoms: N_20  and  C_23 
REMARK    8  A    between atoms: N_26  and  C_28 
REMARK    9  A    between atoms: C_28  and  C_29 
ROOT
HETATM    1  C   UNL     1      21.140  46.767  47.306  1.00  0.00     0.050 C 
HETATM    2  C   UNL     1      22.039  47.509  48.263  1.00  0.00    -0.036 C 
HETATM    3  C   UNL     1      21.828  48.786  48.650  1.00  0.00     0.034 C 
HETATM    4  C   UNL     1      22.811  49.506  49.505  1.00  0.00     0.295 C 
HETATM    5  O   UNL     1      22.565  50.601  49.992  1.00  0.00    -0.259 OA
HETATM    6  O   UNL     1      24.028  48.885  49.715  1.00  0.00    -0.274 OA
HETATM    7  C   UNL     1      24.211  47.514  49.464  1.00  0.00     0.099 A 
HETATM    8  C   UNL     1      23.219  46.794  48.793  1.00  0.00     0.006 A 
HETATM    9  C   UNL     1      25.377  46.921  49.984  1.00  0.00     0.007 A 
HETATM   10  C   UNL     1      26.421  47.756  50.679  1.00  0.00     0.054 C 
HETATM   11  C   UNL     1      25.491  45.531  49.878  1.00  0.00     0.082 A 
HETATM   12  C   UNL     1      24.492  44.763  49.255  1.00  0.00     0.002 A 
HETATM   13  C   UNL     1      23.378  45.405  48.694  1.00  0.00     0.026 A 
ENDROOT
BRANCH  12  14
HETATM   14  C   UNL     1      24.571  43.263  49.275  1.00  0.00     0.274 C 
BRANCH  14  15
HETATM   15  N   UNL     1      25.865  42.843  48.634  1.00  0.00    -0.067 N 
HETATM   16  H   UNL     1      26.019  43.501  47.859  1.00  0.00     0.277 HD
HETATM   17  H   UNL     1      26.595  43.121  49.313  1.00  0.00     0.277 HD
BRANCH  15  18
HETATM   18  C   UNL     1      26.123  41.412  48.252  1.00  0.00     0.189 C 
HETATM   19  C   UNL     1      27.589  41.057  48.013  1.00  0.00     0.060 C 
HETATM   20  C   UNL     1      28.377  40.617  49.243  1.00  0.00     0.237 C 
HETATM   21  N   UNL     1      27.690  41.038  50.514  1.00  0.00    -0.067 N 
HETATM   22  H   UNL     1      27.632  42.067  50.526  1.00  0.00     0.280 HD
HETATM   23  C   UNL     1      26.304  40.459  50.648  1.00  0.00     0.237 C 
HETATM   24  C   UNL     1      25.526  40.504  49.328  1.00  0.00     0.060 C 
BRANCH  21  25
HETATM   25  C   UNL     1      28.544  40.772  51.775  1.00  0.00     0.273 C 
BRANCH  25  26
HETATM   26  C   UNL     1      28.681  41.917  52.737  1.00  0.00    -0.033 A 
HETATM   27  C   UNL     1      27.546  42.662  53.104  1.00  0.00     0.009 A 
HETATM   28  C   UNL     1      27.662  43.754  53.961  1.00  0.00     0.001 A 
HETATM   29  C   UNL     1      28.907  44.115  54.466  1.00  0.00     0.000 A 
HETATM   30  C   UNL     1      30.038  43.377  54.123  1.00  0.00     0.001 A 
HETATM   31  C   UNL     1      29.927  42.279  53.267  1.00  0.00     0.009 A 
ENDBRANCH  25  26
ENDBRANCH  21  25
ENDBRANCH  15  18
ENDBRANCH  14  15
ENDBRANCH  12  14
BRANCH  11  32
HETATM   32  O   UNL     1      26.551  44.851  50.442  1.00  0.00    -0.359 OA
HETATM   33  H   UNL     1      26.294  44.717  51.382  1.00  0.00     0.217 HD
ENDBRANCH  11  32
BRANCH   3  34
HETATM   34  C   UNL     1      20.627  49.640  48.307  1.00  0.00     0.156 C 
BRANCH  34  35
HETATM   35  C   UNL     1      19.501  49.412  49.297  1.00  0.00     0.262 C 
HETATM   36  O   UNL     1      19.414  48.449  50.048  1.00  0.00    -0.265 OA
BRANCH  35  37
HETATM   37  O   UNL     1      18.642  50.467  49.252  1.00  0.00    -0.326 OA
HETATM   38  C   UNL     1      19.150  51.676  49.819  1.00  0.00     0.213 C 
ENDBRANCH  35  37
ENDBRANCH  34  35
ENDBRANCH   3  34
TORSDOF 9
ENDMDL
MODEL 5
REMARK VINA RESULT:      -8.7      3.751     10.440
REMARK  9 active torsions:
REMARK  status: ('A' for Active; 'I' for Inactive)
REMARK    1  A    between atoms: C_3  and  C_4 
REMARK    2  A    between atoms: C_4  and  C_5 
REMARK    3  A    between atoms: C_5  and  O_6 
REMARK    4  A    between atoms: C_16  and  O_17 
REMARK    5  A    between atoms: C_18  and  C_19 
REMARK    6  A    between atoms: C_19  and  N_20 
REMARK    7  A    between atoms: N_20  and  C_23 
REMARK    8  A    between atoms: N_26  and  C_28 
REMARK    9  A    between atoms: C_28  and  C_29 
ROOT
HETATM    1  C   UNL     1      25.282  42.481  48.643  1.00  0.00     0.050 C 
HETATM    2  C   UNL     1      26.116  42.578  49.896  1.00  0.00    -0.036 C 
HETATM    3  C   UNL     1      26.875  41.566  50.371  1.00  0.00     0.034 C 
HETATM    4  C   UNL     1      27.585  41.679  51.674  1.00  0.00     0.295 C 
HETATM    5  O   UNL     1      28.397  40.840  52.043  1.00  0.00    -0.259 OA
HETATM    6  O   UNL     1      27.274  42.771  52.461  1.00  0.00    -0.274 OA
HETATM    7  C   UNL     1      26.624  43.901  51.934  1.00  0.00     0.099 A 
HETATM    8  C   UNL     1      26.086  43.852  50.645  1.00  0.00     0.006 A 
HETATM    9  C   UNL     1      26.621  45.063  52.728  1.00  0.00     0.007 A 
HETATM   10  C   UNL     1      27.197  45.045  54.120  1.00  0.00     0.054 C 
HETATM   11  C   UNL     1      26.117  46.233  52.150  1.00  0.00     0.082 A 
HETATM   12  C   UNL     1      25.613  46.240  50.838  1.00  0.00     0.002 A 
HETATM   13  C   UNL     1      25.577  45.042  50.108  1.00  0.00     0.026 A 
ENDROOT
BRANCH  12  14
HETATM   14  C   UNL     1      25.206  47.533  50.192  1.00  0.00     0.274 C 
BRANCH  14  15
HETATM   15  N   UNL     1      23.712  47.534  50.022  1.00  0.00    -0.067 N 
HETATM   16  H   UNL     1      23.384  46.648  50.430  1.00  0.00     0.277 HD
HETATM   17  H   UNL     1      23.371  48.234  50.703  1.00  0.00     0.277 HD
BRANCH  15  18
HETATM   18  C   UNL     1      23.073  47.843  48.696  1.00  0.00     0.189 C 
HETATM   19  C   UNL     1      21.557  47.669  48.650  1.00  0.00     0.060 C 
HETATM   20  C   UNL     1      20.734  48.888  49.057  1.00  0.00     0.237 C 
HETATM   21  N   UNL     1      21.560  49.870  49.843  1.00  0.00    -0.067 N 
HETATM   22  H   UNL     1      21.885  49.404  50.704  1.00  0.00     0.280 HD
HETATM   23  C   UNL     1      22.751  50.380  49.071  1.00  0.00     0.237 C 
HETATM   24  C   UNL     1      23.457  49.267  48.290  1.00  0.00     0.060 C 
BRANCH  21  25
HETATM   25  C   UNL     1      20.720  51.027  50.428  1.00  0.00     0.273 C 
BRANCH  25  26
HETATM   26  C   UNL     1      19.488  51.409  49.658  1.00  0.00    -0.033 A 
HETATM   27  C   UNL     1      18.221  51.006  50.118  1.00  0.00     0.009 A 
HETATM   28  C   UNL     1      17.073  51.314  49.392  1.00  0.00     0.001 A 
HETATM   29  C   UNL     1      17.171  52.030  48.203  1.00  0.00     0.000 A 
HETATM   30  C   UNL     1      18.417  52.449  47.743  1.00  0.00     0.001 A 
HETATM   31  C   UNL     1      19.572  52.146  48.468  1.00  0.00     0.009 A 
ENDBRANCH  25  26
ENDBRANCH  21  25
ENDBRANCH  15  18
ENDBRANCH  14  15
ENDBRANCH  12  14
BRANCH  11  32
HETATM   32  O   UNL     1      26.161  47.441  52.816  1.00  0.00    -0.359 OA
HETATM   33  H   UNL     1      25.652  48.062  52.247  1.00  0.00     0.217 HD
ENDBRANCH  11  32
BRANCH   3  34
HETATM   34  C   UNL     1      27.121  40.236  49.692  1.00  0.00     0.156 C 
BRANCH  34  35
HETATM   35  C   UNL     1      28.289  40.327  48.729  1.00  0.00     0.262 C 
HETATM   36  O   UNL     1      28.359  41.107  47.788  1.00  0.00    -0.265 OA
BRANCH  35  37
HETATM   37  O   UNL     1      29.256  39.449  49.110  1.00  0.00    -0.326 OA
HETATM   38  C   UNL     1      28.828  38.088  49.194  1.00  0.00     0.213 C 
ENDBRANCH  35  37
ENDBRANCH  34  35
ENDBRANCH   3  34
TORSDOF 9
ENDMDL
MODEL 6
REMARK VINA RESULT:      -8.6      2.237      3.719
REMARK  9 active torsions:
REMARK  status: ('A' for Active; 'I' for Inactive)
REMARK    1  A    between atoms: C_3  and  C_4 
REMARK    2  A    between atoms: C_4  and  C_5 
REMARK    3  A    between atoms: C_5  and  O_6 
REMARK    4  A    between atoms: C_16  and  O_17 
REMARK    5  A    between atoms: C_18  and  C_19 
REMARK    6  A    between atoms: C_19  and  N_20 
REMARK    7  A    between atoms: N_20  and  C_23 
REMARK    8  A    between atoms: N_26  and  C_28 
REMARK    9  A    between atoms: C_28  and  C_29 
ROOT
HETATM    1  C   UNL     1      22.527  49.944  49.392  1.00  0.00     0.050 C 
HETATM    2  C   UNL     1      21.416  49.225  48.668  1.00  0.00    -0.036 C 
HETATM    3  C   UNL     1      20.353  49.851  48.118  1.00  0.00     0.034 C 
HETATM    4  C   UNL     1      19.230  49.082  47.517  1.00  0.00     0.295 C 
HETATM    5  O   UNL     1      18.340  49.629  46.879  1.00  0.00    -0.259 OA
HETATM    6  O   UNL     1      19.227  47.716  47.725  1.00  0.00    -0.274 OA
HETATM    7  C   UNL     1      20.381  47.030  48.145  1.00  0.00     0.099 A 
HETATM    8  C   UNL     1      21.500  47.753  48.568  1.00  0.00     0.006 A 
HETATM    9  C   UNL     1      20.362  45.627  48.040  1.00  0.00     0.007 A 
HETATM   10  C   UNL     1      19.116  44.905  47.599  1.00  0.00     0.054 C 
HETATM   11  C   UNL     1      21.556  44.949  48.305  1.00  0.00     0.082 A 
HETATM   12  C   UNL     1      22.719  45.640  48.684  1.00  0.00     0.002 A 
HETATM   13  C   UNL     1      22.673  47.034  48.839  1.00  0.00     0.026 A 
ENDROOT
BRANCH  12  14
HETATM   14  C   UNL     1      24.021  44.906  48.830  1.00  0.00     0.274 C 
BRANCH  14  15
HETATM   15  N   UNL     1      24.587  45.199  50.192  1.00  0.00    -0.067 N 
HETATM   16  H   UNL     1      23.814  45.610  50.732  1.00  0.00     0.277 HD
HETATM   17  H   UNL     1      24.699  44.270  50.634  1.00  0.00     0.277 HD
BRANCH  15  18
HETATM   18  C   UNL     1      25.884  45.941  50.360  1.00  0.00     0.189 C 
HETATM   19  C   UNL     1      25.960  46.843  51.590  1.00  0.00     0.060 C 
HETATM   20  C   UNL     1      26.453  46.180  52.873  1.00  0.00     0.237 C 
HETATM   21  N   UNL     1      26.346  44.682  52.792  1.00  0.00    -0.067 N 
HETATM   22  H   UNL     1      25.353  44.434  52.668  1.00  0.00     0.280 HD
HETATM   23  C   UNL     1      27.150  44.099  51.657  1.00  0.00     0.237 C 
HETATM   24  C   UNL     1      27.028  44.927  50.374  1.00  0.00     0.060 C 
BRANCH  21  25
HETATM   25  C   UNL     1      26.662  43.984  54.134  1.00  0.00     0.273 C 
BRANCH  25  26
HETATM   26  C   UNL     1      28.073  44.114  54.633  1.00  0.00    -0.033 A 
HETATM   27  C   UNL     1      29.008  43.098  54.364  1.00  0.00     0.009 A 
HETATM   28  C   UNL     1      30.308  43.183  54.857  1.00  0.00     0.001 A 
HETATM   29  C   UNL     1      30.694  44.280  55.619  1.00  0.00     0.000 A 
HETATM   30  C   UNL     1      29.784  45.301  55.881  1.00  0.00     0.001 A 
HETATM   31  C   UNL     1      28.480  45.224  55.387  1.00  0.00     0.009 A 
ENDBRANCH  25  26
ENDBRANCH  21  25
ENDBRANCH  15  18
ENDBRANCH  14  15
ENDBRANCH  12  14
BRANCH  11  32
HETATM   32  O   UNL     1      21.661  43.583  48.136  1.00  0.00    -0.359 OA
HETATM   33  H   UNL     1      21.840  43.229  49.036  1.00  0.00     0.217 HD
ENDBRANCH  11  32
BRANCH   3  34
HETATM   34  C   UNL     1      20.146  51.347  48.020  1.00  0.00     0.156 C 
BRANCH  34  35
HETATM   35  C   UNL     1      19.283  51.850  49.161  1.00  0.00     0.262 C 
HETATM   36  O   UNL     1      19.497  51.634  50.347  1.00  0.00    -0.265 OA
BRANCH  35  37
HETATM   37  O   UNL     1      18.275  52.615  48.660  1.00  0.00    -0.326 OA
HETATM   38  C   UNL     1      16.963  52.196  49.038  1.00  0.00     0.213 C 
ENDBRANCH  35  37
ENDBRANCH  34  35
ENDBRANCH   3  34
TORSDOF 9
ENDMDL
MODEL 7
REMARK VINA RESULT:      -8.4     18.275     21.376
REMARK  9 active torsions:
REMARK  status: ('A' for Active; 'I' for Inactive)
REMARK    1  A    between atoms: C_3  and  C_4 
REMARK    2  A    between atoms: C_4  and  C_5 
REMARK    3  A    between atoms: C_5  and  O_6 
REMARK    4  A    between atoms: C_16  and  O_17 
REMARK    5  A    between atoms: C_18  and  C_19 
REMARK    6  A    between atoms: C_19  and  N_20 
REMARK    7  A    between atoms: N_20  and  C_23 
REMARK    8  A    between atoms: N_26  and  C_28 
REMARK    9  A    between atoms: C_28  and  C_29 
ROOT
HETATM    1  C   UNL     1      38.342  44.697  66.727  1.00  0.00     0.050 C 
HETATM    2  C   UNL     1      39.356  45.566  66.027  1.00  0.00    -0.036 C 
HETATM    3  C   UNL     1      39.096  46.819  65.593  1.00  0.00     0.034 C 
HETATM    4  C   UNL     1      40.098  47.587  64.805  1.00  0.00     0.295 C 
HETATM    5  O   UNL     1      39.942  48.772  64.540  1.00  0.00    -0.259 OA
HETATM    6  O   UNL     1      41.212  46.896  64.371  1.00  0.00    -0.274 OA
HETATM    7  C   UNL     1      41.581  45.660  64.932  1.00  0.00     0.099 A 
HETATM    8  C   UNL     1      40.703  45.004  65.798  1.00  0.00     0.006 A 
HETATM    9  C   UNL     1      42.875  45.188  64.639  1.00  0.00     0.007 A 
HETATM   10  C   UNL     1      43.766  45.931  63.678  1.00  0.00     0.054 C 
HETATM   11  C   UNL     1      43.307  44.044  65.316  1.00  0.00     0.082 A 
HETATM   12  C   UNL     1      42.475  43.381  66.234  1.00  0.00     0.002 A 
HETATM   13  C   UNL     1      41.170  43.852  66.446  1.00  0.00     0.026 A 
ENDROOT
BRANCH  12  14
HETATM   14  C   UNL     1      43.008  42.238  67.050  1.00  0.00     0.274 C 
BRANCH  14  15
HETATM   15  N   UNL     1      43.353  41.106  66.121  1.00  0.00    -0.067 N 
HETATM   16  H   UNL     1      43.076  41.422  65.182  1.00  0.00     0.277 HD
HETATM   17  H   UNL     1      44.386  41.119  66.066  1.00  0.00     0.277 HD
BRANCH  15  18
HETATM   18  C   UNL     1      42.931  39.694  66.415  1.00  0.00     0.189 C 
HETATM   19  C   UNL     1      41.706  39.555  67.316  1.00  0.00     0.060 C 
HETATM   20  C   UNL     1      40.355  39.554  66.607  1.00  0.00     0.237 C 
HETATM   21  N   UNL     1      40.462  40.129  65.220  1.00  0.00    -0.067 N 
HETATM   22  H   UNL     1      40.778  41.107  65.299  1.00  0.00     0.280 HD
HETATM   23  C   UNL     1      41.422  39.363  64.344  1.00  0.00     0.237 C 
HETATM   24  C   UNL     1      42.700  38.967  65.089  1.00  0.00     0.060 C 
BRANCH  21  25
HETATM   25  C   UNL     1      39.088  40.313  64.539  1.00  0.00     0.273 C 
BRANCH  25  26
HETATM   26  C   UNL     1      38.840  41.647  63.894  1.00  0.00    -0.033 A 
HETATM   27  C   UNL     1      39.903  42.338  63.285  1.00  0.00     0.009 A 
HETATM   28  C   UNL     1      39.700  43.596  62.722  1.00  0.00     0.001 A 
HETATM   29  C   UNL     1      38.437  44.178  62.753  1.00  0.00     0.000 A 
HETATM   30  C   UNL     1      37.371  43.498  63.339  1.00  0.00     0.001 A 
HETATM   31  C   UNL     1      37.568  42.236  63.902  1.00  0.00     0.009 A 
ENDBRANCH  25  26
ENDBRANCH  21  25
ENDBRANCH  15  18
ENDBRANCH  14  15
ENDBRANCH  12  14
BRANCH  11  32
HETATM   32  O   UNL     1      44.592  43.562  65.167  1.00  0.00    -0.359 OA
HETATM   33  H   UNL     1      45.036  43.755  66.023  1.00  0.00     0.217 HD
ENDBRANCH  11  32
BRANCH   3  34
HETATM   34  C   UNL     1      37.823  47.603  65.830  1.00  0.00     0.156 C 
BRANCH  34  35
HETATM   35  C   UNL     1      36.702  47.096  64.943  1.00  0.00     0.262 C 
HETATM   36  O   UNL     1      36.755  47.022  63.722  1.00  0.00    -0.265 OA
BRANCH  35  37
HETATM   37  O   UNL     1      35.661  46.690  65.721  1.00  0.00    -0.326 OA
HETATM   38  C   UNL     1      35.617  47.289  67.018  1.00  0.00     0.213 C 
ENDBRANCH  35  37
ENDBRANCH  34  35
ENDBRANCH   3  34
TORSDOF 9
ENDMDL
MODEL 8
REMARK VINA RESULT:      -8.3      2.378      3.424
REMARK  9 active torsions:
REMARK  status: ('A' for Active; 'I' for Inactive)
REMARK    1  A    between atoms: C_3  and  C_4 
REMARK    2  A    between atoms: C_4  and  C_5 
REMARK    3  A    between atoms: C_5  and  O_6 
REMARK    4  A    between atoms: C_16  and  O_17 
REMARK    5  A    between atoms: C_18  and  C_19 
REMARK    6  A    between atoms: C_19  and  N_20 
REMARK    7  A    between atoms: N_20  and  C_23 
REMARK    8  A    between atoms: N_26  and  C_28 
REMARK    9  A    between atoms: C_28  and  C_29 
ROOT
HETATM    1  C   UNL     1      23.527  47.886  49.533  1.00  0.00     0.050 C 
HETATM    2  C   UNL     1      23.018  46.678  48.787  1.00  0.00    -0.036 C 
HETATM    3  C   UNL     1      22.001  46.720  47.899  1.00  0.00     0.034 C 
HETATM    4  C   UNL     1      21.464  45.478  47.280  1.00  0.00     0.295 C 
HETATM    5  O   UNL     1      20.654  45.510  46.363  1.00  0.00    -0.259 OA
HETATM    6  O   UNL     1      21.911  44.278  47.800  1.00  0.00    -0.274 OA
HETATM    7  C   UNL     1      23.067  44.203  48.598  1.00  0.00     0.099 A 
HETATM    8  C   UNL     1      23.667  45.378  49.058  1.00  0.00     0.006 A 
HETATM    9  C   UNL     1      23.602  42.921  48.825  1.00  0.00     0.007 A 
HETATM   10  C   UNL     1      22.894  41.691  48.322  1.00  0.00     0.054 C 
HETATM   11  C   UNL     1      24.835  42.850  49.482  1.00  0.00     0.082 A 
HETATM   12  C   UNL     1      25.498  44.010  49.917  1.00  0.00     0.002 A 
HETATM   13  C   UNL     1      24.895  45.262  49.725  1.00  0.00     0.026 A 
ENDROOT
BRANCH  12  14
HETATM   14  C   UNL     1      26.881  43.918  50.495  1.00  0.00     0.274 C 
BRANCH  14  15
HETATM   15  N   UNL     1      26.990  44.893  51.635  1.00  0.00    -0.067 N 
HETATM   16  H   UNL     1      27.969  44.844  51.950  1.00  0.00     0.277 HD
HETATM   17  H   UNL     1      26.946  45.824  51.187  1.00  0.00     0.277 HD
BRANCH  15  18
HETATM   18  C   UNL     1      26.005  44.887  52.770  1.00  0.00     0.189 C 
HETATM   19  C   UNL     1      26.368  43.977  53.941  1.00  0.00     0.060 C 
HETATM   20  C   UNL     1      27.243  44.602  55.024  1.00  0.00     0.237 C 
HETATM   21  N   UNL     1      27.940  45.836  54.521  1.00  0.00    -0.067 N 
HETATM   22  H   UNL     1      28.551  45.566  53.736  1.00  0.00     0.280 HD
HETATM   23  C   UNL     1      26.979  46.903  54.061  1.00  0.00     0.237 C 
HETATM   24  C   UNL     1      25.811  46.325  53.255  1.00  0.00     0.060 C 
BRANCH  21  25
HETATM   25  C   UNL     1      28.974  46.393  55.526  1.00  0.00     0.273 C 
BRANCH  25  26
HETATM   26  C   UNL     1      29.867  45.383  56.188  1.00  0.00    -0.033 A 
HETATM   27  C   UNL     1      30.226  45.544  57.538  1.00  0.00     0.009 A 
HETATM   28  C   UNL     1      31.089  44.640  58.154  1.00  0.00     0.001 A 
HETATM   29  C   UNL     1      31.600  43.564  57.436  1.00  0.00     0.000 A 
HETATM   30  C   UNL     1      31.242  43.384  56.102  1.00  0.00     0.001 A 
HETATM   31  C   UNL     1      30.375  44.284  55.480  1.00  0.00     0.009 A 
ENDBRANCH  25  26
ENDBRANCH  21  25
ENDBRANCH  15  18
ENDBRANCH  14  15
ENDBRANCH  12  14
BRANCH  11  32
HETATM   32  O   UNL     1      25.483  41.645  49.666  1.00  0.00    -0.359 OA
HETATM   33  H   UNL     1      24.797  41.042  50.031  1.00  0.00     0.217 HD
ENDBRANCH  11  32
BRANCH   3  34
HETATM   34  C   UNL     1      21.289  47.963  47.410  1.00  0.00     0.156 C 
BRANCH  34  35
HETATM   35  C   UNL     1      20.139  48.325  48.330  1.00  0.00     0.262 C 
HETATM   36  O   UNL     1      20.263  48.850  49.430  1.00  0.00    -0.265 OA
BRANCH  35  37
HETATM   37  O   UNL     1      18.961  48.026  47.719  1.00  0.00    -0.326 OA
HETATM   38  C   UNL     1      18.178  47.033  48.386  1.00  0.00     0.213 C 
ENDBRANCH  35  37
ENDBRANCH  34  35
ENDBRANCH   3  34
TORSDOF 9
ENDMDL
MODEL 9
REMARK VINA RESULT:      -8.3      3.368      9.645
REMARK  9 active torsions:
REMARK  status: ('A' for Active; 'I' for Inactive)
REMARK    1  A    between atoms: C_3  and  C_4 
REMARK    2  A    between atoms: C_4  and  C_5 
REMARK    3  A    between atoms: C_5  and  O_6 
REMARK    4  A    between atoms: C_16  and  O_17 
REMARK    5  A    between atoms: C_18  and  C_19 
REMARK    6  A    between atoms: C_19  and  N_20 
REMARK    7  A    between atoms: N_20  and  C_23 
REMARK    8  A    between atoms: N_26  and  C_28 
REMARK    9  A    between atoms: C_28  and  C_29 
ROOT
HETATM    1  C   UNL     1      24.219  43.466  50.850  1.00  0.00     0.050 C 
HETATM    2  C   UNL     1      24.505  44.945  50.762  1.00  0.00    -0.036 C 
HETATM    3  C   UNL     1      25.429  45.575  51.519  1.00  0.00     0.034 C 
HETATM    4  C   UNL     1      25.587  47.054  51.472  1.00  0.00     0.295 C 
HETATM    5  O   UNL     1      26.517  47.623  52.029  1.00  0.00    -0.259 OA
HETATM    6  O   UNL     1      24.624  47.763  50.782  1.00  0.00    -0.274 OA
HETATM    7  C   UNL     1      23.758  47.136  49.867  1.00  0.00     0.099 A 
HETATM    8  C   UNL     1      23.717  45.741  49.798  1.00  0.00     0.006 A 
HETATM    9  C   UNL     1      23.027  47.975  49.005  1.00  0.00     0.007 A 
HETATM   10  C   UNL     1      23.097  49.472  49.146  1.00  0.00     0.054 C 
HETATM   11  C   UNL     1      22.286  47.360  47.990  1.00  0.00     0.082 A 
HETATM   12  C   UNL     1      22.257  45.961  47.853  1.00  0.00     0.002 A 
HETATM   13  C   UNL     1      22.951  45.164  48.776  1.00  0.00     0.026 A 
ENDROOT
BRANCH  12  14
HETATM   14  C   UNL     1      21.569  45.332  46.676  1.00  0.00     0.274 C 
BRANCH  14  15
HETATM   15  N   UNL     1      20.128  45.095  47.034  1.00  0.00    -0.067 N 
HETATM   16  H   UNL     1      20.125  44.269  47.648  1.00  0.00     0.277 HD
HETATM   17  H   UNL     1      19.891  45.861  47.688  1.00  0.00     0.277 HD
BRANCH  15  18
HETATM   18  C   UNL     1      19.055  45.049  45.982  1.00  0.00     0.189 C 
HETATM   19  C   UNL     1      17.633  45.262  46.495  1.00  0.00     0.060 C 
HETATM   20  C   UNL     1      17.161  46.711  46.568  1.00  0.00     0.237 C 
HETATM   21  N   UNL     1      18.322  47.668  46.545  1.00  0.00    -0.067 N 
HETATM   22  H   UNL     1      18.910  47.484  47.371  1.00  0.00     0.280 HD
HETATM   23  C   UNL     1      19.160  47.539  45.298  1.00  0.00     0.237 C 
HETATM   24  C   UNL     1      19.388  46.077  44.900  1.00  0.00     0.060 C 
BRANCH  21  25
HETATM   25  C   UNL     1      17.898  49.132  46.801  1.00  0.00     0.273 C 
BRANCH  25  26
HETATM   26  C   UNL     1      18.658  49.866  47.868  1.00  0.00    -0.033 A 
HETATM   27  C   UNL     1      18.813  49.287  49.141  1.00  0.00     0.009 A 
HETATM   28  C   UNL     1      19.476  49.973  50.156  1.00  0.00     0.001 A 
HETATM   29  C   UNL     1      19.997  51.240  49.915  1.00  0.00     0.000 A 
HETATM   30  C   UNL     1      19.865  51.819  48.655  1.00  0.00     0.001 A 
HETATM   31  C   UNL     1      19.204  51.135  47.633  1.00  0.00     0.009 A 
ENDBRANCH  25  26
ENDBRANCH  21  25
ENDBRANCH  15  18
ENDBRANCH  14  15
ENDBRANCH  12  14
BRANCH  11  32
HETATM   32  O   UNL     1      21.615  48.102  47.040  1.00  0.00    -0.359 OA
HETATM   33  H   UNL     1      21.382  47.457  46.333  1.00  0.00     0.217 HD
ENDBRANCH  11  32
BRANCH   3  34
HETATM   34  C   UNL     1      26.403  44.919  52.473  1.00  0.00     0.156 C 
BRANCH  34  35
HETATM   35  C   UNL     1      25.850  44.904  53.886  1.00  0.00     0.262 C 
HETATM   36  O   UNL     1      24.815  44.345  54.224  1.00  0.00    -0.265 OA
BRANCH  35  37
HETATM   37  O   UNL     1      26.709  45.559  54.713  1.00  0.00    -0.326 OA
HETATM   38  C   UNL     1      28.072  45.143  54.608  1.00  0.00     0.213 C 
ENDBRANCH  35  37
ENDBRANCH  34  35
ENDBRANCH   3  34
TORSDOF 9
ENDMDL
MODEL 10
REMARK VINA RESULT:      -8.2      2.510      3.790
REMARK  9 active torsions:
REMARK  status: ('A' for Active; 'I' for Inactive)
REMARK    1  A    between atoms: C_3  and  C_4 
REMARK    2  A    between atoms: C_4  and  C_5 
REMARK    3  A    between atoms: C_5  and  O_6 
REMARK    4  A    between atoms: C_16  and  O_17 
REMARK    5  A    between atoms: C_18  and  C_19 
REMARK    6  A    between atoms: C_19  and  N_20 
REMARK    7  A    between atoms: N_20  and  C_23 
REMARK    8  A    between atoms: N_26  and  C_28 
REMARK    9  A    between atoms: C_28  and  C_29 
ROOT
HETATM    1  C   UNL     1      21.687  46.887  46.973  1.00  0.00     0.050 C 
HETATM    2  C   UNL     1      22.459  47.512  48.108  1.00  0.00    -0.036 C 
HETATM    3  C   UNL     1      22.603  48.845  48.271  1.00  0.00     0.034 C 
HETATM    4  C   UNL     1      23.473  49.403  49.342  1.00  0.00     0.295 C 
HETATM    5  O   UNL     1      23.492  50.599  49.602  1.00  0.00    -0.259 OA
HETATM    6  O   UNL     1      24.273  48.508  50.025  1.00  0.00    -0.274 OA
HETATM    7  C   UNL     1      24.031  47.123  49.989  1.00  0.00     0.099 A 
HETATM    8  C   UNL     1      23.098  46.607  49.086  1.00  0.00     0.006 A 
HETATM    9  C   UNL     1      24.704  46.333  50.941  1.00  0.00     0.007 A 
HETATM   10  C   UNL     1      25.715  46.947  51.873  1.00  0.00     0.054 C 
HETATM   11  C   UNL     1      24.350  44.982  51.017  1.00  0.00     0.082 A 
HETATM   12  C   UNL     1      23.380  44.433  50.161  1.00  0.00     0.002 A 
HETATM   13  C   UNL     1      22.783  45.245  49.185  1.00  0.00     0.026 A 
ENDROOT
BRANCH  12  14
HETATM   14  C   UNL     1      22.920  43.016  50.353  1.00  0.00     0.274 C 
BRANCH  14  15
HETATM   15  N   UNL     1      24.079  42.198  50.852  1.00  0.00    -0.067 N 
HETATM   16  H   UNL     1      24.607  42.818  51.481  1.00  0.00     0.277 HD
HETATM   17  H   UNL     1      23.657  41.520  51.510  1.00  0.00     0.277 HD
BRANCH  15  18
HETATM   18  C   UNL     1      24.960  41.428  49.909  1.00  0.00     0.189 C 
HETATM   19  C   UNL     1      25.609  42.256  48.803  1.00  0.00     0.060 C 
HETATM   20  C   UNL     1      26.950  42.895  49.149  1.00  0.00     0.237 C 
HETATM   21  N   UNL     1      27.161  42.956  50.637  1.00  0.00    -0.067 N 
HETATM   22  H   UNL     1      26.417  43.540  51.047  1.00  0.00     0.280 HD
HETATM   23  C   UNL     1      27.141  41.595  51.286  1.00  0.00     0.237 C 
HETATM   24  C   UNL     1      26.030  40.701  50.725  1.00  0.00     0.060 C 
BRANCH  21  25
HETATM   25  C   UNL     1      28.421  43.759  51.033  1.00  0.00     0.273 C 
BRANCH  25  26
HETATM   26  C   UNL     1      28.828  43.686  52.477  1.00  0.00    -0.033 A 
HETATM   27  C   UNL     1      28.059  44.344  53.455  1.00  0.00     0.009 A 
HETATM   28  C   UNL     1      28.446  44.323  54.793  1.00  0.00     0.001 A 
HETATM   29  C   UNL     1      29.600  43.645  55.174  1.00  0.00     0.000 A 
HETATM   30  C   UNL     1      30.363  42.977  54.219  1.00  0.00     0.001 A 
HETATM   31  C   UNL     1      29.978  42.991  52.877  1.00  0.00     0.009 A 
ENDBRANCH  25  26
ENDBRANCH  21  25
ENDBRANCH  15  18
ENDBRANCH  14  15
ENDBRANCH  12  14
BRANCH  11  32
HETATM   32  O   UNL     1      24.885  44.152  51.981  1.00  0.00    -0.359 OA
HETATM   33  H   UNL     1      25.340  43.439  51.477  1.00  0.00     0.217 HD
ENDBRANCH  11  32
BRANCH   3  34
HETATM   34  C   UNL     1      21.938  49.925  47.446  1.00  0.00     0.156 C 
BRANCH  34  35
HETATM   35  C   UNL     1      20.703  50.458  48.147  1.00  0.00     0.262 C 
HETATM   36  O   UNL     1      20.559  51.613  48.526  1.00  0.00    -0.265 OA
BRANCH  35  37
HETATM   37  O   UNL     1      19.773  49.469  48.235  1.00  0.00    -0.326 OA
HETATM   38  C   UNL     1      18.425  49.896  48.027  1.00  0.00     0.213 C 
ENDBRANCH  35  37
ENDBRANCH  34  35
ENDBRANCH   3  34
TORSDOF 9
ENDMDL
