MODEL 1
REMARK VINA RESULT:      -8.6      0.000      0.000
REMARK  5 active torsions:
REMARK  status: ('A' for Active; 'I' for Inactive)
REMARK    1  A    between atoms: C_2  and  N_3 
REMARK    2  A    between atoms: C_7  and  N_8 
REMARK       I    between atoms: N_8  and  C_9 
REMARK       I    between atoms: C_9  and  N_10 
REMARK    3  A    between atoms: N_10  and  C_11 
REMARK    4  A    between atoms: C_11  and  C_12 
REMARK    5  A    between atoms: C_17  and  C_18 
ROOT
HETATM    1  N   UNL     1      27.484  40.979  52.013  1.00  0.00    -0.293 N 
HETATM    2  C   UNL     1      28.591  41.152  52.869  1.00  0.00     0.322 C 
HETATM    3  N   UNL     1      29.396  42.219  52.591  1.00  0.00    -0.339 N 
HETATM    4  O   UNL     1      28.654  40.414  53.834  1.00  0.00    -0.247 OA
HETATM    5  H   UNL     1      26.718  40.467  52.435  1.00  0.00     0.172 HD
HETATM    6  H   UNL     1      28.997  42.936  52.006  1.00  0.00     0.164 HD
ENDROOT
BRANCH   3   7
HETATM    7  C   UNL     1      30.311  42.618  53.639  1.00  0.00     0.163 C 
BRANCH   7   8
HETATM    8  C   UNL     1      29.832  43.692  54.584  1.00  0.00    -0.037 A 
HETATM    9  C   UNL     1      28.814  44.550  54.134  1.00  0.00     0.051 A 
HETATM   10  C   UNL     1      28.394  45.627  54.907  1.00  0.00     0.117 A 
HETATM   11  F   UNL     1      27.433  46.435  54.442  1.00  0.00    -0.206 F 
HETATM   12  C   UNL     1      28.968  45.886  56.142  1.00  0.00     0.058 A 
HETATM   13  C   UNL     1      29.988  45.053  56.621  1.00  0.00     0.051 A 
HETATM   14  C   UNL     1      30.422  43.966  55.829  1.00  0.00     0.025 A 
BRANCH  13  15
HETATM   15  C   UNL     1      30.646  45.335  57.951  1.00  0.00     0.417 C 
HETATM   16  F   UNL     1      31.061  46.621  58.097  1.00  0.00    -0.166 F 
HETATM   17  F   UNL     1      29.811  45.085  58.998  1.00  0.00    -0.166 F 
HETATM   18  F   UNL     1      31.743  44.554  58.153  1.00  0.00    -0.166 F 
ENDBRANCH  13  15
ENDBRANCH   7   8
ENDBRANCH   3   7
BRANCH   1  19
HETATM   19  C   UNL     1      27.328  41.398  50.707  1.00  0.00     0.129 C 
HETATM   20  N   UNL     1      26.984  42.619  50.167  1.00  0.00    -0.250 N 
HETATM   21  N   UNL     1      26.895  42.574  48.819  1.00  0.00    -0.183 NA
HETATM   22  C   UNL     1      27.325  41.353  48.500  1.00  0.00     0.142 C 
HETATM   23  C   UNL     1      27.634  40.587  49.636  1.00  0.00     0.071 C 
BRANCH  20  24
HETATM   24  C   UNL     1      26.946  43.925  50.821  1.00  0.00     0.104 C 
HETATM   25  C   UNL     1      25.779  44.030  51.804  1.00  0.00     0.034 C 
HETATM   26  C   UNL     1      26.903  45.056  49.789  1.00  0.00     0.034 C 
ENDBRANCH  20  24
ENDBRANCH   1  19
TORSDOF 5
ENDMDL
MODEL 2
REMARK VINA RESULT:      -8.3      0.914      2.920
REMARK  5 active torsions:
REMARK  status: ('A' for Active; 'I' for Inactive)
REMARK    1  A    between atoms: C_2  and  N_3 
REMARK    2  A    between atoms: C_7  and  N_8 
REMARK       I    between atoms: N_8  and  C_9 
REMARK       I    between atoms: C_9  and  N_10 
REMARK    3  A    between atoms: N_10  and  C_11 
REMARK    4  A    between atoms: C_11  and  C_12 
REMARK    5  A    between atoms: C_17  and  C_18 
ROOT
HETATM    1  N   UNL     1      27.357  40.924  52.058  1.00  0.00    -0.293 N 
HETATM    2  C   UNL     1      28.353  41.186  53.021  1.00  0.00     0.322 C 
HETATM    3  N   UNL     1      29.071  42.333  52.835  1.00  0.00    -0.339 N 
HETATM    4  O   UNL     1      28.397  40.437  53.978  1.00  0.00    -0.247 OA
HETATM    5  H   UNL     1      26.609  40.329  52.397  1.00  0.00     0.172 HD
HETATM    6  H   UNL     1      28.661  43.019  52.223  1.00  0.00     0.164 HD
ENDROOT
BRANCH   3   7
HETATM    7  C   UNL     1      29.836  42.797  53.973  1.00  0.00     0.163 C 
BRANCH   7   8
HETATM    8  C   UNL     1      29.395  44.095  54.602  1.00  0.00    -0.037 A 
HETATM    9  C   UNL     1      30.133  44.571  55.700  1.00  0.00     0.051 A 
HETATM   10  C   UNL     1      29.725  45.704  56.396  1.00  0.00     0.117 A 
HETATM   11  F   UNL     1      30.440  46.122  57.448  1.00  0.00    -0.206 F 
HETATM   12  C   UNL     1      28.581  46.395  56.029  1.00  0.00     0.058 A 
HETATM   13  C   UNL     1      27.820  45.947  54.941  1.00  0.00     0.051 A 
HETATM   14  C   UNL     1      28.228  44.789  54.242  1.00  0.00     0.025 A 
BRANCH  13  15
HETATM   15  C   UNL     1      26.554  46.668  54.543  1.00  0.00     0.417 C 
HETATM   16  F   UNL     1      26.603  47.216  53.299  1.00  0.00    -0.166 F 
HETATM   17  F   UNL     1      25.471  45.844  54.552  1.00  0.00    -0.166 F 
HETATM   18  F   UNL     1      26.257  47.686  55.396  1.00  0.00    -0.166 F 
ENDBRANCH  13  15
ENDBRANCH   7   8
ENDBRANCH   3   7
BRANCH   1  19
HETATM   19  C   UNL     1      27.286  41.353  50.748  1.00  0.00     0.129 C 
HETATM   20  N   UNL     1      26.921  42.562  50.195  1.00  0.00    -0.250 N 
HETATM   21  N   UNL     1      26.947  42.532  48.844  1.00  0.00    -0.183 NA
HETATM   22  C   UNL     1      27.469  41.342  48.549  1.00  0.00     0.142 C 
HETATM   23  C   UNL     1      27.725  40.577  49.698  1.00  0.00     0.071 C 
BRANCH  20  24
HETATM   24  C   UNL     1      26.755  43.854  50.857  1.00  0.00     0.104 C 
HETATM   25  C   UNL     1      25.388  43.970  51.533  1.00  0.00     0.034 C 
HETATM   26  C   UNL     1      26.988  45.007  49.878  1.00  0.00     0.034 C 
ENDBRANCH  20  24
ENDBRANCH   1  19
TORSDOF 5
ENDMDL
MODEL 3
REMARK VINA RESULT:      -8.3      1.806      2.530
REMARK  5 active torsions:
REMARK  status: ('A' for Active; 'I' for Inactive)
REMARK    1  A    between atoms: C_2  and  N_3 
REMARK    2  A    between atoms: C_7  and  N_8 
REMARK       I    between atoms: N_8  and  C_9 
REMARK       I    between atoms: C_9  and  N_10 
REMARK    3  A    between atoms: N_10  and  C_11 
REMARK    4  A    between atoms: C_11  and  C_12 
REMARK    5  A    between atoms: C_17  and  C_18 
ROOT
HETATM    1  N   UNL     1      25.996  42.392  51.772  1.00  0.00    -0.293 N 
HETATM    2  C   UNL     1      27.354  42.198  52.098  1.00  0.00     0.322 C 
HETATM    3  N   UNL     1      28.155  43.298  51.986  1.00  0.00    -0.339 N 
HETATM    4  O   UNL     1      27.655  41.111  52.556  1.00  0.00    -0.247 OA
HETATM    5  H   UNL     1      25.372  41.727  52.213  1.00  0.00     0.172 HD
HETATM    6  H   UNL     1      27.685  44.189  51.964  1.00  0.00     0.164 HD
ENDROOT
BRANCH   3   7
HETATM    7  C   UNL     1      29.444  43.216  52.639  1.00  0.00     0.163 C 
BRANCH   7   8
HETATM    8  C   UNL     1      29.544  43.818  54.019  1.00  0.00    -0.037 A 
HETATM    9  C   UNL     1      28.778  44.966  54.286  1.00  0.00     0.051 A 
HETATM   10  C   UNL     1      28.897  45.636  55.499  1.00  0.00     0.117 A 
HETATM   11  F   UNL     1      28.165  46.736  55.717  1.00  0.00    -0.206 F 
HETATM   12  C   UNL     1      29.774  45.194  56.477  1.00  0.00     0.058 A 
HETATM   13  C   UNL     1      30.556  44.055  56.243  1.00  0.00     0.051 A 
HETATM   14  C   UNL     1      30.443  43.381  55.006  1.00  0.00     0.025 A 
BRANCH  13  15
HETATM   15  C   UNL     1      31.538  43.573  57.284  1.00  0.00     0.417 C 
HETATM   16  F   UNL     1      31.279  42.321  57.746  1.00  0.00    -0.166 F 
HETATM   17  F   UNL     1      32.814  43.545  56.809  1.00  0.00    -0.166 F 
HETATM   18  F   UNL     1      31.563  44.384  58.377  1.00  0.00    -0.166 F 
ENDBRANCH  13  15
ENDBRANCH   7   8
ENDBRANCH   3   7
BRANCH   1  19
HETATM   19  C   UNL     1      25.434  43.340  50.940  1.00  0.00     0.129 C 
HETATM   20  N   UNL     1      24.897  44.584  51.194  1.00  0.00    -0.250 N 
HETATM   21  N   UNL     1      24.403  45.163  50.077  1.00  0.00    -0.183 NA
HETATM   22  C   UNL     1      24.760  44.340  49.092  1.00  0.00     0.142 C 
HETATM   23  C   UNL     1      25.428  43.201  49.570  1.00  0.00     0.071 C 
BRANCH  20  24
HETATM   24  C   UNL     1      25.013  45.396  52.403  1.00  0.00     0.104 C 
HETATM   25  C   UNL     1      26.170  46.391  52.306  1.00  0.00     0.034 C 
HETATM   26  C   UNL     1      25.145  44.513  53.647  1.00  0.00     0.034 C 
ENDBRANCH  20  24
ENDBRANCH   1  19
TORSDOF 5
ENDMDL
MODEL 4
REMARK VINA RESULT:      -8.3      4.125      5.638
REMARK  5 active torsions:
REMARK  status: ('A' for Active; 'I' for Inactive)
REMARK    1  A    between atoms: C_2  and  N_3 
REMARK    2  A    between atoms: C_7  and  N_8 
REMARK       I    between atoms: N_8  and  C_9 
REMARK       I    between atoms: C_9  and  N_10 
REMARK    3  A    between atoms: N_10  and  C_11 
REMARK    4  A    between atoms: C_11  and  C_12 
REMARK    5  A    between atoms: C_17  and  C_18 
ROOT
HETATM    1  N   UNL     1      24.643  46.543  50.598  1.00  0.00    -0.293 N 
HETATM    2  C   UNL     1      25.011  45.933  51.815  1.00  0.00     0.322 C 
HETATM    3  N   UNL     1      25.778  46.692  52.651  1.00  0.00    -0.339 N 
HETATM    4  O   UNL     1      24.517  44.847  52.052  1.00  0.00    -0.247 OA
HETATM    5  H   UNL     1      23.799  46.159  50.188  1.00  0.00     0.172 HD
HETATM    6  H   UNL     1      25.778  47.684  52.476  1.00  0.00     0.164 HD
ENDROOT
BRANCH   3   7
HETATM    7  C   UNL     1      25.869  46.236  54.022  1.00  0.00     0.163 C 
BRANCH   7   8
HETATM    8  C   UNL     1      27.147  45.544  54.423  1.00  0.00    -0.037 A 
HETATM    9  C   UNL     1      27.928  46.146  55.426  1.00  0.00     0.051 A 
HETATM   10  C   UNL     1      29.169  45.622  55.774  1.00  0.00     0.117 A 
HETATM   11  F   UNL     1      29.896  46.228  56.721  1.00  0.00    -0.206 F 
HETATM   12  C   UNL     1      29.671  44.495  55.143  1.00  0.00     0.058 A 
HETATM   13  C   UNL     1      28.921  43.871  54.137  1.00  0.00     0.051 A 
HETATM   14  C   UNL     1      27.666  44.410  53.776  1.00  0.00     0.025 A 
BRANCH  13  15
HETATM   15  C   UNL     1      29.462  42.658  53.418  1.00  0.00     0.417 C 
HETATM   16  F   UNL     1      28.962  41.480  53.875  1.00  0.00    -0.166 F 
HETATM   17  F   UNL     1      29.194  42.693  52.084  1.00  0.00    -0.166 F 
HETATM   18  F   UNL     1      30.816  42.564  53.524  1.00  0.00    -0.166 F 
ENDBRANCH  13  15
ENDBRANCH   7   8
ENDBRANCH   3   7
BRANCH   1  19
HETATM   19  C   UNL     1      25.280  47.557  49.912  1.00  0.00     0.129 C 
HETATM   20  N   UNL     1      24.794  48.631  49.198  1.00  0.00    -0.250 N 
HETATM   21  N   UNL     1      25.784  49.360  48.636  1.00  0.00    -0.183 NA
HETATM   22  C   UNL     1      26.905  48.822  49.117  1.00  0.00     0.142 C 
HETATM   23  C   UNL     1      26.649  47.713  49.940  1.00  0.00     0.071 C 
BRANCH  20  24
HETATM   24  C   UNL     1      23.438  49.176  49.183  1.00  0.00     0.104 C 
HETATM   25  C   UNL     1      22.508  48.348  48.295  1.00  0.00     0.034 C 
HETATM   26  C   UNL     1      23.442  50.647  48.760  1.00  0.00     0.034 C 
ENDBRANCH  20  24
ENDBRANCH   1  19
TORSDOF 5
ENDMDL
MODEL 5
REMARK VINA RESULT:      -8.0      2.632      3.437
REMARK  5 active torsions:
REMARK  status: ('A' for Active; 'I' for Inactive)
REMARK    1  A    between atoms: C_2  and  N_3 
REMARK    2  A    between atoms: C_7  and  N_8 
REMARK       I    between atoms: N_8  and  C_9 
REMARK       I    between atoms: C_9  and  N_10 
REMARK    3  A    between atoms: N_10  and  C_11 
REMARK    4  A    between atoms: C_11  and  C_12 
REMARK    5  A    between atoms: C_17  and  C_18 
ROOT
HETATM    1  N   UNL     1      26.234  45.969  51.002  1.00  0.00    -0.293 N 
HETATM    2  C   UNL     1      26.293  46.353  52.358  1.00  0.00     0.322 C 
HETATM    3  N   UNL     1      26.732  45.397  53.228  1.00  0.00    -0.339 N 
HETATM    4  O   UNL     1      26.062  47.522  52.603  1.00  0.00    -0.247 OA
HETATM    5  H   UNL     1      26.292  46.747  50.355  1.00  0.00     0.172 HD
HETATM    6  H   UNL     1      27.235  44.625  52.821  1.00  0.00     0.164 HD
ENDROOT
BRANCH   3   7
HETATM    7  C   UNL     1      27.132  45.864  54.539  1.00  0.00     0.163 C 
BRANCH   7   8
HETATM    8  C   UNL     1      28.435  45.330  55.080  1.00  0.00    -0.037 A 
HETATM    9  C   UNL     1      29.091  44.335  54.334  1.00  0.00     0.051 A 
HETATM   10  C   UNL     1      30.241  43.721  54.821  1.00  0.00     0.117 A 
HETATM   11  F   UNL     1      30.833  42.765  54.094  1.00  0.00    -0.206 F 
HETATM   12  C   UNL     1      30.770  44.071  56.053  1.00  0.00     0.058 A 
HETATM   13  C   UNL     1      30.140  45.056  56.824  1.00  0.00     0.051 A 
HETATM   14  C   UNL     1      28.966  45.671  56.334  1.00  0.00     0.025 A 
BRANCH  13  15
HETATM   15  C   UNL     1      30.685  45.432  58.182  1.00  0.00     0.417 C 
HETATM   16  F   UNL     1      30.979  46.753  58.309  1.00  0.00    -0.166 F 
HETATM   17  F   UNL     1      29.810  45.140  59.183  1.00  0.00    -0.166 F 
HETATM   18  F   UNL     1      31.830  44.757  58.477  1.00  0.00    -0.166 F 
ENDBRANCH  13  15
ENDBRANCH   7   8
ENDBRANCH   3   7
BRANCH   1  19
HETATM   19  C   UNL     1      26.098  44.703  50.468  1.00  0.00     0.129 C 
HETATM   20  N   UNL     1      24.988  43.926  50.213  1.00  0.00    -0.250 N 
HETATM   21  N   UNL     1      25.318  42.711  49.723  1.00  0.00    -0.183 NA
HETATM   22  C   UNL     1      26.636  42.777  49.535  1.00  0.00     0.142 C 
HETATM   23  C   UNL     1      27.170  44.006  49.956  1.00  0.00     0.071 C 
BRANCH  20  24
HETATM   24  C   UNL     1      23.583  44.327  50.185  1.00  0.00     0.104 C 
HETATM   25  C   UNL     1      22.660  43.131  49.951  1.00  0.00     0.034 C 
HETATM   26  C   UNL     1      23.345  45.422  49.142  1.00  0.00     0.034 C 
ENDBRANCH  20  24
ENDBRANCH   1  19
TORSDOF 5
ENDMDL
MODEL 6
REMARK VINA RESULT:      -8.0      3.077      4.495
REMARK  5 active torsions:
REMARK  status: ('A' for Active; 'I' for Inactive)
REMARK    1  A    between atoms: C_2  and  N_3 
REMARK    2  A    between atoms: C_7  and  N_8 
REMARK       I    between atoms: N_8  and  C_9 
REMARK       I    between atoms: C_9  and  N_10 
REMARK    3  A    between atoms: N_10  and  C_11 
REMARK    4  A    between atoms: C_11  and  C_12 
REMARK    5  A    between atoms: C_17  and  C_18 
ROOT
HETATM    1  N   UNL     1      25.241  45.782  50.062  1.00  0.00    -0.293 N 
HETATM    2  C   UNL     1      25.457  46.537  51.234  1.00  0.00     0.322 C 
HETATM    3  N   UNL     1      25.583  45.819  52.388  1.00  0.00    -0.339 N 
HETATM    4  O   UNL     1      25.627  47.733  51.088  1.00  0.00    -0.247 OA
HETATM    5  H   UNL     1      25.534  46.254  49.214  1.00  0.00     0.172 HD
HETATM    6  H   UNL     1      25.795  44.840  52.281  1.00  0.00     0.164 HD
ENDROOT
BRANCH   3   7
HETATM    7  C   UNL     1      26.146  46.525  53.520  1.00  0.00     0.163 C 
BRANCH   7   8
HETATM    8  C   UNL     1      27.279  45.845  54.246  1.00  0.00    -0.037 A 
HETATM    9  C   UNL     1      27.741  46.438  55.435  1.00  0.00     0.051 A 
HETATM   10  C   UNL     1      28.849  45.928  56.103  1.00  0.00     0.117 A 
HETATM   11  F   UNL     1      29.274  46.526  57.223  1.00  0.00    -0.206 F 
HETATM   12  C   UNL     1      29.530  44.823  55.617  1.00  0.00     0.058 A 
HETATM   13  C   UNL     1      29.099  44.209  54.434  1.00  0.00     0.051 A 
HETATM   14  C   UNL     1      27.981  44.734  53.749  1.00  0.00     0.025 A 
BRANCH  13  15
HETATM   15  C   UNL     1      29.845  43.021  53.872  1.00  0.00     0.417 C 
HETATM   16  F   UNL     1      31.041  42.789  54.474  1.00  0.00    -0.166 F 
HETATM   17  F   UNL     1      29.131  41.867  53.990  1.00  0.00    -0.166 F 
HETATM   18  F   UNL     1      30.107  43.164  52.544  1.00  0.00    -0.166 F 
ENDBRANCH  13  15
ENDBRANCH   7   8
ENDBRANCH   3   7
BRANCH   1  19
HETATM   19  C   UNL     1      24.686  44.525  49.934  1.00  0.00     0.129 C 
HETATM   20  N   UNL     1      25.249  43.292  49.683  1.00  0.00    -0.250 N 
HETATM   21  N   UNL     1      24.318  42.317  49.586  1.00  0.00    -0.183 NA
HETATM   22  C   UNL     1      23.175  42.917  49.920  1.00  0.00     0.142 C 
HETATM   23  C   UNL     1      23.350  44.287  50.173  1.00  0.00     0.071 C 
BRANCH  20  24
HETATM   24  C   UNL     1      26.656  42.903  49.747  1.00  0.00     0.104 C 
HETATM   25  C   UNL     1      26.997  41.844  48.699  1.00  0.00     0.034 C 
HETATM   26  C   UNL     1      27.031  42.430  51.154  1.00  0.00     0.034 C 
ENDBRANCH  20  24
ENDBRANCH   1  19
TORSDOF 5
ENDMDL
MODEL 7
REMARK VINA RESULT:      -7.9      2.167      3.381
REMARK  5 active torsions:
REMARK  status: ('A' for Active; 'I' for Inactive)
REMARK    1  A    between atoms: C_2  and  N_3 
REMARK    2  A    between atoms: C_7  and  N_8 
REMARK       I    between atoms: N_8  and  C_9 
REMARK       I    between atoms: C_9  and  N_10 
REMARK    3  A    between atoms: N_10  and  C_11 
REMARK    4  A    between atoms: C_11  and  C_12 
REMARK    5  A    between atoms: C_17  and  C_18 
ROOT
HETATM    1  N   UNL     1      24.596  44.293  52.472  1.00  0.00    -0.293 N 
HETATM    2  C   UNL     1      25.344  44.595  53.628  1.00  0.00     0.322 C 
HETATM    3  N   UNL     1      26.447  45.376  53.435  1.00  0.00    -0.339 N 
HETATM    4  O   UNL     1      24.875  44.234  54.691  1.00  0.00    -0.247 OA
HETATM    5  H   UNL     1      23.625  44.070  52.662  1.00  0.00     0.172 HD
HETATM    6  H   UNL     1      26.478  45.895  52.571  1.00  0.00     0.164 HD
ENDROOT
BRANCH   3   7
HETATM    7  C   UNL     1      27.017  45.980  54.620  1.00  0.00     0.163 C 
BRANCH   7   8
HETATM    8  C   UNL     1      28.326  45.413  55.107  1.00  0.00    -0.037 A 
HETATM    9  C   UNL     1      28.932  44.411  54.329  1.00  0.00     0.051 A 
HETATM   10  C   UNL     1      30.085  43.768  54.767  1.00  0.00     0.117 A 
HETATM   11  F   UNL     1      30.629  42.806  54.011  1.00  0.00    -0.206 F 
HETATM   12  C   UNL     1      30.668  44.094  55.982  1.00  0.00     0.058 A 
HETATM   13  C   UNL     1      30.089  45.086  56.784  1.00  0.00     0.051 A 
HETATM   14  C   UNL     1      28.912  45.731  56.344  1.00  0.00     0.025 A 
BRANCH  13  15
HETATM   15  C   UNL     1      30.693  45.437  58.123  1.00  0.00     0.417 C 
HETATM   16  F   UNL     1      31.857  44.787  58.389  1.00  0.00    -0.166 F 
HETATM   17  F   UNL     1      30.970  46.767  58.227  1.00  0.00    -0.166 F 
HETATM   18  F   UNL     1      29.851  45.149  59.154  1.00  0.00    -0.166 F 
ENDBRANCH  13  15
ENDBRANCH   7   8
ENDBRANCH   3   7
BRANCH   1  19
HETATM   19  C   UNL     1      25.014  44.253  51.157  1.00  0.00     0.129 C 
HETATM   20  N   UNL     1      25.835  43.377  50.480  1.00  0.00    -0.250 N 
HETATM   21  N   UNL     1      26.021  43.745  49.193  1.00  0.00    -0.183 NA
HETATM   22  C   UNL     1      25.198  44.780  49.022  1.00  0.00     0.142 C 
HETATM   23  C   UNL     1      24.525  45.122  50.206  1.00  0.00     0.071 C 
BRANCH  20  24
HETATM   24  C   UNL     1      26.298  42.055  50.897  1.00  0.00     0.104 C 
HETATM   25  C   UNL     1      27.773  41.841  50.558  1.00  0.00     0.034 C 
HETATM   26  C   UNL     1      25.426  40.952  50.292  1.00  0.00     0.034 C 
ENDBRANCH  20  24
ENDBRANCH   1  19
TORSDOF 5
ENDMDL
MODEL 8
REMARK VINA RESULT:      -7.8     14.227     15.933
REMARK  5 active torsions:
REMARK  status: ('A' for Active; 'I' for Inactive)
REMARK    1  A    between atoms: C_2  and  N_3 
REMARK    2  A    between atoms: C_7  and  N_8 
REMARK       I    between atoms: N_8  and  C_9 
REMARK       I    between atoms: C_9  and  N_10 
REMARK    3  A    between atoms: N_10  and  C_11 
REMARK    4  A    between atoms: C_11  and  C_12 
REMARK    5  A    between atoms: C_17  and  C_18 
ROOT
HETATM    1  N   UNL     1      34.362  48.783  41.330  1.00  0.00    -0.293 N 
HETATM    2  C   UNL     1      33.062  48.310  41.057  1.00  0.00     0.322 C 
HETATM    3  N   UNL     1      32.284  49.123  40.284  1.00  0.00    -0.339 N 
HETATM    4  O   UNL     1      32.802  47.182  41.432  1.00  0.00    -0.247 OA
HETATM    5  H   UNL     1      35.026  48.048  41.547  1.00  0.00     0.172 HD
HETATM    6  H   UNL     1      32.771  49.825  39.750  1.00  0.00     0.164 HD
ENDROOT
BRANCH   3   7
HETATM    7  C   UNL     1      31.104  48.516  39.707  1.00  0.00     0.163 C 
BRANCH   7   8
HETATM    8  C   UNL     1      29.862  49.370  39.649  1.00  0.00    -0.037 A 
HETATM    9  C   UNL     1      28.911  49.071  38.658  1.00  0.00     0.051 A 
HETATM   10  C   UNL     1      27.793  49.879  38.476  1.00  0.00     0.117 A 
HETATM   11  F   UNL     1      26.914  49.577  37.512  1.00  0.00    -0.206 F 
HETATM   12  C   UNL     1      27.584  50.999  39.265  1.00  0.00     0.058 A 
HETATM   13  C   UNL     1      28.513  51.327  40.261  1.00  0.00     0.051 A 
HETATM   14  C   UNL     1      29.655  50.514  40.437  1.00  0.00     0.025 A 
BRANCH  13  15
HETATM   15  C   UNL     1      28.319  52.559  41.114  1.00  0.00     0.417 C 
HETATM   16  F   UNL     1      29.066  52.565  42.249  1.00  0.00    -0.166 F 
HETATM   17  F   UNL     1      28.639  53.700  40.443  1.00  0.00    -0.166 F 
HETATM   18  F   UNL     1      27.025  52.708  41.508  1.00  0.00    -0.166 F 
ENDBRANCH  13  15
ENDBRANCH   7   8
ENDBRANCH   3   7
BRANCH   1  19
HETATM   19  C   UNL     1      34.822  50.084  41.351  1.00  0.00     0.129 C 
HETATM   20  N   UNL     1      34.398  51.199  42.042  1.00  0.00    -0.250 N 
HETATM   21  N   UNL     1      35.113  52.300  41.722  1.00  0.00    -0.183 NA
HETATM   22  C   UNL     1      36.085  51.844  40.931  1.00  0.00     0.142 C 
HETATM   23  C   UNL     1      35.968  50.466  40.688  1.00  0.00     0.071 C 
BRANCH  20  24
HETATM   24  C   UNL     1      33.488  51.271  43.183  1.00  0.00     0.104 C 
HETATM   25  C   UNL     1      32.117  51.814  42.777  1.00  0.00     0.034 C 
HETATM   26  C   UNL     1      34.096  52.096  44.320  1.00  0.00     0.034 C 
ENDBRANCH  20  24
ENDBRANCH   1  19
TORSDOF 5
ENDMDL
MODEL 9
REMARK VINA RESULT:      -7.8     13.453     15.646
REMARK  5 active torsions:
REMARK  status: ('A' for Active; 'I' for Inactive)
REMARK    1  A    between atoms: C_2  and  N_3 
REMARK    2  A    between atoms: C_7  and  N_8 
REMARK       I    between atoms: N_8  and  C_9 
REMARK       I    between atoms: C_9  and  N_10 
REMARK    3  A    between atoms: N_10  and  C_11 
REMARK    4  A    between atoms: C_11  and  C_12 
REMARK    5  A    between atoms: C_17  and  C_18 
ROOT
HETATM    1  N   UNL     1      34.332  49.218  40.797  1.00  0.00    -0.293 N 
HETATM    2  C   UNL     1      33.317  48.522  41.486  1.00  0.00     0.322 C 
HETATM    3  N   UNL     1      32.560  49.270  42.341  1.00  0.00    -0.339 N 
HETATM    4  O   UNL     1      33.139  47.362  41.167  1.00  0.00    -0.247 OA
HETATM    5  H   UNL     1      34.607  48.780  39.925  1.00  0.00     0.172 HD
HETATM    6  H   UNL     1      32.589  50.268  42.203  1.00  0.00     0.164 HD
ENDROOT
BRANCH   3   7
HETATM    7  C   UNL     1      31.316  48.673  42.779  1.00  0.00     0.163 C 
BRANCH   7   8
HETATM    8  C   UNL     1      30.050  49.211  42.159  1.00  0.00    -0.037 A 
HETATM    9  C   UNL     1      29.081  48.281  41.745  1.00  0.00     0.051 A 
HETATM   10  C   UNL     1      27.937  48.696  41.071  1.00  0.00     0.117 A 
HETATM   11  F   UNL     1      27.041  47.783  40.674  1.00  0.00    -0.206 F 
HETATM   12  C   UNL     1      27.721  50.035  40.788  1.00  0.00     0.058 A 
HETATM   13  C   UNL     1      28.667  50.989  41.184  1.00  0.00     0.051 A 
HETATM   14  C   UNL     1      29.835  50.566  41.858  1.00  0.00     0.025 A 
BRANCH  13  15
HETATM   15  C   UNL     1      28.464  52.450  40.861  1.00  0.00     0.417 C 
HETATM   16  F   UNL     1      28.193  52.690  39.551  1.00  0.00    -0.166 F 
HETATM   17  F   UNL     1      27.432  52.991  41.566  1.00  0.00    -0.166 F 
HETATM   18  F   UNL     1      29.559  53.198  41.167  1.00  0.00    -0.166 F 
ENDBRANCH  13  15
ENDBRANCH   7   8
ENDBRANCH   3   7
BRANCH   1  19
HETATM   19  C   UNL     1      34.985  50.378  41.161  1.00  0.00     0.129 C 
HETATM   20  N   UNL     1      34.963  51.651  40.633  1.00  0.00    -0.250 N 
HETATM   21  N   UNL     1      35.807  52.486  41.278  1.00  0.00    -0.183 NA
HETATM   22  C   UNL     1      36.256  51.770  42.309  1.00  0.00     0.142 C 
HETATM   23  C   UNL     1      35.755  50.458  42.301  1.00  0.00     0.071 C 
BRANCH  20  24
HETATM   24  C   UNL     1      34.017  52.224  39.677  1.00  0.00     0.104 C 
HETATM   25  C   UNL     1      34.459  53.610  39.207  1.00  0.00     0.034 C 
HETATM   26  C   UNL     1      32.602  52.263  40.261  1.00  0.00     0.034 C 
ENDBRANCH  20  24
ENDBRANCH   1  19
TORSDOF 5
ENDMDL
MODEL 10
REMARK VINA RESULT:      -7.7      6.686      8.766
REMARK  5 active torsions:
REMARK  status: ('A' for Active; 'I' for Inactive)
REMARK    1  A    between atoms: C_2  and  N_3 
REMARK    2  A    between atoms: C_7  and  N_8 
REMARK       I    between atoms: N_8  and  C_9 
REMARK       I    between atoms: C_9  and  N_10 
REMARK    3  A    between atoms: N_10  and  C_11 
REMARK    4  A    between atoms: C_11  and  C_12 
REMARK    5  A    between atoms: C_17  and  C_18 
ROOT
HETATM    1  N   UNL     1      20.619  47.799  48.549  1.00  0.00    -0.293 N 
HETATM    2  C   UNL     1      22.016  47.734  48.371  1.00  0.00     0.322 C 
HETATM    3  N   UNL     1      22.769  48.173  49.422  1.00  0.00    -0.339 N 
HETATM    4  O   UNL     1      22.412  47.190  47.357  1.00  0.00    -0.247 OA
HETATM    5  H   UNL     1      20.104  47.143  47.972  1.00  0.00     0.172 HD
HETATM    6  H   UNL     1      22.299  48.231  50.311  1.00  0.00     0.164 HD
ENDROOT
BRANCH   3   7
HETATM    7  C   UNL     1      24.167  47.795  49.406  1.00  0.00     0.163 C 
BRANCH   7   8
HETATM    8  C   UNL     1      24.641  46.908  50.530  1.00  0.00    -0.037 A 
HETATM    9  C   UNL     1      24.324  45.541  50.459  1.00  0.00     0.051 A 
HETATM   10  C   UNL     1      24.636  44.681  51.508  1.00  0.00     0.117 A 
HETATM   11  F   UNL     1      24.305  43.387  51.417  1.00  0.00    -0.206 F 
HETATM   12  C   UNL     1      25.267  45.147  52.650  1.00  0.00     0.058 A 
HETATM   13  C   UNL     1      25.596  46.505  52.755  1.00  0.00     0.051 A 
HETATM   14  C   UNL     1      25.268  47.380  51.695  1.00  0.00     0.025 A 
BRANCH  13  15
HETATM   15  C   UNL     1      26.258  47.039  54.003  1.00  0.00     0.417 C 
HETATM   16  F   UNL     1      27.546  47.434  53.816  1.00  0.00    -0.166 F 
HETATM   17  F   UNL     1      25.601  48.118  54.510  1.00  0.00    -0.166 F 
HETATM   18  F   UNL     1      26.285  46.114  55.002  1.00  0.00    -0.166 F 
ENDBRANCH  13  15
ENDBRANCH   7   8
ENDBRANCH   3   7
BRANCH   1  19
HETATM   19  C   UNL     1      19.890  48.629  49.376  1.00  0.00     0.129 C 
HETATM   20  N   UNL     1      19.783  50.001  49.439  1.00  0.00    -0.250 N 
HETATM   21  N   UNL     1      18.983  50.404  50.452  1.00  0.00    -0.183 NA
HETATM   22  C   UNL     1      18.471  49.274  50.939  1.00  0.00     0.142 C 
HETATM   23  C   UNL     1      18.981  48.138  50.288  1.00  0.00     0.071 C 
BRANCH  20  24
HETATM   24  C   UNL     1      20.209  50.994  48.456  1.00  0.00     0.104 C 
HETATM   25  C   UNL     1      21.701  51.306  48.579  1.00  0.00     0.034 C 
HETATM   26  C   UNL     1      19.367  52.268  48.560  1.00  0.00     0.034 C 
ENDBRANCH  20  24
ENDBRANCH   1  19
TORSDOF 5
ENDMDL
