MODEL 1
REMARK VINA RESULT:      -8.5      0.000      0.000
REMARK  6 active torsions:
REMARK  status: ('A' for Active; 'I' for Inactive)
REMARK    1  A    between atoms: C_3  and  C_4 
REMARK       I    between atoms: C_4  and  N_5 
REMARK    2  A    between atoms: N_5  and  C_6 
REMARK    3  A    between atoms: C_6  and  C_7 
REMARK    4  A    between atoms: C_7  and  N_8 
REMARK    5  A    between atoms: C_7  and  C_14 
REMARK    6  A    between atoms: C_21  and  C_22 
ROOT
HETATM    1  C   UNL     1      27.271  43.256  51.646  1.00  0.00     0.272 C 
HETATM    2  N   UNL     1      27.132  44.404  50.892  1.00  0.00    -0.354 N 
HETATM    3  O   UNL     1      26.562  42.271  51.431  1.00  0.00    -0.266 OA
HETATM    4  H   UNL     1      27.714  45.180  51.216  1.00  0.00     0.162 HD
ENDROOT
BRANCH   1   5
HETATM    5  C   UNL     1      28.350  43.328  52.642  1.00  0.00     0.152 A 
HETATM    6  C   UNL     1      28.315  43.896  53.951  1.00  0.00     0.003 A 
HETATM    7  C   UNL     1      27.158  44.551  54.614  1.00  0.00     0.053 C 
HETATM    8  C   UNL     1      29.592  43.702  54.456  1.00  0.00     0.069 A 
HETATM    9  N   UNL     1      30.287  43.064  53.463  1.00  0.00    -0.276 N 
HETATM   10  N   UNL     1      29.561  42.809  52.360  1.00  0.00    -0.168 NA
HETATM   11  H   UNL     1      31.264  42.789  53.479  1.00  0.00     0.189 HD
BRANCH   8  12
HETATM   12  C   UNL     1      30.216  44.070  55.723  1.00  0.00    -0.007 A 
HETATM   13  C   UNL     1      29.886  45.274  56.355  1.00  0.00     0.014 A 
HETATM   14  C   UNL     1      30.491  45.632  57.562  1.00  0.00     0.001 A 
HETATM   15  C   UNL     1      31.433  44.788  58.146  1.00  0.00     0.000 A 
HETATM   16  C   UNL     1      31.769  43.585  57.527  1.00  0.00     0.001 A 
HETATM   17  C   UNL     1      31.165  43.227  56.320  1.00  0.00     0.014 A 
ENDBRANCH   8  12
ENDBRANCH   1   5
BRANCH   2  18
HETATM   18  C   UNL     1      25.953  44.646  50.091  1.00  0.00     0.156 C 
BRANCH  18  19
HETATM   19  C   UNL     1      24.766  45.319  50.844  1.00  0.00     0.209 C 
BRANCH  19  20
HETATM   20  N   UNL     1      23.437  44.922  50.168  1.00  0.00    -0.065 N 
HETATM   21  H   UNL     1      22.704  45.305  50.803  1.00  0.00     0.280 HD
HETATM   22  C   UNL     1      23.026  43.463  50.057  1.00  0.00     0.235 C 
HETATM   23  C   UNL     1      22.766  43.244  48.579  1.00  0.00     0.029 C 
HETATM   24  C   UNL     1      22.269  44.594  48.106  1.00  0.00     0.029 C 
HETATM   25  C   UNL     1      23.165  45.577  48.833  1.00  0.00     0.235 C 
ENDBRANCH  19  20
BRANCH  19  26
HETATM   26  C   UNL     1      24.924  46.850  51.090  1.00  0.00     0.010 C 
HETATM   27  C   UNL     1      25.511  47.157  52.474  1.00  0.00     0.011 C 
HETATM   28  C   UNL     1      25.830  47.524  50.047  1.00  0.00     0.011 C 
ENDBRANCH  19  26
ENDBRANCH  18  19
ENDBRANCH   2  18
TORSDOF 6
ENDMDL
MODEL 2
REMARK VINA RESULT:      -8.3      3.625      5.282
REMARK  6 active torsions:
REMARK  status: ('A' for Active; 'I' for Inactive)
REMARK    1  A    between atoms: C_3  and  C_4 
REMARK       I    between atoms: C_4  and  N_5 
REMARK    2  A    between atoms: N_5  and  C_6 
REMARK    3  A    between atoms: C_6  and  C_7 
REMARK    4  A    between atoms: C_7  and  N_8 
REMARK    5  A    between atoms: C_7  and  C_14 
REMARK    6  A    between atoms: C_21  and  C_22 
ROOT
HETATM    1  C   UNL     1      24.857  47.760  50.135  1.00  0.00     0.272 C 
HETATM    2  N   UNL     1      23.527  47.458  49.917  1.00  0.00    -0.354 N 
HETATM    3  O   UNL     1      25.419  48.638  49.478  1.00  0.00    -0.266 OA
HETATM    4  H   UNL     1      23.194  46.659  50.460  1.00  0.00     0.162 HD
ENDROOT
BRANCH   1   5
HETATM    5  C   UNL     1      25.468  46.988  51.225  1.00  0.00     0.152 A 
HETATM    6  C   UNL     1      26.321  45.847  51.138  1.00  0.00     0.003 A 
HETATM    7  C   UNL     1      26.793  45.172  49.901  1.00  0.00     0.053 C 
HETATM    8  C   UNL     1      26.604  45.513  52.454  1.00  0.00     0.069 A 
HETATM    9  N   UNL     1      25.929  46.429  53.218  1.00  0.00    -0.276 N 
HETATM   10  N   UNL     1      25.246  47.343  52.506  1.00  0.00    -0.168 NA
HETATM   11  H   UNL     1      25.890  46.469  54.231  1.00  0.00     0.189 HD
BRANCH   8  12
HETATM   12  C   UNL     1      27.391  44.439  53.050  1.00  0.00    -0.007 A 
HETATM   13  C   UNL     1      28.436  44.729  53.935  1.00  0.00     0.014 A 
HETATM   14  C   UNL     1      29.197  43.701  54.497  1.00  0.00     0.001 A 
HETATM   15  C   UNL     1      28.920  42.374  54.177  1.00  0.00     0.000 A 
HETATM   16  C   UNL     1      27.881  42.072  53.297  1.00  0.00     0.001 A 
HETATM   17  C   UNL     1      27.120  43.100  52.735  1.00  0.00     0.014 A 
ENDBRANCH   8  12
ENDBRANCH   1   5
BRANCH   2  18
HETATM   18  C   UNL     1      22.844  47.872  48.712  1.00  0.00     0.156 C 
BRANCH  18  19
HETATM   19  C   UNL     1      21.676  48.883  48.924  1.00  0.00     0.209 C 
BRANCH  19  20
HETATM   20  N   UNL     1      20.329  48.134  48.859  1.00  0.00    -0.065 N 
HETATM   21  H   UNL     1      20.584  47.137  49.018  1.00  0.00     0.280 HD
HETATM   22  C   UNL     1      19.544  48.056  47.561  1.00  0.00     0.235 C 
HETATM   23  C   UNL     1      18.167  48.593  47.905  1.00  0.00     0.029 C 
HETATM   24  C   UNL     1      17.989  48.195  49.356  1.00  0.00     0.029 C 
HETATM   25  C   UNL     1      19.352  48.459  49.966  1.00  0.00     0.235 C 
ENDBRANCH  19  20
BRANCH  19  26
HETATM   26  C   UNL     1      21.740  50.161  48.034  1.00  0.00     0.010 C 
HETATM   27  C   UNL     1      20.941  51.326  48.633  1.00  0.00     0.011 C 
HETATM   28  C   UNL     1      23.179  50.655  47.814  1.00  0.00     0.011 C 
ENDBRANCH  19  26
ENDBRANCH  18  19
ENDBRANCH   2  18
TORSDOF 6
ENDMDL
MODEL 3
REMARK VINA RESULT:      -8.2      2.236      3.662
REMARK  6 active torsions:
REMARK  status: ('A' for Active; 'I' for Inactive)
REMARK    1  A    between atoms: C_3  and  C_4 
REMARK       I    between atoms: C_4  and  N_5 
REMARK    2  A    between atoms: N_5  and  C_6 
REMARK    3  A    between atoms: C_6  and  C_7 
REMARK    4  A    between atoms: C_7  and  N_8 
REMARK    5  A    between atoms: C_7  and  C_14 
REMARK    6  A    between atoms: C_21  and  C_22 
ROOT
HETATM    1  C   UNL     1      25.854  46.470  53.397  1.00  0.00     0.272 C 
HETATM    2  N   UNL     1      25.351  45.255  52.975  1.00  0.00    -0.354 N 
HETATM    3  O   UNL     1      25.372  47.527  52.987  1.00  0.00    -0.266 OA
HETATM    4  H   UNL     1      25.883  44.451  53.315  1.00  0.00     0.162 HD
ENDROOT
BRANCH   1   5
HETATM    5  C   UNL     1      26.935  46.352  54.384  1.00  0.00     0.152 A 
HETATM    6  C   UNL     1      27.890  45.301  54.537  1.00  0.00     0.003 A 
HETATM    7  C   UNL     1      28.007  44.069  53.716  1.00  0.00     0.053 C 
HETATM    8  C   UNL     1      28.672  45.687  55.617  1.00  0.00     0.069 A 
HETATM    9  N   UNL     1      28.159  46.887  56.031  1.00  0.00    -0.276 N 
HETATM   10  N   UNL     1      27.120  47.325  55.298  1.00  0.00    -0.168 NA
HETATM   11  H   UNL     1      28.472  47.447  56.818  1.00  0.00     0.189 HD
BRANCH   8  12
HETATM   12  C   UNL     1      29.794  45.049  56.296  1.00  0.00    -0.007 A 
HETATM   13  C   UNL     1      30.495  44.003  55.684  1.00  0.00     0.014 A 
HETATM   14  C   UNL     1      31.562  43.385  56.339  1.00  0.00     0.001 A 
HETATM   15  C   UNL     1      31.937  43.806  57.613  1.00  0.00     0.000 A 
HETATM   16  C   UNL     1      31.248  44.848  58.232  1.00  0.00     0.001 A 
HETATM   17  C   UNL     1      30.180  45.466  57.578  1.00  0.00     0.014 A 
ENDBRANCH   8  12
ENDBRANCH   1   5
BRANCH   2  18
HETATM   18  C   UNL     1      24.516  45.148  51.800  1.00  0.00     0.156 C 
BRANCH  18  19
HETATM   19  C   UNL     1      25.253  44.707  50.500  1.00  0.00     0.209 C 
BRANCH  19  20
HETATM   20  N   UNL     1      25.508  45.941  49.609  1.00  0.00    -0.065 N 
HETATM   21  H   UNL     1      25.422  45.576  48.637  1.00  0.00     0.280 HD
HETATM   22  C   UNL     1      26.873  46.607  49.574  1.00  0.00     0.235 C 
HETATM   23  C   UNL     1      26.605  48.062  49.907  1.00  0.00     0.029 C 
HETATM   24  C   UNL     1      25.219  48.301  49.343  1.00  0.00     0.029 C 
HETATM   25  C   UNL     1      24.467  47.034  49.700  1.00  0.00     0.235 C 
ENDBRANCH  19  20
BRANCH  19  26
HETATM   26  C   UNL     1      24.608  43.502  49.751  1.00  0.00     0.010 C 
HETATM   27  C   UNL     1      25.112  42.153  50.280  1.00  0.00     0.011 C 
HETATM   28  C   UNL     1      23.074  43.494  49.859  1.00  0.00     0.011 C 
ENDBRANCH  19  26
ENDBRANCH  18  19
ENDBRANCH   2  18
TORSDOF 6
ENDMDL
MODEL 4
REMARK VINA RESULT:      -8.1      3.164      4.735
REMARK  6 active torsions:
REMARK  status: ('A' for Active; 'I' for Inactive)
REMARK    1  A    between atoms: C_3  and  C_4 
REMARK       I    between atoms: C_4  and  N_5 
REMARK    2  A    between atoms: N_5  and  C_6 
REMARK    3  A    between atoms: C_6  and  C_7 
REMARK    4  A    between atoms: C_7  and  N_8 
REMARK    5  A    between atoms: C_7  and  C_14 
REMARK    6  A    between atoms: C_21  and  C_22 
ROOT
HETATM    1  C   UNL     1      27.615  43.750  51.381  1.00  0.00     0.272 C 
HETATM    2  N   UNL     1      27.443  42.385  51.268  1.00  0.00    -0.354 N 
HETATM    3  O   UNL     1      27.394  44.494  50.423  1.00  0.00    -0.266 OA
HETATM    4  H   UNL     1      27.735  41.865  52.098  1.00  0.00     0.162 HD
ENDROOT
BRANCH   1   5
HETATM    5  C   UNL     1      28.013  44.188  52.726  1.00  0.00     0.152 A 
HETATM    6  C   UNL     1      29.167  43.812  53.478  1.00  0.00     0.003 A 
HETATM    7  C   UNL     1      30.245  42.879  53.060  1.00  0.00     0.053 C 
HETATM    8  C   UNL     1      29.053  44.506  54.673  1.00  0.00     0.069 A 
HETATM    9  N   UNL     1      27.888  45.218  54.574  1.00  0.00    -0.276 N 
HETATM   10  N   UNL     1      27.244  45.061  53.404  1.00  0.00    -0.168 NA
HETATM   11  H   UNL     1      27.477  45.820  55.281  1.00  0.00     0.189 HD
BRANCH   8  12
HETATM   12  C   UNL     1      29.883  44.543  55.873  1.00  0.00    -0.007 A 
HETATM   13  C   UNL     1      29.738  45.575  56.807  1.00  0.00     0.014 A 
HETATM   14  C   UNL     1      30.540  45.616  57.950  1.00  0.00     0.001 A 
HETATM   15  C   UNL     1      31.495  44.626  58.168  1.00  0.00     0.000 A 
HETATM   16  C   UNL     1      31.648  43.592  57.245  1.00  0.00     0.001 A 
HETATM   17  C   UNL     1      30.847  43.550  56.102  1.00  0.00     0.014 A 
ENDBRANCH   8  12
ENDBRANCH   1   5
BRANCH   2  18
HETATM   18  C   UNL     1      27.358  41.736  49.979  1.00  0.00     0.156 C 
BRANCH  18  19
HETATM   19  C   UNL     1      26.381  40.524  49.908  1.00  0.00     0.209 C 
BRANCH  19  20
HETATM   20  N   UNL     1      27.148  39.224  50.225  1.00  0.00    -0.065 N 
HETATM   21  H   UNL     1      26.987  39.075  51.243  1.00  0.00     0.280 HD
HETATM   22  C   UNL     1      28.664  39.174  50.135  1.00  0.00     0.235 C 
HETATM   23  C   UNL     1      28.961  38.020  49.197  1.00  0.00     0.029 C 
HETATM   24  C   UNL     1      27.814  37.062  49.445  1.00  0.00     0.029 C 
HETATM   25  C   UNL     1      26.610  37.974  49.566  1.00  0.00     0.235 C 
ENDBRANCH  19  20
BRANCH  19  26
HETATM   26  C   UNL     1      25.510  40.453  48.617  1.00  0.00     0.010 C 
HETATM   27  C   UNL     1      24.252  41.324  48.717  1.00  0.00     0.011 C 
HETATM   28  C   UNL     1      26.280  40.899  47.362  1.00  0.00     0.011 C 
ENDBRANCH  19  26
ENDBRANCH  18  19
ENDBRANCH   2  18
TORSDOF 6
ENDMDL
MODEL 5
REMARK VINA RESULT:      -8.1      3.108      4.837
REMARK  6 active torsions:
REMARK  status: ('A' for Active; 'I' for Inactive)
REMARK    1  A    between atoms: C_3  and  C_4 
REMARK       I    between atoms: C_4  and  N_5 
REMARK    2  A    between atoms: N_5  and  C_6 
REMARK    3  A    between atoms: C_6  and  C_7 
REMARK    4  A    between atoms: C_7  and  N_8 
REMARK    5  A    between atoms: C_7  and  C_14 
REMARK    6  A    between atoms: C_21  and  C_22 
ROOT
HETATM    1  C   UNL     1      23.952  45.328  49.475  1.00  0.00     0.272 C 
HETATM    2  N   UNL     1      23.554  46.640  49.634  1.00  0.00    -0.354 N 
HETATM    3  O   UNL     1      23.680  44.707  48.446  1.00  0.00    -0.266 OA
HETATM    4  H   UNL     1      23.762  47.023  50.558  1.00  0.00     0.162 HD
ENDROOT
BRANCH   1   5
HETATM    5  C   UNL     1      24.748  44.812  50.598  1.00  0.00     0.152 A 
HETATM    6  C   UNL     1      26.164  44.856  50.779  1.00  0.00     0.003 A 
HETATM    7  C   UNL     1      27.168  45.447  49.857  1.00  0.00     0.053 C 
HETATM    8  C   UNL     1      26.385  44.227  51.995  1.00  0.00     0.069 A 
HETATM    9  N   UNL     1      25.147  43.854  52.447  1.00  0.00    -0.276 N 
HETATM   10  N   UNL     1      24.136  44.206  51.634  1.00  0.00    -0.168 NA
HETATM   11  H   UNL     1      24.935  43.345  53.299  1.00  0.00     0.189 HD
BRANCH   8  12
HETATM   12  C   UNL     1      27.604  43.922  52.738  1.00  0.00    -0.007 A 
HETATM   13  C   UNL     1      27.855  44.529  53.973  1.00  0.00     0.014 A 
HETATM   14  C   UNL     1      29.027  44.246  54.678  1.00  0.00     0.001 A 
HETATM   15  C   UNL     1      29.958  43.353  54.153  1.00  0.00     0.000 A 
HETATM   16  C   UNL     1      29.718  42.740  52.924  1.00  0.00     0.001 A 
HETATM   17  C   UNL     1      28.547  43.024  52.218  1.00  0.00     0.014 A 
ENDBRANCH   8  12
ENDBRANCH   1   5
BRANCH   2  18
HETATM   18  C   UNL     1      22.522  47.223  48.805  1.00  0.00     0.156 C 
BRANCH  18  19
HETATM   19  C   UNL     1      22.244  48.736  49.057  1.00  0.00     0.209 C 
BRANCH  19  20
HETATM   20  N   UNL     1      20.724  48.995  49.010  1.00  0.00    -0.065 N 
HETATM   21  H   UNL     1      20.596  49.615  48.183  1.00  0.00     0.280 HD
HETATM   22  C   UNL     1      20.036  49.789  50.108  1.00  0.00     0.235 C 
HETATM   23  C   UNL     1      18.925  48.885  50.606  1.00  0.00     0.029 C 
HETATM   24  C   UNL     1      18.536  48.095  49.373  1.00  0.00     0.029 C 
HETATM   25  C   UNL     1      19.867  47.784  48.716  1.00  0.00     0.235 C 
ENDBRANCH  19  20
BRANCH  19  26
HETATM   26  C   UNL     1      23.085  49.716  48.185  1.00  0.00     0.010 C 
HETATM   27  C   UNL     1      22.691  51.181  48.414  1.00  0.00     0.011 C 
HETATM   28  C   UNL     1      24.594  49.597  48.455  1.00  0.00     0.011 C 
ENDBRANCH  19  26
ENDBRANCH  18  19
ENDBRANCH   2  18
TORSDOF 6
ENDMDL
MODEL 6
REMARK VINA RESULT:      -8.1      2.650      8.463
REMARK  6 active torsions:
REMARK  status: ('A' for Active; 'I' for Inactive)
REMARK    1  A    between atoms: C_3  and  C_4 
REMARK       I    between atoms: C_4  and  N_5 
REMARK    2  A    between atoms: N_5  and  C_6 
REMARK    3  A    between atoms: C_6  and  C_7 
REMARK    4  A    between atoms: C_7  and  N_8 
REMARK    5  A    between atoms: C_7  and  C_14 
REMARK    6  A    between atoms: C_21  and  C_22 
ROOT
HETATM    1  C   UNL     1      26.446  45.046  50.224  1.00  0.00     0.272 C 
HETATM    2  N   UNL     1      26.527  44.690  51.556  1.00  0.00    -0.354 N 
HETATM    3  O   UNL     1      27.287  44.652  49.415  1.00  0.00    -0.266 OA
HETATM    4  H   UNL     1      25.825  45.143  52.145  1.00  0.00     0.162 HD
ENDROOT
BRANCH   1   5
HETATM    5  C   UNL     1      25.266  45.858  49.900  1.00  0.00     0.152 A 
HETATM    6  C   UNL     1      25.192  47.264  49.659  1.00  0.00     0.003 A 
HETATM    7  C   UNL     1      26.314  48.238  49.681  1.00  0.00     0.053 C 
HETATM    8  C   UNL     1      23.851  47.510  49.406  1.00  0.00     0.069 A 
HETATM    9  N   UNL     1      23.228  46.295  49.512  1.00  0.00    -0.276 N 
HETATM   10  N   UNL     1      24.056  45.274  49.793  1.00  0.00    -0.168 NA
HETATM   11  H   UNL     1      22.235  46.106  49.413  1.00  0.00     0.189 HD
BRANCH   8  12
HETATM   12  C   UNL     1      23.113  48.736  49.116  1.00  0.00    -0.007 A 
HETATM   13  C   UNL     1      21.715  48.756  49.179  1.00  0.00     0.014 A 
HETATM   14  C   UNL     1      21.008  49.925  48.891  1.00  0.00     0.001 A 
HETATM   15  C   UNL     1      21.694  51.085  48.535  1.00  0.00     0.000 A 
HETATM   16  C   UNL     1      23.087  51.077  48.470  1.00  0.00     0.001 A 
HETATM   17  C   UNL     1      23.794  49.908  48.758  1.00  0.00     0.014 A 
ENDBRANCH   8  12
ENDBRANCH   1   5
BRANCH   2  18
HETATM   18  C   UNL     1      27.749  44.167  52.127  1.00  0.00     0.156 C 
BRANCH  18  19
HETATM   19  C   UNL     1      27.603  43.540  53.546  1.00  0.00     0.209 C 
BRANCH  19  20
HETATM   20  N   UNL     1      27.419  44.661  54.589  1.00  0.00    -0.065 N 
HETATM   21  H   UNL     1      27.307  44.154  55.492  1.00  0.00     0.280 HD
HETATM   22  C   UNL     1      26.184  45.547  54.570  1.00  0.00     0.235 C 
HETATM   23  C   UNL     1      26.722  46.964  54.512  1.00  0.00     0.029 C 
HETATM   24  C   UNL     1      28.033  46.872  55.267  1.00  0.00     0.029 C 
HETATM   25  C   UNL     1      28.620  45.556  54.800  1.00  0.00     0.235 C 
ENDBRANCH  19  20
BRANCH  19  26
HETATM   26  C   UNL     1      28.696  42.493  53.920  1.00  0.00     0.010 C 
HETATM   27  C   UNL     1      28.300  41.069  53.508  1.00  0.00     0.011 C 
HETATM   28  C   UNL     1      30.054  42.800  53.268  1.00  0.00     0.011 C 
ENDBRANCH  19  26
ENDBRANCH  18  19
ENDBRANCH   2  18
TORSDOF 6
ENDMDL
MODEL 7
REMARK VINA RESULT:      -8.0      1.317      2.887
REMARK  6 active torsions:
REMARK  status: ('A' for Active; 'I' for Inactive)
REMARK    1  A    between atoms: C_3  and  C_4 
REMARK       I    between atoms: C_4  and  N_5 
REMARK    2  A    between atoms: N_5  and  C_6 
REMARK    3  A    between atoms: C_6  and  C_7 
REMARK    4  A    between atoms: C_7  and  N_8 
REMARK    5  A    between atoms: C_7  and  C_14 
REMARK    6  A    between atoms: C_21  and  C_22 
ROOT
HETATM    1  C   UNL     1      26.114  43.448  51.659  1.00  0.00     0.272 C 
HETATM    2  N   UNL     1      25.442  44.646  51.513  1.00  0.00    -0.354 N 
HETATM    3  O   UNL     1      25.688  42.419  51.133  1.00  0.00    -0.266 OA
HETATM    4  H   UNL     1      25.843  45.410  52.061  1.00  0.00     0.162 HD
ENDROOT
BRANCH   1   5
HETATM    5  C   UNL     1      27.363  43.560  52.425  1.00  0.00     0.152 A 
HETATM    6  C   UNL     1      27.531  43.806  53.821  1.00  0.00     0.003 A 
HETATM    7  C   UNL     1      26.461  44.006  54.832  1.00  0.00     0.053 C 
HETATM    8  C   UNL     1      28.904  43.818  54.017  1.00  0.00     0.069 A 
HETATM    9  N   UNL     1      29.453  43.595  52.782  1.00  0.00    -0.276 N 
HETATM   10  N   UNL     1      28.549  43.419  51.802  1.00  0.00    -0.168 NA
HETATM   11  H   UNL     1      30.440  43.565  52.548  1.00  0.00     0.189 HD
BRANCH   8  12
HETATM   12  C   UNL     1      29.728  44.042  55.200  1.00  0.00    -0.007 A 
HETATM   13  C   UNL     1      30.647  43.074  55.621  1.00  0.00     0.014 A 
HETATM   14  C   UNL     1      31.427  43.283  56.760  1.00  0.00     0.001 A 
HETATM   15  C   UNL     1      31.294  44.463  57.489  1.00  0.00     0.000 A 
HETATM   16  C   UNL     1      30.384  45.436  57.079  1.00  0.00     0.001 A 
HETATM   17  C   UNL     1      29.603  45.226  55.940  1.00  0.00     0.014 A 
ENDBRANCH   8  12
ENDBRANCH   1   5
BRANCH   2  18
HETATM   18  C   UNL     1      24.067  44.693  51.072  1.00  0.00     0.156 C 
BRANCH  18  19
HETATM   19  C   UNL     1      23.851  45.248  49.631  1.00  0.00     0.209 C 
BRANCH  19  20
HETATM   20  N   UNL     1      23.452  46.736  49.707  1.00  0.00    -0.065 N 
HETATM   21  H   UNL     1      23.093  46.855  50.678  1.00  0.00     0.280 HD
HETATM   22  C   UNL     1      22.299  47.276  48.877  1.00  0.00     0.235 C 
HETATM   23  C   UNL     1      22.890  48.435  48.097  1.00  0.00     0.029 C 
HETATM   24  C   UNL     1      23.960  48.973  49.026  1.00  0.00     0.029 C 
HETATM   25  C   UNL     1      24.594  47.721  49.599  1.00  0.00     0.235 C 
ENDBRANCH  19  20
BRANCH  19  26
HETATM   26  C   UNL     1      22.923  44.384  48.723  1.00  0.00     0.010 C 
HETATM   27  C   UNL     1      23.465  44.258  47.294  1.00  0.00     0.011 C 
HETATM   28  C   UNL     1      22.726  42.960  49.268  1.00  0.00     0.011 C 
ENDBRANCH  19  26
ENDBRANCH  18  19
ENDBRANCH   2  18
TORSDOF 6
ENDMDL
MODEL 8
REMARK VINA RESULT:      -8.0      1.456      3.119
REMARK  6 active torsions:
REMARK  status: ('A' for Active; 'I' for Inactive)
REMARK    1  A    between atoms: C_3  and  C_4 
REMARK       I    between atoms: C_4  and  N_5 
REMARK    2  A    between atoms: N_5  and  C_6 
REMARK    3  A    between atoms: C_6  and  C_7 
REMARK    4  A    between atoms: C_7  and  N_8 
REMARK    5  A    between atoms: C_7  and  C_14 
REMARK    6  A    between atoms: C_21  and  C_22 
ROOT
HETATM    1  C   UNL     1      27.328  43.065  51.816  1.00  0.00     0.272 C 
HETATM    2  N   UNL     1      27.311  43.984  50.786  1.00  0.00    -0.354 N 
HETATM    3  O   UNL     1      27.016  41.890  51.617  1.00  0.00    -0.266 OA
HETATM    4  H   UNL     1      27.507  44.941  51.086  1.00  0.00     0.162 HD
ENDROOT
BRANCH   1   5
HETATM    5  C   UNL     1      27.795  43.618  53.095  1.00  0.00     0.152 A 
HETATM    6  C   UNL     1      29.063  43.444  53.729  1.00  0.00     0.003 A 
HETATM    7  C   UNL     1      30.215  42.651  53.228  1.00  0.00     0.053 C 
HETATM    8  C   UNL     1      28.973  44.172  54.906  1.00  0.00     0.069 A 
HETATM    9  N   UNL     1      27.713  44.709  54.911  1.00  0.00    -0.276 N 
HETATM   10  N   UNL     1      26.982  44.407  53.824  1.00  0.00    -0.168 NA
HETATM   11  H   UNL     1      27.295  45.281  55.638  1.00  0.00     0.189 HD
BRANCH   8  12
HETATM   12  C   UNL     1      29.908  44.382  56.007  1.00  0.00    -0.007 A 
HETATM   13  C   UNL     1      30.947  43.474  56.241  1.00  0.00     0.014 A 
HETATM   14  C   UNL     1      31.834  43.669  57.301  1.00  0.00     0.001 A 
HETATM   15  C   UNL     1      31.690  44.774  58.138  1.00  0.00     0.000 A 
HETATM   16  C   UNL     1      30.661  45.686  57.913  1.00  0.00     0.001 A 
HETATM   17  C   UNL     1      29.772  45.491  56.854  1.00  0.00     0.014 A 
ENDBRANCH   8  12
ENDBRANCH   1   5
BRANCH   2  18
HETATM   18  C   UNL     1      26.603  43.725  49.552  1.00  0.00     0.156 C 
BRANCH  18  19
HETATM   19  C   UNL     1      25.429  44.702  49.243  1.00  0.00     0.209 C 
BRANCH  19  20
HETATM   20  N   UNL     1      25.679  46.049  49.952  1.00  0.00    -0.065 N 
HETATM   21  H   UNL     1      25.927  45.781  50.928  1.00  0.00     0.280 HD
HETATM   22  C   UNL     1      24.542  47.033  50.176  1.00  0.00     0.235 C 
HETATM   23  C   UNL     1      25.025  48.331  49.557  1.00  0.00     0.029 C 
HETATM   24  C   UNL     1      26.526  48.278  49.756  1.00  0.00     0.029 C 
HETATM   25  C   UNL     1      26.872  46.833  49.456  1.00  0.00     0.235 C 
ENDBRANCH  19  20
BRANCH  19  26
HETATM   26  C   UNL     1      24.003  44.114  49.474  1.00  0.00     0.010 C 
HETATM   27  C   UNL     1      23.134  44.188  48.212  1.00  0.00     0.011 C 
HETATM   28  C   UNL     1      24.038  42.644  49.922  1.00  0.00     0.011 C 
ENDBRANCH  19  26
ENDBRANCH  18  19
ENDBRANCH   2  18
TORSDOF 6
ENDMDL
MODEL 9
REMARK VINA RESULT:      -7.9      3.580      5.328
REMARK  6 active torsions:
REMARK  status: ('A' for Active; 'I' for Inactive)
REMARK    1  A    between atoms: C_3  and  C_4 
REMARK       I    between atoms: C_4  and  N_5 
REMARK    2  A    between atoms: N_5  and  C_6 
REMARK    3  A    between atoms: C_6  and  C_7 
REMARK    4  A    between atoms: C_7  and  N_8 
REMARK    5  A    between atoms: C_7  and  C_14 
REMARK    6  A    between atoms: C_21  and  C_22 
ROOT
HETATM    1  C   UNL     1      24.530  47.453  49.691  1.00  0.00     0.272 C 
HETATM    2  N   UNL     1      23.262  47.151  49.237  1.00  0.00    -0.354 N 
HETATM    3  O   UNL     1      24.931  48.618  49.711  1.00  0.00    -0.266 OA
HETATM    4  H   UNL     1      23.072  46.148  49.188  1.00  0.00     0.162 HD
ENDROOT
BRANCH   1   5
HETATM    5  C   UNL     1      25.279  46.285  50.176  1.00  0.00     0.152 A 
HETATM    6  C   UNL     1      25.932  46.106  51.433  1.00  0.00     0.003 A 
HETATM    7  C   UNL     1      26.000  47.078  52.555  1.00  0.00     0.053 C 
HETATM    8  C   UNL     1      26.484  44.835  51.368  1.00  0.00     0.069 A 
HETATM    9  N   UNL     1      26.150  44.353  50.130  1.00  0.00    -0.276 N 
HETATM   10  N   UNL     1      25.409  45.198  49.391  1.00  0.00    -0.168 NA
HETATM   11  H   UNL     1      26.412  43.457  49.732  1.00  0.00     0.189 HD
BRANCH   8  12
HETATM   12  C   UNL     1      27.293  44.065  52.306  1.00  0.00    -0.007 A 
HETATM   13  C   UNL     1      26.764  43.662  53.538  1.00  0.00     0.014 A 
HETATM   14  C   UNL     1      27.542  42.934  54.441  1.00  0.00     0.001 A 
HETATM   15  C   UNL     1      28.857  42.604  54.120  1.00  0.00     0.000 A 
HETATM   16  C   UNL     1      29.395  42.999  52.896  1.00  0.00     0.001 A 
HETATM   17  C   UNL     1      28.617  43.727  51.993  1.00  0.00     0.014 A 
ENDBRANCH   8  12
ENDBRANCH   1   5
BRANCH   2  18
HETATM   18  C   UNL     1      22.497  48.090  48.447  1.00  0.00     0.156 C 
BRANCH  18  19
HETATM   19  C   UNL     1      21.315  48.779  49.194  1.00  0.00     0.209 C 
BRANCH  19  20
HETATM   20  N   UNL     1      19.997  48.053  48.854  1.00  0.00    -0.065 N 
HETATM   21  H   UNL     1      20.266  47.047  48.806  1.00  0.00     0.280 HD
HETATM   22  C   UNL     1      19.318  48.261  47.511  1.00  0.00     0.235 C 
HETATM   23  C   UNL     1      17.905  48.695  47.853  1.00  0.00     0.029 C 
HETATM   24  C   UNL     1      17.625  47.981  49.159  1.00  0.00     0.029 C 
HETATM   25  C   UNL     1      18.928  48.112  49.922  1.00  0.00     0.235 C 
ENDBRANCH  19  20
BRANCH  19  26
HETATM   26  C   UNL     1      21.249  50.328  49.036  1.00  0.00     0.010 C 
HETATM   27  C   UNL     1      21.039  51.039  50.379  1.00  0.00     0.011 C 
HETATM   28  C   UNL     1      22.523  50.911  48.402  1.00  0.00     0.011 C 
ENDBRANCH  19  26
ENDBRANCH  18  19
ENDBRANCH   2  18
TORSDOF 6
ENDMDL
MODEL 10
REMARK VINA RESULT:      -7.9      2.186      3.803
REMARK  6 active torsions:
REMARK  status: ('A' for Active; 'I' for Inactive)
REMARK    1  A    between atoms: C_3  and  C_4 
REMARK       I    between atoms: C_4  and  N_5 
REMARK    2  A    between atoms: N_5  and  C_6 
REMARK    3  A    between atoms: C_6  and  C_7 
REMARK    4  A    between atoms: C_7  and  N_8 
REMARK    5  A    between atoms: C_7  and  C_14 
REMARK    6  A    between atoms: C_21  and  C_22 
ROOT
HETATM    1  C   UNL     1      25.790  44.489  52.381  1.00  0.00     0.272 C 
HETATM    2  N   UNL     1      26.334  44.016  51.203  1.00  0.00    -0.354 N 
HETATM    3  O   UNL     1      24.570  44.485  52.557  1.00  0.00    -0.266 OA
HETATM    4  H   UNL     1      27.346  44.146  51.138  1.00  0.00     0.162 HD
ENDROOT
BRANCH   1   5
HETATM    5  C   UNL     1      26.792  44.916  53.367  1.00  0.00     0.152 A 
HETATM    6  C   UNL     1      27.705  44.112  54.114  1.00  0.00     0.003 A 
HETATM    7  C   UNL     1      27.849  42.634  54.061  1.00  0.00     0.053 C 
HETATM    8  C   UNL     1      28.415  45.013  54.894  1.00  0.00     0.069 A 
HETATM    9  N   UNL     1      27.905  46.246  54.587  1.00  0.00    -0.276 N 
HETATM   10  N   UNL     1      26.935  46.225  53.656  1.00  0.00    -0.168 NA
HETATM   11  H   UNL     1      28.174  47.137  54.992  1.00  0.00     0.189 HD
BRANCH   8  12
HETATM   12  C   UNL     1      29.467  44.836  55.890  1.00  0.00    -0.007 A 
HETATM   13  C   UNL     1      30.455  43.860  55.716  1.00  0.00     0.014 A 
HETATM   14  C   UNL     1      31.455  43.683  56.674  1.00  0.00     0.001 A 
HETATM   15  C   UNL     1      31.476  44.482  57.816  1.00  0.00     0.000 A 
HETATM   16  C   UNL     1      30.498  45.459  58.000  1.00  0.00     0.001 A 
HETATM   17  C   UNL     1      29.497  45.635  57.042  1.00  0.00     0.014 A 
ENDBRANCH   8  12
ENDBRANCH   1   5
BRANCH   2  18
HETATM   18  C   UNL     1      25.531  43.843  50.014  1.00  0.00     0.156 C 
BRANCH  18  19
HETATM   19  C   UNL     1      24.746  42.499  49.932  1.00  0.00     0.209 C 
BRANCH  19  20
HETATM   20  N   UNL     1      25.721  41.353  49.590  1.00  0.00    -0.065 N 
HETATM   21  H   UNL     1      25.140  40.677  49.052  1.00  0.00     0.280 HD
HETATM   22  C   UNL     1      26.299  40.471  50.684  1.00  0.00     0.235 C 
HETATM   23  C   UNL     1      27.802  40.556  50.500  1.00  0.00     0.029 C 
HETATM   24  C   UNL     1      27.961  40.750  49.006  1.00  0.00     0.029 C 
HETATM   25  C   UNL     1      26.850  41.718  48.653  1.00  0.00     0.235 C 
ENDBRANCH  19  20
BRANCH  19  26
HETATM   26  C   UNL     1      23.467  42.535  49.042  1.00  0.00     0.010 C 
HETATM   27  C   UNL     1      23.510  43.669  48.010  1.00  0.00     0.011 C 
HETATM   28  C   UNL     1      23.246  41.222  48.274  1.00  0.00     0.011 C 
ENDBRANCH  19  26
ENDBRANCH  18  19
ENDBRANCH   2  18
TORSDOF 6
ENDMDL
