MODEL 1
REMARK VINA RESULT:      -7.5      0.000      0.000
REMARK  6 active torsions:
REMARK  status: ('A' for Active; 'I' for Inactive)
REMARK    1  A    between atoms: C_2  and  O_3 
REMARK    2  A    between atoms: O_3  and  C_4 
REMARK    3  A    between atoms: C_4  and  C_5 
REMARK    4  A    between atoms: C_6  and  O_7 
REMARK    5  A    between atoms: C_12  and  O_13 
REMARK    6  A    between atoms: C_17  and  C_18 
ROOT
HETATM    1  C   UNL     1      27.371  42.790  53.559  1.00  0.00     0.133 C 
HETATM    2  C   UNL     1      28.927  42.721  53.385  1.00  0.00     0.073 C 
HETATM    3  C   UNL     1      29.653  42.801  54.739  1.00  0.00     0.047 C 
HETATM    4  C   UNL     1      29.359  41.390  52.690  1.00  0.00     0.097 C 
HETATM    5  C   UNL     1      28.417  41.039  51.596  1.00  0.00     0.042 A 
HETATM    6  C   UNL     1      27.147  41.538  51.391  1.00  0.00     0.030 A 
HETATM    7  C   UNL     1      26.709  40.844  50.252  1.00  0.00     0.190 A 
HETATM    8  N   UNL     1      27.597  39.980  49.778  1.00  0.00    -0.149 NA
HETATM    9  N   UNL     1      28.650  40.134  50.601  1.00  0.00    -0.279 N 
HETATM   10  H   UNL     1      29.482  39.580  50.426  1.00  0.00     0.189 HD
HETATM   11  C   UNL     1      26.515  42.553  52.282  1.00  0.00     0.075 C 
ENDROOT
BRANCH  11  12
HETATM   12  C   UNL     1      26.188  43.759  51.415  1.00  0.00    -0.045 A 
HETATM   13  C   UNL     1      27.150  44.464  50.672  1.00  0.00     0.050 A 
HETATM   14  C   UNL     1      26.781  45.568  49.907  1.00  0.00     0.117 A 
HETATM   15  F   UNL     1      27.714  46.229  49.212  1.00  0.00    -0.206 F 
HETATM   16  C   UNL     1      25.462  45.998  49.856  1.00  0.00     0.042 A 
HETATM   17  C   UNL     1      24.492  45.315  50.583  1.00  0.00     0.004 A 
HETATM   18  C   UNL     1      24.854  44.209  51.359  1.00  0.00     0.008 A 
ENDBRANCH  11  12
BRANCH   1  19
HETATM   19  C   UNL     1      26.848  44.007  54.289  1.00  0.00     0.267 C 
HETATM   20  O   UNL     1      25.887  43.966  55.049  1.00  0.00    -0.265 OA
BRANCH  19  21
HETATM   21  O   UNL     1      27.532  45.136  53.962  1.00  0.00    -0.316 OA
BRANCH  21  22
HETATM   22  C   UNL     1      27.004  46.381  54.461  1.00  0.00     0.123 C 
HETATM   23  C   UNL     1      26.312  47.135  53.332  1.00  0.00     0.040 C 
HETATM   24  C   UNL     1      28.187  47.180  54.995  1.00  0.00     0.040 C 
ENDBRANCH  21  22
ENDBRANCH  19  21
ENDBRANCH   1  19
BRANCH   2  25
HETATM   25  O   UNL     1      29.429  43.795  52.580  1.00  0.00    -0.389 OA
HETATM   26  H   UNL     1      30.385  43.644  52.441  1.00  0.00     0.210 HD
ENDBRANCH   2  25
BRANCH   7  27
HETATM   27  O   UNL     1      25.554  40.938  49.590  1.00  0.00    -0.343 OA
HETATM   28  H   UNL     1      25.383  40.105  49.126  1.00  0.00     0.219 HD
ENDBRANCH   7  27
TORSDOF 6
ENDMDL
MODEL 2
REMARK VINA RESULT:      -7.2     12.383     13.985
REMARK  6 active torsions:
REMARK  status: ('A' for Active; 'I' for Inactive)
REMARK    1  A    between atoms: C_2  and  O_3 
REMARK    2  A    between atoms: O_3  and  C_4 
REMARK    3  A    between atoms: C_4  and  C_5 
REMARK    4  A    between atoms: C_6  and  O_7 
REMARK    5  A    between atoms: C_12  and  O_13 
REMARK    6  A    between atoms: C_17  and  C_18 
ROOT
HETATM    1  C   UNL     1      31.639  50.432  41.565  1.00  0.00     0.133 C 
HETATM    2  C   UNL     1      32.170  49.188  40.775  1.00  0.00     0.073 C 
HETATM    3  C   UNL     1      33.622  48.851  41.155  1.00  0.00     0.047 C 
HETATM    4  C   UNL     1      31.296  47.924  41.058  1.00  0.00     0.097 C 
HETATM    5  C   UNL     1      29.856  48.283  41.110  1.00  0.00     0.042 A 
HETATM    6  C   UNL     1      29.309  49.540  41.261  1.00  0.00     0.030 A 
HETATM    7  C   UNL     1      27.928  49.292  41.277  1.00  0.00     0.190 A 
HETATM    8  N   UNL     1      27.615  48.007  41.160  1.00  0.00    -0.149 NA
HETATM    9  N   UNL     1      28.811  47.406  41.032  1.00  0.00    -0.279 N 
HETATM   10  H   UNL     1      28.833  46.400  40.907  1.00  0.00     0.189 HD
HETATM   11  C   UNL     1      30.132  50.777  41.395  1.00  0.00     0.075 C 
ENDROOT
BRANCH  11  12
HETATM   12  C   UNL     1      29.741  51.694  40.247  1.00  0.00    -0.045 A 
HETATM   13  C   UNL     1      29.559  53.079  40.387  1.00  0.00     0.050 A 
HETATM   14  C   UNL     1      29.188  53.857  39.293  1.00  0.00     0.117 A 
HETATM   15  F   UNL     1      29.013  55.175  39.451  1.00  0.00    -0.206 F 
HETATM   16  C   UNL     1      28.993  53.290  38.041  1.00  0.00     0.042 A 
HETATM   17  C   UNL     1      29.168  51.920  37.878  1.00  0.00     0.004 A 
HETATM   18  C   UNL     1      29.533  51.129  38.972  1.00  0.00     0.008 A 
ENDBRANCH  11  12
BRANCH   1  19
HETATM   19  C   UNL     1      32.457  51.697  41.421  1.00  0.00     0.267 C 
HETATM   20  O   UNL     1      32.968  52.041  40.361  1.00  0.00    -0.265 OA
BRANCH  19  21
HETATM   21  O   UNL     1      32.590  52.361  42.600  1.00  0.00    -0.316 OA
BRANCH  21  22
HETATM   22  C   UNL     1      33.129  51.613  43.708  1.00  0.00     0.123 C 
HETATM   23  C   UNL     1      32.396  51.992  44.989  1.00  0.00     0.040 C 
HETATM   24  C   UNL     1      34.606  51.972  43.807  1.00  0.00     0.040 C 
ENDBRANCH  21  22
ENDBRANCH  19  21
ENDBRANCH   1  19
BRANCH   2  25
HETATM   25  O   UNL     1      32.151  49.400  39.358  1.00  0.00    -0.389 OA
HETATM   26  H   UNL     1      32.702  48.707  38.943  1.00  0.00     0.210 HD
ENDBRANCH   2  25
BRANCH   7  27
HETATM   27  O   UNL     1      26.909  50.148  41.381  1.00  0.00    -0.343 OA
HETATM   28  H   UNL     1      26.644  50.439  40.497  1.00  0.00     0.219 HD
ENDBRANCH   7  27
TORSDOF 6
ENDMDL
MODEL 3
REMARK VINA RESULT:      -7.1      2.554      4.621
REMARK  6 active torsions:
REMARK  status: ('A' for Active; 'I' for Inactive)
REMARK    1  A    between atoms: C_2  and  O_3 
REMARK    2  A    between atoms: O_3  and  C_4 
REMARK    3  A    between atoms: C_4  and  C_5 
REMARK    4  A    between atoms: C_6  and  O_7 
REMARK    5  A    between atoms: C_12  and  O_13 
REMARK    6  A    between atoms: C_17  and  C_18 
ROOT
HETATM    1  C   UNL     1      25.954  44.430  50.003  1.00  0.00     0.133 C 
HETATM    2  C   UNL     1      24.477  43.923  50.134  1.00  0.00     0.073 C 
HETATM    3  C   UNL     1      23.479  44.914  49.512  1.00  0.00     0.047 C 
HETATM    4  C   UNL     1      24.288  42.545  49.421  1.00  0.00     0.097 C 
HETATM    5  C   UNL     1      25.459  41.664  49.662  1.00  0.00     0.042 A 
HETATM    6  C   UNL     1      26.708  42.035  50.114  1.00  0.00     0.030 A 
HETATM    7  C   UNL     1      27.420  40.825  50.122  1.00  0.00     0.190 A 
HETATM    8  N   UNL     1      26.709  39.784  49.709  1.00  0.00    -0.149 NA
HETATM    9  N   UNL     1      25.500  40.315  49.456  1.00  0.00    -0.279 N 
HETATM   10  H   UNL     1      24.760  39.697  49.136  1.00  0.00     0.189 HD
HETATM   11  C   UNL     1      27.072  43.443  50.443  1.00  0.00     0.075 C 
ENDROOT
BRANCH  11  12
HETATM   12  C   UNL     1      27.495  43.458  51.905  1.00  0.00    -0.045 A 
HETATM   13  C   UNL     1      26.603  43.264  52.972  1.00  0.00     0.050 A 
HETATM   14  C   UNL     1      27.058  43.303  54.288  1.00  0.00     0.117 A 
HETATM   15  F   UNL     1      26.190  43.123  55.291  1.00  0.00    -0.206 F 
HETATM   16  C   UNL     1      28.396  43.530  54.579  1.00  0.00     0.042 A 
HETATM   17  C   UNL     1      29.298  43.724  53.538  1.00  0.00     0.004 A 
HETATM   18  C   UNL     1      28.850  43.694  52.213  1.00  0.00     0.008 A 
ENDBRANCH  11  12
BRANCH   1  19
HETATM   19  C   UNL     1      26.232  45.793  50.597  1.00  0.00     0.267 C 
HETATM   20  O   UNL     1      25.893  46.107  51.732  1.00  0.00    -0.265 OA
BRANCH  19  21
HETATM   21  O   UNL     1      26.848  46.623  49.712  1.00  0.00    -0.316 OA
BRANCH  21  22
HETATM   22  C   UNL     1      26.608  48.035  49.873  1.00  0.00     0.123 C 
HETATM   23  C   UNL     1      25.237  48.391  49.311  1.00  0.00     0.040 C 
HETATM   24  C   UNL     1      27.708  48.760  49.107  1.00  0.00     0.040 C 
ENDBRANCH  21  22
ENDBRANCH  19  21
ENDBRANCH   1  19
BRANCH   2  25
HETATM   25  O   UNL     1      24.086  43.743  51.500  1.00  0.00    -0.389 OA
HETATM   26  H   UNL     1      24.286  44.570  51.982  1.00  0.00     0.210 HD
ENDBRANCH   2  25
BRANCH   7  27
HETATM   27  O   UNL     1      28.680  40.580  50.489  1.00  0.00    -0.343 OA
HETATM   28  H   UNL     1      28.969  39.741  50.101  1.00  0.00     0.219 HD
ENDBRANCH   7  27
TORSDOF 6
ENDMDL
MODEL 4
REMARK VINA RESULT:      -6.9     12.737     14.192
REMARK  6 active torsions:
REMARK  status: ('A' for Active; 'I' for Inactive)
REMARK    1  A    between atoms: C_2  and  O_3 
REMARK    2  A    between atoms: O_3  and  C_4 
REMARK    3  A    between atoms: C_4  and  C_5 
REMARK    4  A    between atoms: C_6  and  O_7 
REMARK    5  A    between atoms: C_12  and  O_13 
REMARK    6  A    between atoms: C_17  and  C_18 
ROOT
HETATM    1  C   UNL     1      28.691  48.068  40.505  1.00  0.00     0.133 C 
HETATM    2  C   UNL     1      29.096  47.361  39.167  1.00  0.00     0.073 C 
HETATM    3  C   UNL     1      30.062  46.189  39.413  1.00  0.00     0.047 C 
HETATM    4  C   UNL     1      27.843  46.798  38.423  1.00  0.00     0.097 C 
HETATM    5  C   UNL     1      26.708  47.753  38.510  1.00  0.00     0.042 A 
HETATM    6  C   UNL     1      26.567  48.811  39.383  1.00  0.00     0.030 A 
HETATM    7  C   UNL     1      25.311  49.340  39.049  1.00  0.00     0.190 A 
HETATM    8  N   UNL     1      24.699  48.685  38.071  1.00  0.00    -0.149 NA
HETATM    9  N   UNL     1      25.584  47.731  37.735  1.00  0.00    -0.279 N 
HETATM   10  H   UNL     1      25.346  47.098  36.978  1.00  0.00     0.189 HD
HETATM   11  C   UNL     1      27.590  49.163  40.410  1.00  0.00     0.075 C 
ENDROOT
BRANCH  11  12
HETATM   12  C   UNL     1      28.033  50.589  40.120  1.00  0.00    -0.045 A 
HETATM   13  C   UNL     1      28.397  51.044  38.843  1.00  0.00     0.050 A 
HETATM   14  C   UNL     1      28.805  52.362  38.652  1.00  0.00     0.117 A 
HETATM   15  F   UNL     1      29.154  52.774  37.427  1.00  0.00    -0.206 F 
HETATM   16  C   UNL     1      28.859  53.258  39.712  1.00  0.00     0.042 A 
HETATM   17  C   UNL     1      28.503  52.829  40.987  1.00  0.00     0.004 A 
HETATM   18  C   UNL     1      28.099  51.506  41.189  1.00  0.00     0.008 A 
ENDBRANCH  11  12
BRANCH   1  19
HETATM   19  C   UNL     1      29.838  48.588  41.344  1.00  0.00     0.267 C 
HETATM   20  O   UNL     1      29.818  48.591  42.569  1.00  0.00    -0.265 OA
BRANCH  19  21
HETATM   21  O   UNL     1      30.848  49.086  40.581  1.00  0.00    -0.316 OA
BRANCH  21  22
HETATM   22  C   UNL     1      31.753  50.004  41.225  1.00  0.00     0.123 C 
HETATM   23  C   UNL     1      31.959  51.228  40.340  1.00  0.00     0.040 C 
HETATM   24  C   UNL     1      33.067  49.261  41.428  1.00  0.00     0.040 C 
ENDBRANCH  21  22
ENDBRANCH  19  21
ENDBRANCH   1  19
BRANCH   2  25
HETATM   25  O   UNL     1      29.753  48.256  38.260  1.00  0.00    -0.389 OA
HETATM   26  H   UNL     1      30.525  47.789  37.883  1.00  0.00     0.210 HD
ENDBRANCH   2  25
BRANCH   7  27
HETATM   27  O   UNL     1      24.666  50.391  39.560  1.00  0.00    -0.343 OA
HETATM   28  H   UNL     1      23.864  50.086  40.011  1.00  0.00     0.219 HD
ENDBRANCH   7  27
TORSDOF 6
ENDMDL
MODEL 5
REMARK VINA RESULT:      -6.9      7.500     10.259
REMARK  6 active torsions:
REMARK  status: ('A' for Active; 'I' for Inactive)
REMARK    1  A    between atoms: C_2  and  O_3 
REMARK    2  A    between atoms: O_3  and  C_4 
REMARK    3  A    between atoms: C_4  and  C_5 
REMARK    4  A    between atoms: C_6  and  O_7 
REMARK    5  A    between atoms: C_12  and  O_13 
REMARK    6  A    between atoms: C_17  and  C_18 
ROOT
HETATM    1  C   UNL     1      20.568  47.412  47.149  1.00  0.00     0.133 C 
HETATM    2  C   UNL     1      20.435  46.191  48.122  1.00  0.00     0.073 C 
HETATM    3  C   UNL     1      19.815  44.971  47.421  1.00  0.00     0.047 C 
HETATM    4  C   UNL     1      21.828  45.762  48.683  1.00  0.00     0.097 C 
HETATM    5  C   UNL     1      22.655  46.953  49.005  1.00  0.00     0.042 A 
HETATM    6  C   UNL     1      22.460  48.249  48.576  1.00  0.00     0.030 A 
HETATM    7  C   UNL     1      23.539  48.943  49.145  1.00  0.00     0.190 A 
HETATM    8  N   UNL     1      24.353  48.174  49.857  1.00  0.00    -0.149 NA
HETATM    9  N   UNL     1      23.779  46.960  49.781  1.00  0.00    -0.279 N 
HETATM   10  H   UNL     1      24.216  46.189  50.274  1.00  0.00     0.189 HD
HETATM   11  C   UNL     1      21.332  48.654  47.688  1.00  0.00     0.075 C 
ENDROOT
BRANCH  11  12
HETATM   12  C   UNL     1      20.532  49.705  48.444  1.00  0.00    -0.045 A 
HETATM   13  C   UNL     1      20.206  50.963  47.911  1.00  0.00     0.050 A 
HETATM   14  C   UNL     1      19.479  51.882  48.665  1.00  0.00     0.117 A 
HETATM   15  F   UNL     1      19.186  53.078  48.141  1.00  0.00    -0.206 F 
HETATM   16  C   UNL     1      19.056  51.580  49.952  1.00  0.00     0.042 A 
HETATM   17  C   UNL     1      19.367  50.340  50.500  1.00  0.00     0.004 A 
HETATM   18  C   UNL     1      20.102  49.413  49.754  1.00  0.00     0.008 A 
ENDBRANCH  11  12
BRANCH   1  19
HETATM   19  C   UNL     1      19.284  47.866  46.490  1.00  0.00     0.267 C 
HETATM   20  O   UNL     1      19.233  48.252  45.328  1.00  0.00    -0.265 OA
BRANCH  19  21
HETATM   21  O   UNL     1      18.228  47.838  47.347  1.00  0.00    -0.316 OA
BRANCH  21  22
HETATM   22  C   UNL     1      17.096  48.662  47.007  1.00  0.00     0.123 C 
HETATM   23  C   UNL     1      16.600  49.393  48.248  1.00  0.00     0.040 C 
HETATM   24  C   UNL     1      16.018  47.730  46.465  1.00  0.00     0.040 C 
ENDBRANCH  21  22
ENDBRANCH  19  21
ENDBRANCH   1  19
BRANCH   2  25
HETATM   25  O   UNL     1      19.604  46.488  49.251  1.00  0.00    -0.389 OA
HETATM   26  H   UNL     1      19.920  47.324  49.646  1.00  0.00     0.210 HD
ENDBRANCH   2  25
BRANCH   7  27
HETATM   27  O   UNL     1      23.849  50.240  49.079  1.00  0.00    -0.343 OA
HETATM   28  H   UNL     1      23.103  50.764  49.404  1.00  0.00     0.219 HD
ENDBRANCH   7  27
TORSDOF 6
ENDMDL
MODEL 6
REMARK VINA RESULT:      -6.9      2.391      3.853
REMARK  6 active torsions:
REMARK  status: ('A' for Active; 'I' for Inactive)
REMARK    1  A    between atoms: C_2  and  O_3 
REMARK    2  A    between atoms: O_3  and  C_4 
REMARK    3  A    between atoms: C_4  and  C_5 
REMARK    4  A    between atoms: C_6  and  O_7 
REMARK    5  A    between atoms: C_12  and  O_13 
REMARK    6  A    between atoms: C_17  and  C_18 
ROOT
HETATM    1  C   UNL     1      26.445  42.052  50.965  1.00  0.00     0.133 C 
HETATM    2  C   UNL     1      26.815  41.587  49.515  1.00  0.00     0.073 C 
HETATM    3  C   UNL     1      27.887  40.485  49.529  1.00  0.00     0.047 C 
HETATM    4  C   UNL     1      25.564  41.026  48.766  1.00  0.00     0.097 C 
HETATM    5  C   UNL     1      24.363  41.850  49.059  1.00  0.00     0.042 A 
HETATM    6  C   UNL     1      24.196  42.753  50.088  1.00  0.00     0.030 A 
HETATM    7  C   UNL     1      22.881  43.208  49.908  1.00  0.00     0.190 A 
HETATM    8  N   UNL     1      22.259  42.649  48.878  1.00  0.00    -0.149 NA
HETATM    9  N   UNL     1      23.194  41.838  48.353  1.00  0.00    -0.279 N 
HETATM   10  H   UNL     1      22.957  41.303  47.524  1.00  0.00     0.189 HD
HETATM   11  C   UNL     1      25.255  43.044  51.098  1.00  0.00     0.075 C 
ENDROOT
BRANCH  11  12
HETATM   12  C   UNL     1      25.558  44.532  51.002  1.00  0.00    -0.045 A 
HETATM   13  C   UNL     1      26.312  45.104  49.965  1.00  0.00     0.050 A 
HETATM   14  C   UNL     1      26.562  46.474  49.947  1.00  0.00     0.117 A 
HETATM   15  F   UNL     1      27.289  46.999  48.953  1.00  0.00    -0.206 F 
HETATM   16  C   UNL     1      26.073  47.307  50.944  1.00  0.00     0.042 A 
HETATM   17  C   UNL     1      25.323  46.762  51.982  1.00  0.00     0.004 A 
HETATM   18  C   UNL     1      25.073  45.386  52.013  1.00  0.00     0.008 A 
ENDBRANCH  11  12
BRANCH   1  19
HETATM   19  C   UNL     1      27.600  42.547  51.808  1.00  0.00     0.267 C 
HETATM   20  O   UNL     1      28.641  42.976  51.324  1.00  0.00    -0.265 OA
BRANCH  19  21
HETATM   21  O   UNL     1      27.360  42.411  53.140  1.00  0.00    -0.316 OA
BRANCH  21  22
HETATM   22  C   UNL     1      27.618  43.563  53.966  1.00  0.00     0.123 C 
HETATM   23  C   UNL     1      28.933  43.378  54.712  1.00  0.00     0.040 C 
HETATM   24  C   UNL     1      26.455  43.674  54.945  1.00  0.00     0.040 C 
ENDBRANCH  21  22
ENDBRANCH  19  21
ENDBRANCH   1  19
BRANCH   2  25
HETATM   25  O   UNL     1      27.332  42.660  48.719  1.00  0.00    -0.389 OA
HETATM   26  H   UNL     1      28.288  42.740  48.906  1.00  0.00     0.210 HD
ENDBRANCH   2  25
BRANCH   7  27
HETATM   27  O   UNL     1      22.188  44.110  50.607  1.00  0.00    -0.343 OA
HETATM   28  H   UNL     1      21.247  44.022  50.398  1.00  0.00     0.219 HD
ENDBRANCH   7  27
TORSDOF 6
ENDMDL
MODEL 7
REMARK VINA RESULT:      -6.6      7.629     10.394
REMARK  6 active torsions:
REMARK  status: ('A' for Active; 'I' for Inactive)
REMARK    1  A    between atoms: C_2  and  O_3 
REMARK    2  A    between atoms: O_3  and  C_4 
REMARK    3  A    between atoms: C_4  and  C_5 
REMARK    4  A    between atoms: C_6  and  O_7 
REMARK    5  A    between atoms: C_12  and  O_13 
REMARK    6  A    between atoms: C_17  and  C_18 
ROOT
HETATM    1  C   UNL     1      20.516  47.410  47.187  1.00  0.00     0.133 C 
HETATM    2  C   UNL     1      20.542  46.232  48.219  1.00  0.00     0.073 C 
HETATM    3  C   UNL     1      19.934  44.948  47.629  1.00  0.00     0.047 C 
HETATM    4  C   UNL     1      22.003  45.906  48.668  1.00  0.00     0.097 C 
HETATM    5  C   UNL     1      22.784  47.155  48.862  1.00  0.00     0.042 A 
HETATM    6  C   UNL     1      22.476  48.417  48.398  1.00  0.00     0.030 A 
HETATM    7  C   UNL     1      23.559  49.194  48.836  1.00  0.00     0.190 A 
HETATM    8  N   UNL     1      24.476  48.505  49.503  1.00  0.00    -0.149 NA
HETATM    9  N   UNL     1      23.969  47.260  49.531  1.00  0.00    -0.279 N 
HETATM   10  H   UNL     1      24.494  46.538  50.014  1.00  0.00     0.189 HD
HETATM   11  C   UNL     1      21.252  48.717  47.601  1.00  0.00     0.075 C 
ENDROOT
BRANCH  11  12
HETATM   12  C   UNL     1      20.461  49.757  48.381  1.00  0.00    -0.045 A 
HETATM   13  C   UNL     1      20.131  51.023  47.872  1.00  0.00     0.050 A 
HETATM   14  C   UNL     1      19.414  51.931  48.647  1.00  0.00     0.117 A 
HETATM   15  F   UNL     1      19.115  53.136  48.145  1.00  0.00    -0.206 F 
HETATM   16  C   UNL     1      19.006  51.611  49.935  1.00  0.00     0.042 A 
HETATM   17  C   UNL     1      19.322  50.362  50.461  1.00  0.00     0.004 A 
HETATM   18  C   UNL     1      20.047  49.446  49.692  1.00  0.00     0.008 A 
ENDBRANCH  11  12
BRANCH   1  19
HETATM   19  C   UNL     1      19.155  47.762  46.629  1.00  0.00     0.267 C 
HETATM   20  O   UNL     1      18.134  47.750  47.308  1.00  0.00    -0.265 OA
BRANCH  19  21
HETATM   21  O   UNL     1      19.200  48.039  45.298  1.00  0.00    -0.316 OA
BRANCH  21  22
HETATM   22  C   UNL     1      18.082  48.764  44.749  1.00  0.00     0.123 C 
HETATM   23  C   UNL     1      17.851  48.335  43.305  1.00  0.00     0.040 C 
HETATM   24  C   UNL     1      18.438  50.244  44.819  1.00  0.00     0.040 C 
ENDBRANCH  21  22
ENDBRANCH  19  21
ENDBRANCH   1  19
BRANCH   2  25
HETATM   25  O   UNL     1      19.799  46.536  49.406  1.00  0.00    -0.389 OA
HETATM   26  H   UNL     1      19.134  45.831  49.533  1.00  0.00     0.210 HD
ENDBRANCH   2  25
BRANCH   7  27
HETATM   27  O   UNL     1      23.785  50.501  48.688  1.00  0.00    -0.343 OA
HETATM   28  H   UNL     1      23.350  50.812  47.880  1.00  0.00     0.219 HD
ENDBRANCH   7  27
TORSDOF 6
ENDMDL
MODEL 8
REMARK VINA RESULT:      -6.4     15.806     17.708
REMARK  6 active torsions:
REMARK  status: ('A' for Active; 'I' for Inactive)
REMARK    1  A    between atoms: C_2  and  O_3 
REMARK    2  A    between atoms: O_3  and  C_4 
REMARK    3  A    between atoms: C_4  and  C_5 
REMARK    4  A    between atoms: C_6  and  O_7 
REMARK    5  A    between atoms: C_12  and  O_13 
REMARK    6  A    between atoms: C_17  and  C_18 
ROOT
HETATM    1  C   UNL     1      39.254  44.338  64.910  1.00  0.00     0.133 C 
HETATM    2  C   UNL     1      38.794  43.716  63.548  1.00  0.00     0.073 C 
HETATM    3  C   UNL     1      39.930  42.933  62.869  1.00  0.00     0.047 C 
HETATM    4  C   UNL     1      37.594  42.736  63.751  1.00  0.00     0.097 C 
HETATM    5  C   UNL     1      36.634  43.281  64.745  1.00  0.00     0.042 A 
HETATM    6  C   UNL     1      36.855  44.291  65.658  1.00  0.00     0.030 A 
HETATM    7  C   UNL     1      35.639  44.368  66.353  1.00  0.00     0.190 A 
HETATM    8  N   UNL     1      34.731  43.492  65.941  1.00  0.00    -0.149 NA
HETATM    9  N   UNL     1      35.352  42.851  64.935  1.00  0.00    -0.279 N 
HETATM   10  H   UNL     1      34.842  42.130  64.437  1.00  0.00     0.189 HD
HETATM   11  C   UNL     1      38.153  45.015  65.775  1.00  0.00     0.075 C 
ENDROOT
BRANCH  11  12
HETATM   12  C   UNL     1      37.861  46.487  65.525  1.00  0.00    -0.045 A 
HETATM   13  C   UNL     1      37.200  46.963  64.381  1.00  0.00     0.050 A 
HETATM   14  C   UNL     1      36.976  48.327  64.212  1.00  0.00     0.117 A 
HETATM   15  F   UNL     1      36.350  48.761  63.111  1.00  0.00    -0.206 F 
HETATM   16  C   UNL     1      37.394  49.248  65.163  1.00  0.00     0.042 A 
HETATM   17  C   UNL     1      38.051  48.799  66.305  1.00  0.00     0.004 A 
HETATM   18  C   UNL     1      38.287  47.432  66.480  1.00  0.00     0.008 A 
ENDBRANCH  11  12
BRANCH   1  19
HETATM   19  C   UNL     1      40.460  45.249  64.839  1.00  0.00     0.267 C 
HETATM   20  O   UNL     1      40.779  45.854  63.821  1.00  0.00    -0.265 OA
BRANCH  19  21
HETATM   21  O   UNL     1      41.157  45.272  66.007  1.00  0.00    -0.316 OA
BRANCH  21  22
HETATM   22  C   UNL     1      42.345  46.086  66.037  1.00  0.00     0.123 C 
HETATM   23  C   UNL     1      43.434  45.379  66.834  1.00  0.00     0.040 C 
HETATM   24  C   UNL     1      41.962  47.403  66.702  1.00  0.00     0.040 C 
ENDBRANCH  21  22
ENDBRANCH  19  21
ENDBRANCH   1  19
BRANCH   2  25
HETATM   25  O   UNL     1      38.364  44.715  62.615  1.00  0.00    -0.389 OA
HETATM   26  H   UNL     1      37.532  45.103  62.952  1.00  0.00     0.210 HD
ENDBRANCH   2  25
BRANCH   7  27
HETATM   27  O   UNL     1      35.273  45.187  67.342  1.00  0.00    -0.343 OA
HETATM   28  H   UNL     1      34.309  45.164  67.437  1.00  0.00     0.219 HD
ENDBRANCH   7  27
TORSDOF 6
ENDMDL
MODEL 9
REMARK VINA RESULT:      -6.4      8.901     11.349
REMARK  6 active torsions:
REMARK  status: ('A' for Active; 'I' for Inactive)
REMARK    1  A    between atoms: C_2  and  O_3 
REMARK    2  A    between atoms: O_3  and  C_4 
REMARK    3  A    between atoms: C_4  and  C_5 
REMARK    4  A    between atoms: C_6  and  O_7 
REMARK    5  A    between atoms: C_12  and  O_13 
REMARK    6  A    between atoms: C_17  and  C_18 
ROOT
HETATM    1  C   UNL     1      20.855  49.954  48.139  1.00  0.00     0.133 C 
HETATM    2  C   UNL     1      20.267  50.684  49.394  1.00  0.00     0.073 C 
HETATM    3  C   UNL     1      21.371  51.071  50.394  1.00  0.00     0.047 C 
HETATM    4  C   UNL     1      19.513  51.989  48.987  1.00  0.00     0.097 C 
HETATM    5  C   UNL     1      18.725  51.775  47.746  1.00  0.00     0.042 A 
HETATM    6  C   UNL     1      18.860  50.750  46.834  1.00  0.00     0.030 A 
HETATM    7  C   UNL     1      17.900  51.058  45.857  1.00  0.00     0.190 A 
HETATM    8  N   UNL     1      17.224  52.172  46.107  1.00  0.00    -0.149 NA
HETATM    9  N   UNL     1      17.726  52.584  47.284  1.00  0.00    -0.279 N 
HETATM   10  H   UNL     1      17.345  53.427  47.702  1.00  0.00     0.189 HD
HETATM   11  C   UNL     1      19.865  49.657  46.977  1.00  0.00     0.075 C 
ENDROOT
BRANCH  11  12
HETATM   12  C   UNL     1      19.090  48.349  47.024  1.00  0.00    -0.045 A 
HETATM   13  C   UNL     1      18.095  48.070  47.975  1.00  0.00     0.050 A 
HETATM   14  C   UNL     1      17.433  46.845  47.966  1.00  0.00     0.117 A 
HETATM   15  F   UNL     1      16.493  46.597  48.886  1.00  0.00    -0.206 F 
HETATM   16  C   UNL     1      17.733  45.873  47.021  1.00  0.00     0.042 A 
HETATM   17  C   UNL     1      18.715  46.127  46.068  1.00  0.00     0.004 A 
HETATM   18  C   UNL     1      19.390  47.352  46.074  1.00  0.00     0.008 A 
ENDBRANCH  11  12
BRANCH   1  19
HETATM   19  C   UNL     1      21.670  48.712  48.426  1.00  0.00     0.267 C 
HETATM   20  O   UNL     1      21.252  47.784  49.109  1.00  0.00    -0.265 OA
BRANCH  19  21
HETATM   21  O   UNL     1      22.915  48.777  47.882  1.00  0.00    -0.316 OA
BRANCH  21  22
HETATM   22  C   UNL     1      23.959  49.319  48.716  1.00  0.00     0.123 C 
HETATM   23  C   UNL     1      24.958  50.083  47.857  1.00  0.00     0.040 C 
HETATM   24  C   UNL     1      24.633  48.138  49.403  1.00  0.00     0.040 C 
ENDBRANCH  21  22
ENDBRANCH  19  21
ENDBRANCH   1  19
BRANCH   2  25
HETATM   25  O   UNL     1      19.331  49.866  50.106  1.00  0.00    -0.389 OA
HETATM   26  H   UNL     1      18.527  49.780  49.557  1.00  0.00     0.210 HD
ENDBRANCH   2  25
BRANCH   7  27
HETATM   27  O   UNL     1      17.574  50.398  44.744  1.00  0.00    -0.343 OA
HETATM   28  H   UNL     1      17.105  49.585  44.980  1.00  0.00     0.219 HD
ENDBRANCH   7  27
TORSDOF 6
ENDMDL
MODEL 10
REMARK VINA RESULT:      -6.2     16.503     18.783
REMARK  6 active torsions:
REMARK  status: ('A' for Active; 'I' for Inactive)
REMARK    1  A    between atoms: C_2  and  O_3 
REMARK    2  A    between atoms: O_3  and  C_4 
REMARK    3  A    between atoms: C_4  and  C_5 
REMARK    4  A    between atoms: C_6  and  O_7 
REMARK    5  A    between atoms: C_12  and  O_13 
REMARK    6  A    between atoms: C_17  and  C_18 
ROOT
HETATM    1  C   UNL     1      40.338  45.846  66.194  1.00  0.00     0.133 C 
HETATM    2  C   UNL     1      41.144  46.750  65.201  1.00  0.00     0.073 C 
HETATM    3  C   UNL     1      40.939  48.245  65.499  1.00  0.00     0.047 C 
HETATM    4  C   UNL     1      42.676  46.453  65.283  1.00  0.00     0.097 C 
HETATM    5  C   UNL     1      42.922  44.994  65.414  1.00  0.00     0.042 A 
HETATM    6  C   UNL     1      42.016  44.021  65.779  1.00  0.00     0.030 A 
HETATM    7  C   UNL     1      42.785  42.847  65.773  1.00  0.00     0.190 A 
HETATM    8  N   UNL     1      44.057  43.043  65.449  1.00  0.00    -0.149 NA
HETATM    9  N   UNL     1      44.116  44.364  65.206  1.00  0.00    -0.279 N 
HETATM   10  H   UNL     1      45.003  44.761  64.916  1.00  0.00     0.189 HD
HETATM   11  C   UNL     1      40.591  44.314  66.105  1.00  0.00     0.075 C 
ENDROOT
BRANCH  11  12
HETATM   12  C   UNL     1      39.741  43.512  65.130  1.00  0.00    -0.045 A 
HETATM   13  C   UNL     1      38.702  42.656  65.529  1.00  0.00     0.050 A 
HETATM   14  C   UNL     1      37.972  41.942  64.581  1.00  0.00     0.117 A 
HETATM   15  F   UNL     1      36.990  41.127  64.983  1.00  0.00    -0.206 F 
HETATM   16  C   UNL     1      38.247  42.060  63.225  1.00  0.00     0.042 A 
HETATM   17  C   UNL     1      39.273  42.902  62.807  1.00  0.00     0.004 A 
HETATM   18  C   UNL     1      40.016  43.617  63.751  1.00  0.00     0.008 A 
ENDBRANCH  11  12
BRANCH   1  19
HETATM   19  C   UNL     1      38.848  46.101  66.250  1.00  0.00     0.267 C 
HETATM   20  O   UNL     1      38.194  46.003  67.281  1.00  0.00    -0.265 OA
BRANCH  19  21
HETATM   21  O   UNL     1      38.331  46.398  65.027  1.00  0.00    -0.316 OA
BRANCH  21  22
HETATM   22  C   UNL     1      36.903  46.575  64.953  1.00  0.00     0.123 C 
HETATM   23  C   UNL     1      36.273  45.385  64.240  1.00  0.00     0.040 C 
HETATM   24  C   UNL     1      36.658  47.861  64.172  1.00  0.00     0.040 C 
ENDBRANCH  21  22
ENDBRANCH  19  21
ENDBRANCH   1  19
BRANCH   2  25
HETATM   25  O   UNL     1      40.751  46.541  63.839  1.00  0.00    -0.389 OA
HETATM   26  H   UNL     1      40.017  47.155  63.640  1.00  0.00     0.210 HD
ENDBRANCH   2  25
BRANCH   7  27
HETATM   27  O   UNL     1      42.421  41.589  66.032  1.00  0.00    -0.343 OA
HETATM   28  H   UNL     1      42.043  41.541  66.922  1.00  0.00     0.219 HD
ENDBRANCH   7  27
TORSDOF 6
ENDMDL
