MODEL 1
REMARK VINA RESULT:      -9.2      0.000      0.000
REMARK  9 active torsions:
REMARK  status: ('A' for Active; 'I' for Inactive)
REMARK    1  A    between atoms: C_5  and  C_6 
REMARK    2  A    between atoms: C_8  and  N_9 
REMARK       I    between atoms: N_9  and  C_10 
REMARK    3  A    between atoms: C_10  and  C_11 
REMARK    4  A    between atoms: C_11  and  N_12 
REMARK    5  A    between atoms: N_12  and  C_14 
REMARK    6  A    between atoms: C_14  and  C_15 
REMARK       I    between atoms: C_15  and  N_16 
REMARK    7  A    between atoms: N_16  and  C_17 
REMARK    8  A    between atoms: C_20  and  O_21 
REMARK    9  A    between atoms: O_21  and  C_22 
ROOT
HETATM    1  N   UNL     1      26.162  41.673  50.115  1.00  0.00    -0.058 N 
HETATM    2  H   UNL     1      26.607  42.473  49.652  1.00  0.00     0.280 HD
HETATM    3  C   UNL     1      26.166  40.586  49.061  1.00  0.00     0.270 C 
ENDROOT
BRANCH   1   4
HETATM    4  C   UNL     1      24.751  42.152  50.475  1.00  0.00     0.337 C 
BRANCH   4   5
HETATM    5  C   UNL     1      24.570  43.655  50.718  1.00  0.00     0.248 C 
HETATM    6  N   UNL     1      25.252  44.457  49.821  1.00  0.00    -0.326 N 
HETATM    7  H   UNL     1      25.966  44.044  49.237  1.00  0.00     0.169 HD
HETATM    8  O   UNL     1      23.878  44.026  51.661  1.00  0.00    -0.271 OA
BRANCH   6   9
HETATM    9  C   UNL     1      25.133  45.859  49.678  1.00  0.00     0.035 A 
HETATM   10  C   UNL     1      23.938  46.517  49.368  1.00  0.00     0.043 A 
HETATM   11  C   UNL     1      23.903  47.912  49.173  1.00  0.00    -0.005 A 
HETATM   12  C   UNL     1      25.092  48.638  49.324  1.00  0.00     0.014 A 
HETATM   13  C   UNL     1      26.287  47.991  49.640  1.00  0.00     0.003 A 
HETATM   14  C   UNL     1      26.308  46.608  49.804  1.00  0.00     0.029 A 
BRANCH  11  15
HETATM   15  C   UNL     1      22.639  48.553  48.801  1.00  0.00     0.074 A 
HETATM   16  C   UNL     1      21.771  48.095  47.827  1.00  0.00     0.084 A 
HETATM   17  S   UNL     1      20.406  49.126  47.706  1.00  0.00    -0.085 SA
HETATM   18  C   UNL     1      21.052  50.105  48.958  1.00  0.00     0.071 A 
HETATM   19  C   UNL     1      20.322  51.318  49.416  1.00  0.00     0.078 C 
HETATM   20  N   UNL     1      22.209  49.709  49.444  1.00  0.00    -0.245 NA
ENDBRANCH  11  15
ENDBRANCH   6   9
ENDBRANCH   4   5
ENDBRANCH   1   4
BRANCH   1  21
HETATM   21  C   UNL     1      27.046  41.359  51.322  1.00  0.00     0.337 C 
BRANCH  21  22
HETATM   22  C   UNL     1      27.711  42.571  51.985  1.00  0.00     0.248 C 
HETATM   23  N   UNL     1      28.009  42.391  53.326  1.00  0.00    -0.326 N 
HETATM   24  H   UNL     1      27.627  41.585  53.811  1.00  0.00     0.169 HD
HETATM   25  O   UNL     1      27.969  43.561  51.313  1.00  0.00    -0.271 OA
BRANCH  23  26
HETATM   26  C   UNL     1      28.665  43.321  54.170  1.00  0.00     0.034 A 
HETATM   27  C   UNL     1      28.140  44.562  54.526  1.00  0.00     0.032 A 
HETATM   28  C   UNL     1      28.848  45.412  55.385  1.00  0.00     0.039 A 
HETATM   29  C   UNL     1      30.088  45.040  55.905  1.00  0.00     0.078 A 
HETATM   30  C   UNL     1      30.629  43.812  55.531  1.00  0.00     0.039 A 
HETATM   31  C   UNL     1      29.922  42.961  54.669  1.00  0.00     0.032 A 
BRANCH  29  32
HETATM   32  O   UNL     1      30.648  45.957  56.744  1.00  0.00    -0.255 OA
BRANCH  32  33
HETATM   33  C   UNL     1      30.581  45.705  58.139  1.00  0.00     0.530 C 
HETATM   34  F   UNL     1      29.320  45.412  58.521  1.00  0.00    -0.144 F 
HETATM   35  F   UNL     1      31.401  44.687  58.479  1.00  0.00    -0.144 F 
HETATM   36  F   UNL     1      30.980  46.811  58.802  1.00  0.00    -0.144 F 
ENDBRANCH  32  33
ENDBRANCH  29  32
ENDBRANCH  23  26
ENDBRANCH  21  22
ENDBRANCH   1  21
TORSDOF 9
ENDMDL
MODEL 2
REMARK VINA RESULT:      -9.1      6.883     11.718
REMARK  9 active torsions:
REMARK  status: ('A' for Active; 'I' for Inactive)
REMARK    1  A    between atoms: C_5  and  C_6 
REMARK    2  A    between atoms: C_8  and  N_9 
REMARK       I    between atoms: N_9  and  C_10 
REMARK    3  A    between atoms: C_10  and  C_11 
REMARK    4  A    between atoms: C_11  and  N_12 
REMARK    5  A    between atoms: N_12  and  C_14 
REMARK    6  A    between atoms: C_14  and  C_15 
REMARK       I    between atoms: C_15  and  N_16 
REMARK    7  A    between atoms: N_16  and  C_17 
REMARK    8  A    between atoms: C_20  and  O_21 
REMARK    9  A    between atoms: O_21  and  C_22 
ROOT
HETATM    1  N   UNL     1      23.241  47.051  49.350  1.00  0.00    -0.058 N 
HETATM    2  H   UNL     1      22.701  47.249  50.200  1.00  0.00     0.280 HD
HETATM    3  C   UNL     1      22.310  46.204  48.509  1.00  0.00     0.270 C 
ENDROOT
BRANCH   1   4
HETATM    4  C   UNL     1      24.476  46.283  49.832  1.00  0.00     0.337 C 
BRANCH   4   5
HETATM    5  C   UNL     1      25.330  46.952  50.916  1.00  0.00     0.248 C 
HETATM    6  N   UNL     1      25.287  46.312  52.141  1.00  0.00    -0.326 N 
HETATM    7  H   UNL     1      24.569  45.621  52.311  1.00  0.00     0.169 HD
HETATM    8  O   UNL     1      25.951  47.973  50.638  1.00  0.00    -0.271 OA
BRANCH   6   9
HETATM    9  C   UNL     1      26.102  46.581  53.266  1.00  0.00     0.035 A 
HETATM   10  C   UNL     1      27.161  45.767  53.679  1.00  0.00     0.043 A 
HETATM   11  C   UNL     1      27.891  46.057  54.849  1.00  0.00    -0.005 A 
HETATM   12  C   UNL     1      27.549  47.202  55.583  1.00  0.00     0.014 A 
HETATM   13  C   UNL     1      26.499  48.024  55.173  1.00  0.00     0.003 A 
HETATM   14  C   UNL     1      25.773  47.707  54.027  1.00  0.00     0.029 A 
BRANCH  11  15
HETATM   15  C   UNL     1      28.960  45.149  55.273  1.00  0.00     0.074 A 
HETATM   16  C   UNL     1      29.342  44.003  54.603  1.00  0.00     0.084 A 
HETATM   17  S   UNL     1      30.634  43.229  55.424  1.00  0.00    -0.085 SA
HETATM   18  C   UNL     1      30.608  44.472  56.606  1.00  0.00     0.071 A 
HETATM   19  C   UNL     1      31.556  44.439  57.752  1.00  0.00     0.078 C 
HETATM   20  N   UNL     1      29.700  45.407  56.422  1.00  0.00    -0.245 NA
ENDBRANCH  11  15
ENDBRANCH   6   9
ENDBRANCH   4   5
ENDBRANCH   1   4
BRANCH   1  21
HETATM   21  C   UNL     1      23.550  48.417  48.737  1.00  0.00     0.337 C 
BRANCH  21  22
HETATM   22  C   UNL     1      22.627  49.560  49.173  1.00  0.00     0.248 C 
HETATM   23  N   UNL     1      21.341  49.477  48.664  1.00  0.00    -0.326 N 
HETATM   24  H   UNL     1      21.146  48.805  47.929  1.00  0.00     0.169 HD
HETATM   25  O   UNL     1      23.047  50.415  49.944  1.00  0.00    -0.271 OA
BRANCH  23  26
HETATM   26  C   UNL     1      20.274  50.366  48.940  1.00  0.00     0.034 A 
HETATM   27  C   UNL     1      20.136  51.628  48.364  1.00  0.00     0.032 A 
HETATM   28  C   UNL     1      19.034  52.434  48.677  1.00  0.00     0.039 A 
HETATM   29  C   UNL     1      18.051  51.997  49.565  1.00  0.00     0.078 A 
HETATM   30  C   UNL     1      18.198  50.748  50.164  1.00  0.00     0.039 A 
HETATM   31  C   UNL     1      19.302  49.940  49.853  1.00  0.00     0.032 A 
BRANCH  29  32
HETATM   32  O   UNL     1      17.027  52.878  49.755  1.00  0.00    -0.255 OA
BRANCH  32  33
HETATM   33  C   UNL     1      15.793  52.607  49.110  1.00  0.00     0.530 C 
HETATM   34  F   UNL     1      15.987  51.963  47.939  1.00  0.00    -0.144 F 
HETATM   35  F   UNL     1      14.994  51.863  49.904  1.00  0.00    -0.144 F 
HETATM   36  F   UNL     1      15.169  53.776  48.854  1.00  0.00    -0.144 F 
ENDBRANCH  32  33
ENDBRANCH  29  32
ENDBRANCH  23  26
ENDBRANCH  21  22
ENDBRANCH   1  21
TORSDOF 9
ENDMDL
MODEL 3
REMARK VINA RESULT:      -9.0      6.447     11.596
REMARK  9 active torsions:
REMARK  status: ('A' for Active; 'I' for Inactive)
REMARK    1  A    between atoms: C_5  and  C_6 
REMARK    2  A    between atoms: C_8  and  N_9 
REMARK       I    between atoms: N_9  and  C_10 
REMARK    3  A    between atoms: C_10  and  C_11 
REMARK    4  A    between atoms: C_11  and  N_12 
REMARK    5  A    between atoms: N_12  and  C_14 
REMARK    6  A    between atoms: C_14  and  C_15 
REMARK       I    between atoms: C_15  and  N_16 
REMARK    7  A    between atoms: N_16  and  C_17 
REMARK    8  A    between atoms: C_20  and  O_21 
REMARK    9  A    between atoms: O_21  and  C_22 
ROOT
HETATM    1  N   UNL     1      23.766  46.498  49.638  1.00  0.00    -0.058 N 
HETATM    2  H   UNL     1      23.430  46.377  50.600  1.00  0.00     0.280 HD
HETATM    3  C   UNL     1      22.659  45.917  48.784  1.00  0.00     0.270 C 
ENDROOT
BRANCH   1   4
HETATM    4  C   UNL     1      25.066  45.689  49.564  1.00  0.00     0.337 C 
BRANCH   4   5
HETATM    5  C   UNL     1      25.379  44.768  50.749  1.00  0.00     0.248 C 
HETATM    6  N   UNL     1      26.611  44.146  50.669  1.00  0.00    -0.326 N 
HETATM    7  H   UNL     1      27.108  44.150  49.789  1.00  0.00     0.169 HD
HETATM    8  O   UNL     1      24.543  44.639  51.638  1.00  0.00    -0.271 OA
BRANCH   6   9
HETATM    9  C   UNL     1      27.248  43.396  51.684  1.00  0.00     0.035 A 
HETATM   10  C   UNL     1      27.960  43.961  52.748  1.00  0.00     0.043 A 
HETATM   11  C   UNL     1      28.629  43.153  53.689  1.00  0.00    -0.005 A 
HETATM   12  C   UNL     1      28.544  41.760  53.554  1.00  0.00     0.014 A 
HETATM   13  C   UNL     1      27.830  41.189  52.502  1.00  0.00     0.003 A 
HETATM   14  C   UNL     1      27.196  42.003  51.566  1.00  0.00     0.029 A 
BRANCH  11  15
HETATM   15  C   UNL     1      29.405  43.788  54.758  1.00  0.00     0.074 A 
HETATM   16  C   UNL     1      29.258  45.097  55.177  1.00  0.00     0.084 A 
HETATM   17  S   UNL     1      30.349  45.444  56.454  1.00  0.00    -0.085 SA
HETATM   18  C   UNL     1      30.935  43.834  56.372  1.00  0.00     0.071 A 
HETATM   19  C   UNL     1      32.019  43.381  57.285  1.00  0.00     0.078 C 
HETATM   20  N   UNL     1      30.371  43.073  55.458  1.00  0.00    -0.245 NA
ENDBRANCH  11  15
ENDBRANCH   6   9
ENDBRANCH   4   5
ENDBRANCH   1   4
BRANCH   1  21
HETATM   21  C   UNL     1      23.953  48.005  49.458  1.00  0.00     0.337 C 
BRANCH  21  22
HETATM   22  C   UNL     1      22.796  48.735  48.767  1.00  0.00     0.248 C 
HETATM   23  N   UNL     1      21.801  49.166  49.629  1.00  0.00    -0.326 N 
HETATM   24  H   UNL     1      21.805  48.834  50.589  1.00  0.00     0.169 HD
HETATM   25  O   UNL     1      22.838  48.925  47.557  1.00  0.00    -0.271 OA
BRANCH  23  26
HETATM   26  C   UNL     1      20.646  49.905  49.272  1.00  0.00     0.034 A 
HETATM   27  C   UNL     1      20.588  51.296  49.230  1.00  0.00     0.032 A 
HETATM   28  C   UNL     1      19.409  51.946  48.844  1.00  0.00     0.039 A 
HETATM   29  C   UNL     1      18.270  51.221  48.491  1.00  0.00     0.078 A 
HETATM   30  C   UNL     1      18.316  49.831  48.556  1.00  0.00     0.039 A 
HETATM   31  C   UNL     1      19.495  49.178  48.945  1.00  0.00     0.032 A 
BRANCH  29  32
HETATM   32  O   UNL     1      17.206  51.987  48.114  1.00  0.00    -0.255 OA
BRANCH  32  33
HETATM   33  C   UNL     1      16.172  52.195  49.062  1.00  0.00     0.530 C 
HETATM   34  F   UNL     1      16.650  52.141  50.324  1.00  0.00    -0.144 F 
HETATM   35  F   UNL     1      15.571  53.387  48.860  1.00  0.00    -0.144 F 
HETATM   36  F   UNL     1      15.246  51.223  48.917  1.00  0.00    -0.144 F 
ENDBRANCH  32  33
ENDBRANCH  29  32
ENDBRANCH  23  26
ENDBRANCH  21  22
ENDBRANCH   1  21
TORSDOF 9
ENDMDL
MODEL 4
REMARK VINA RESULT:      -8.9      2.414      4.138
REMARK  9 active torsions:
REMARK  status: ('A' for Active; 'I' for Inactive)
REMARK    1  A    between atoms: C_5  and  C_6 
REMARK    2  A    between atoms: C_8  and  N_9 
REMARK       I    between atoms: N_9  and  C_10 
REMARK    3  A    between atoms: C_10  and  C_11 
REMARK    4  A    between atoms: C_11  and  N_12 
REMARK    5  A    between atoms: N_12  and  C_14 
REMARK    6  A    between atoms: C_14  and  C_15 
REMARK       I    between atoms: C_15  and  N_16 
REMARK    7  A    between atoms: N_16  and  C_17 
REMARK    8  A    between atoms: C_20  and  O_21 
REMARK    9  A    between atoms: O_21  and  C_22 
ROOT
HETATM    1  N   UNL     1      24.161  45.856  50.244  1.00  0.00    -0.058 N 
HETATM    2  H   UNL     1      23.648  46.302  51.013  1.00  0.00     0.280 HD
HETATM    3  C   UNL     1      25.196  46.886  49.844  1.00  0.00     0.270 C 
ENDROOT
BRANCH   1   4
HETATM    4  C   UNL     1      23.111  45.607  49.155  1.00  0.00     0.337 C 
BRANCH   4   5
HETATM    5  C   UNL     1      22.460  46.843  48.524  1.00  0.00     0.248 C 
HETATM    6  N   UNL     1      21.938  47.736  49.443  1.00  0.00    -0.326 N 
HETATM    7  H   UNL     1      21.817  47.440  50.402  1.00  0.00     0.169 HD
HETATM    8  O   UNL     1      22.432  46.942  47.301  1.00  0.00    -0.271 OA
BRANCH   6   9
HETATM    9  C   UNL     1      21.447  49.035  49.176  1.00  0.00     0.035 A 
HETATM   10  C   UNL     1      20.095  49.389  49.232  1.00  0.00     0.043 A 
HETATM   11  C   UNL     1      19.666  50.687  48.889  1.00  0.00    -0.005 A 
HETATM   12  C   UNL     1      20.631  51.632  48.513  1.00  0.00     0.014 A 
HETATM   13  C   UNL     1      21.982  51.289  48.462  1.00  0.00     0.003 A 
HETATM   14  C   UNL     1      22.385  49.994  48.781  1.00  0.00     0.029 A 
BRANCH  11  15
HETATM   15  C   UNL     1      18.235  51.001  48.913  1.00  0.00     0.074 A 
HETATM   16  C   UNL     1      17.266  50.353  48.170  1.00  0.00     0.084 A 
HETATM   17  S   UNL     1      15.718  51.017  48.494  1.00  0.00    -0.085 SA
HETATM   18  C   UNL     1      16.435  52.111  49.603  1.00  0.00     0.071 A 
HETATM   19  C   UNL     1      15.596  53.101  50.331  1.00  0.00     0.078 C 
HETATM   20  N   UNL     1      17.740  52.008  49.735  1.00  0.00    -0.245 NA
ENDBRANCH  11  15
ENDBRANCH   6   9
ENDBRANCH   4   5
ENDBRANCH   1   4
BRANCH   1  21
HETATM   21  C   UNL     1      24.762  44.583  50.840  1.00  0.00     0.337 C 
BRANCH  21  22
HETATM   22  C   UNL     1      26.113  44.757  51.543  1.00  0.00     0.248 C 
HETATM   23  N   UNL     1      26.016  45.126  52.875  1.00  0.00    -0.326 N 
HETATM   24  H   UNL     1      25.115  45.420  53.239  1.00  0.00     0.169 HD
HETATM   25  O   UNL     1      27.148  44.528  50.929  1.00  0.00    -0.271 OA
BRANCH  23  26
HETATM   26  C   UNL     1      27.096  45.309  53.773  1.00  0.00     0.034 A 
HETATM   27  C   UNL     1      27.957  44.293  54.180  1.00  0.00     0.032 A 
HETATM   28  C   UNL     1      29.015  44.567  55.057  1.00  0.00     0.039 A 
HETATM   29  C   UNL     1      29.233  45.858  55.539  1.00  0.00     0.078 A 
HETATM   30  C   UNL     1      28.359  46.872  55.156  1.00  0.00     0.039 A 
HETATM   31  C   UNL     1      27.298  46.599  54.280  1.00  0.00     0.032 A 
BRANCH  29  32
HETATM   32  O   UNL     1      30.313  45.979  56.363  1.00  0.00    -0.255 OA
BRANCH  32  33
HETATM   33  C   UNL     1      30.106  45.801  57.756  1.00  0.00     0.530 C 
HETATM   34  F   UNL     1      30.804  46.709  58.471  1.00  0.00    -0.144 F 
HETATM   35  F   UNL     1      28.794  45.902  58.059  1.00  0.00    -0.144 F 
HETATM   36  F   UNL     1      30.529  44.568  58.106  1.00  0.00    -0.144 F 
ENDBRANCH  32  33
ENDBRANCH  29  32
ENDBRANCH  23  26
ENDBRANCH  21  22
ENDBRANCH   1  21
TORSDOF 9
ENDMDL
MODEL 5
REMARK VINA RESULT:      -8.8      1.891      2.618
REMARK  9 active torsions:
REMARK  status: ('A' for Active; 'I' for Inactive)
REMARK    1  A    between atoms: C_5  and  C_6 
REMARK    2  A    between atoms: C_8  and  N_9 
REMARK       I    between atoms: N_9  and  C_10 
REMARK    3  A    between atoms: C_10  and  C_11 
REMARK    4  A    between atoms: C_11  and  N_12 
REMARK    5  A    between atoms: N_12  and  C_14 
REMARK    6  A    between atoms: C_14  and  C_15 
REMARK       I    between atoms: C_15  and  N_16 
REMARK    7  A    between atoms: N_16  and  C_17 
REMARK    8  A    between atoms: C_20  and  O_21 
REMARK    9  A    between atoms: O_21  and  C_22 
ROOT
HETATM    1  N   UNL     1      26.742  40.617  49.938  1.00  0.00    -0.058 N 
HETATM    2  H   UNL     1      27.343  41.339  49.524  1.00  0.00     0.280 HD
HETATM    3  C   UNL     1      26.984  39.396  49.078  1.00  0.00     0.270 C 
ENDROOT
BRANCH   1   4
HETATM    4  C   UNL     1      25.316  41.165  49.814  1.00  0.00     0.337 C 
BRANCH   4   5
HETATM    5  C   UNL     1      25.150  42.688  49.864  1.00  0.00     0.248 C 
HETATM    6  N   UNL     1      25.168  43.214  51.142  1.00  0.00    -0.326 N 
HETATM    7  H   UNL     1      25.066  42.592  51.932  1.00  0.00     0.169 HD
HETATM    8  O   UNL     1      25.002  43.305  48.813  1.00  0.00    -0.271 OA
BRANCH   6   9
HETATM    9  C   UNL     1      25.223  44.583  51.494  1.00  0.00     0.035 A 
HETATM   10  C   UNL     1      25.277  45.629  50.567  1.00  0.00     0.043 A 
HETATM   11  C   UNL     1      25.399  46.969  50.985  1.00  0.00    -0.005 A 
HETATM   12  C   UNL     1      25.437  47.239  52.360  1.00  0.00     0.014 A 
HETATM   13  C   UNL     1      25.375  46.203  53.291  1.00  0.00     0.003 A 
HETATM   14  C   UNL     1      25.280  44.882  52.859  1.00  0.00     0.029 A 
BRANCH  11  15
HETATM   15  C   UNL     1      25.503  48.029  49.978  1.00  0.00     0.074 A 
HETATM   16  C   UNL     1      26.685  48.489  49.428  1.00  0.00     0.084 A 
HETATM   17  S   UNL     1      26.371  49.729  48.284  1.00  0.00    -0.085 SA
HETATM   18  C   UNL     1      24.691  49.565  48.589  1.00  0.00     0.071 A 
HETATM   19  C   UNL     1      23.711  50.428  47.876  1.00  0.00     0.078 C 
HETATM   20  N   UNL     1      24.365  48.656  49.483  1.00  0.00    -0.245 NA
ENDBRANCH  11  15
ENDBRANCH   6   9
ENDBRANCH   4   5
ENDBRANCH   1   4
BRANCH   1  21
HETATM   21  C   UNL     1      27.230  40.459  51.378  1.00  0.00     0.337 C 
BRANCH  21  22
HETATM   22  C   UNL     1      28.012  41.650  51.944  1.00  0.00     0.248 C 
HETATM   23  N   UNL     1      27.935  41.777  53.322  1.00  0.00    -0.326 N 
HETATM   24  H   UNL     1      27.259  41.215  53.829  1.00  0.00     0.169 HD
HETATM   25  O   UNL     1      28.663  42.360  51.187  1.00  0.00    -0.271 OA
BRANCH  23  26
HETATM   26  C   UNL     1      28.594  42.751  54.111  1.00  0.00     0.034 A 
HETATM   27  C   UNL     1      29.921  42.657  54.526  1.00  0.00     0.032 A 
HETATM   28  C   UNL     1      30.500  43.680  55.287  1.00  0.00     0.039 A 
HETATM   29  C   UNL     1      29.770  44.813  55.645  1.00  0.00     0.078 A 
HETATM   30  C   UNL     1      28.435  44.900  55.255  1.00  0.00     0.039 A 
HETATM   31  C   UNL     1      27.853  43.875  54.495  1.00  0.00     0.032 A 
BRANCH  29  32
HETATM   32  O   UNL     1      30.471  45.735  56.365  1.00  0.00    -0.255 OA
BRANCH  32  33
HETATM   33  C   UNL     1      30.312  45.733  57.775  1.00  0.00     0.530 C 
HETATM   34  F   UNL     1      30.723  44.564  58.310  1.00  0.00    -0.144 F 
HETATM   35  F   UNL     1      31.003  46.750  58.335  1.00  0.00    -0.144 F 
HETATM   36  F   UNL     1      29.005  45.898  58.067  1.00  0.00    -0.144 F 
ENDBRANCH  32  33
ENDBRANCH  29  32
ENDBRANCH  23  26
ENDBRANCH  21  22
ENDBRANCH   1  21
TORSDOF 9
ENDMDL
MODEL 6
REMARK VINA RESULT:      -8.8      6.025     10.634
REMARK  9 active torsions:
REMARK  status: ('A' for Active; 'I' for Inactive)
REMARK    1  A    between atoms: C_5  and  C_6 
REMARK    2  A    between atoms: C_8  and  N_9 
REMARK       I    between atoms: N_9  and  C_10 
REMARK    3  A    between atoms: C_10  and  C_11 
REMARK    4  A    between atoms: C_11  and  N_12 
REMARK    5  A    between atoms: N_12  and  C_14 
REMARK    6  A    between atoms: C_14  and  C_15 
REMARK       I    between atoms: C_15  and  N_16 
REMARK    7  A    between atoms: N_16  and  C_17 
REMARK    8  A    between atoms: C_20  and  O_21 
REMARK    9  A    between atoms: O_21  and  C_22 
ROOT
HETATM    1  N   UNL     1      24.251  44.788  49.728  1.00  0.00    -0.058 N 
HETATM    2  H   UNL     1      23.364  44.984  50.206  1.00  0.00     0.280 HD
HETATM    3  C   UNL     1      23.834  44.119  48.436  1.00  0.00     0.270 C 
ENDROOT
BRANCH   1   4
HETATM    4  C   UNL     1      25.013  43.849  50.669  1.00  0.00     0.337 C 
BRANCH   4   5
HETATM    5  C   UNL     1      25.275  44.356  52.092  1.00  0.00     0.248 C 
HETATM    6  N   UNL     1      26.440  45.090  52.223  1.00  0.00    -0.326 N 
HETATM    7  H   UNL     1      27.125  45.063  51.480  1.00  0.00     0.169 HD
HETATM    8  O   UNL     1      24.478  44.071  52.980  1.00  0.00    -0.271 OA
BRANCH   6   9
HETATM    9  C   UNL     1      26.849  45.833  53.354  1.00  0.00     0.035 A 
HETATM   10  C   UNL     1      27.852  45.425  54.240  1.00  0.00     0.043 A 
HETATM   11  C   UNL     1      28.165  46.182  55.387  1.00  0.00    -0.005 A 
HETATM   12  C   UNL     1      27.465  47.376  55.611  1.00  0.00     0.014 A 
HETATM   13  C   UNL     1      26.470  47.795  54.728  1.00  0.00     0.003 A 
HETATM   14  C   UNL     1      26.157  47.021  53.613  1.00  0.00     0.029 A 
BRANCH  11  15
HETATM   15  C   UNL     1      29.188  45.690  56.314  1.00  0.00     0.074 A 
HETATM   16  C   UNL     1      29.376  46.148  57.605  1.00  0.00     0.084 A 
HETATM   17  S   UNL     1      30.670  45.309  58.356  1.00  0.00    -0.085 SA
HETATM   18  C   UNL     1      30.886  44.389  56.925  1.00  0.00     0.071 A 
HETATM   19  C   UNL     1      31.957  43.360  56.847  1.00  0.00     0.078 C 
HETATM   20  N   UNL     1      30.062  44.676  55.939  1.00  0.00    -0.245 NA
ENDBRANCH  11  15
ENDBRANCH   6   9
ENDBRANCH   4   5
ENDBRANCH   1   4
BRANCH   1  21
HETATM   21  C   UNL     1      24.914  46.151  49.527  1.00  0.00     0.337 C 
BRANCH  21  22
HETATM   22  C   UNL     1      23.970  47.358  49.578  1.00  0.00     0.248 C 
HETATM   23  N   UNL     1      22.887  47.267  48.718  1.00  0.00    -0.326 N 
HETATM   24  H   UNL     1      22.878  46.536  48.014  1.00  0.00     0.169 HD
HETATM   25  O   UNL     1      24.193  48.267  50.368  1.00  0.00    -0.271 OA
BRANCH  23  26
HETATM   26  C   UNL     1      21.838  48.210  48.592  1.00  0.00     0.034 A 
HETATM   27  C   UNL     1      21.987  49.480  48.037  1.00  0.00     0.032 A 
HETATM   28  C   UNL     1      20.888  50.342  47.931  1.00  0.00     0.039 A 
HETATM   29  C   UNL     1      19.623  49.953  48.374  1.00  0.00     0.078 A 
HETATM   30  C   UNL     1      19.474  48.696  48.954  1.00  0.00     0.039 A 
HETATM   31  C   UNL     1      20.574  47.832  49.062  1.00  0.00     0.032 A 
BRANCH  29  32
HETATM   32  O   UNL     1      18.646  50.886  48.185  1.00  0.00    -0.255 OA
BRANCH  32  33
HETATM   33  C   UNL     1      18.779  52.129  48.857  1.00  0.00     0.530 C 
HETATM   34  F   UNL     1      19.700  52.912  48.254  1.00  0.00    -0.144 F 
HETATM   35  F   UNL     1      17.596  52.778  48.897  1.00  0.00    -0.144 F 
HETATM   36  F   UNL     1      19.182  51.899  50.124  1.00  0.00    -0.144 F 
ENDBRANCH  32  33
ENDBRANCH  29  32
ENDBRANCH  23  26
ENDBRANCH  21  22
ENDBRANCH   1  21
TORSDOF 9
ENDMDL
MODEL 7
REMARK VINA RESULT:      -8.7      2.043      3.014
REMARK  9 active torsions:
REMARK  status: ('A' for Active; 'I' for Inactive)
REMARK    1  A    between atoms: C_5  and  C_6 
REMARK    2  A    between atoms: C_8  and  N_9 
REMARK       I    between atoms: N_9  and  C_10 
REMARK    3  A    between atoms: C_10  and  C_11 
REMARK    4  A    between atoms: C_11  and  N_12 
REMARK    5  A    between atoms: N_12  and  C_14 
REMARK    6  A    between atoms: C_14  and  C_15 
REMARK       I    between atoms: C_15  and  N_16 
REMARK    7  A    between atoms: N_16  and  C_17 
REMARK    8  A    between atoms: C_20  and  O_21 
REMARK    9  A    between atoms: O_21  and  C_22 
ROOT
HETATM    1  N   UNL     1      24.548  44.366  49.702  1.00  0.00    -0.058 N 
HETATM    2  H   UNL     1      25.048  45.199  49.371  1.00  0.00     0.280 HD
HETATM    3  C   UNL     1      25.380  43.208  49.194  1.00  0.00     0.270 C 
ENDROOT
BRANCH   1   4
HETATM    4  C   UNL     1      23.166  44.443  49.044  1.00  0.00     0.337 C 
BRANCH   4   5
HETATM    5  C   UNL     1      22.759  45.791  48.440  1.00  0.00     0.248 C 
HETATM    6  N   UNL     1      22.815  46.848  49.331  1.00  0.00    -0.326 N 
HETATM    7  H   UNL     1      22.893  46.654  50.319  1.00  0.00     0.169 HD
HETATM    8  O   UNL     1      22.410  45.835  47.264  1.00  0.00    -0.271 OA
BRANCH   6   9
HETATM    9  C   UNL     1      22.679  48.222  49.024  1.00  0.00     0.035 A 
HETATM   10  C   UNL     1      21.450  48.872  48.864  1.00  0.00     0.043 A 
HETATM   11  C   UNL     1      21.386  50.229  48.493  1.00  0.00    -0.005 A 
HETATM   12  C   UNL     1      22.587  50.930  48.311  1.00  0.00     0.014 A 
HETATM   13  C   UNL     1      23.816  50.292  48.477  1.00  0.00     0.003 A 
HETATM   14  C   UNL     1      23.860  48.942  48.820  1.00  0.00     0.029 A 
BRANCH  11  15
HETATM   15  C   UNL     1      20.078  50.857  48.287  1.00  0.00     0.074 A 
HETATM   16  C   UNL     1      19.357  50.824  47.107  1.00  0.00     0.084 A 
HETATM   17  S   UNL     1      17.877  51.672  47.286  1.00  0.00    -0.085 SA
HETATM   18  C   UNL     1      18.286  52.015  48.915  1.00  0.00     0.071 A 
HETATM   19  C   UNL     1      17.364  52.812  49.770  1.00  0.00     0.078 C 
HETATM   20  N   UNL     1      19.447  51.543  49.318  1.00  0.00    -0.245 NA
ENDBRANCH  11  15
ENDBRANCH   6   9
ENDBRANCH   4   5
ENDBRANCH   1   4
BRANCH   1  21
HETATM   21  C   UNL     1      24.526  44.483  51.226  1.00  0.00     0.337 C 
BRANCH  21  22
HETATM   22  C   UNL     1      25.775  45.108  51.858  1.00  0.00     0.248 C 
HETATM   23  N   UNL     1      26.003  44.720  53.168  1.00  0.00    -0.326 N 
HETATM   24  H   UNL     1      25.275  44.217  53.665  1.00  0.00     0.169 HD
HETATM   25  O   UNL     1      26.488  45.844  51.187  1.00  0.00    -0.271 OA
BRANCH  23  26
HETATM   26  C   UNL     1      27.103  45.102  53.975  1.00  0.00     0.034 A 
HETATM   27  C   UNL     1      27.272  46.375  54.516  1.00  0.00     0.032 A 
HETATM   28  C   UNL     1      28.381  46.661  55.323  1.00  0.00     0.039 A 
HETATM   29  C   UNL     1      29.336  45.685  55.607  1.00  0.00     0.078 A 
HETATM   30  C   UNL     1      29.185  44.418  55.047  1.00  0.00     0.039 A 
HETATM   31  C   UNL     1      28.076  44.131  54.237  1.00  0.00     0.032 A 
BRANCH  29  32
HETATM   32  O   UNL     1      30.345  46.101  56.424  1.00  0.00    -0.255 OA
BRANCH  32  33
HETATM   33  C   UNL     1      30.249  45.790  57.805  1.00  0.00     0.530 C 
HETATM   34  F   UNL     1      30.714  44.548  58.058  1.00  0.00    -0.144 F 
HETATM   35  F   UNL     1      30.937  46.686  58.545  1.00  0.00    -0.144 F 
HETATM   36  F   UNL     1      28.952  45.842  58.174  1.00  0.00    -0.144 F 
ENDBRANCH  32  33
ENDBRANCH  29  32
ENDBRANCH  23  26
ENDBRANCH  21  22
ENDBRANCH   1  21
TORSDOF 9
ENDMDL
MODEL 8
REMARK VINA RESULT:      -8.1     13.350     16.005
REMARK  9 active torsions:
REMARK  status: ('A' for Active; 'I' for Inactive)
REMARK    1  A    between atoms: C_5  and  C_6 
REMARK    2  A    between atoms: C_8  and  N_9 
REMARK       I    between atoms: N_9  and  C_10 
REMARK    3  A    between atoms: C_10  and  C_11 
REMARK    4  A    between atoms: C_11  and  N_12 
REMARK    5  A    between atoms: N_12  and  C_14 
REMARK    6  A    between atoms: C_14  and  C_15 
REMARK       I    between atoms: C_15  and  N_16 
REMARK    7  A    between atoms: N_16  and  C_17 
REMARK    8  A    between atoms: C_20  and  O_21 
REMARK    9  A    between atoms: O_21  and  C_22 
ROOT
HETATM    1  N   UNL     1      37.581  53.140  40.193  1.00  0.00    -0.058 N 
HETATM    2  H   UNL     1      38.521  53.315  39.821  1.00  0.00     0.280 HD
HETATM    3  C   UNL     1      37.311  54.330  41.090  1.00  0.00     0.270 C 
ENDROOT
BRANCH   1   4
HETATM    4  C   UNL     1      37.696  51.822  40.966  1.00  0.00     0.337 C 
BRANCH   4   5
HETATM    5  C   UNL     1      36.393  51.064  41.245  1.00  0.00     0.248 C 
HETATM    6  N   UNL     1      35.673  51.558  42.318  1.00  0.00    -0.326 N 
HETATM    7  H   UNL     1      36.122  52.199  42.958  1.00  0.00     0.169 HD
HETATM    8  O   UNL     1      36.100  50.104  40.539  1.00  0.00    -0.271 OA
BRANCH   6   9
HETATM    9  C   UNL     1      34.361  51.191  42.698  1.00  0.00     0.035 A 
HETATM   10  C   UNL     1      33.570  50.273  41.999  1.00  0.00     0.043 A 
HETATM   11  C   UNL     1      32.244  50.003  42.394  1.00  0.00    -0.005 A 
HETATM   12  C   UNL     1      31.738  50.657  43.526  1.00  0.00     0.014 A 
HETATM   13  C   UNL     1      32.523  51.567  44.234  1.00  0.00     0.003 A 
HETATM   14  C   UNL     1      33.823  51.841  43.813  1.00  0.00     0.029 A 
BRANCH  11  15
HETATM   15  C   UNL     1      31.435  49.072  41.603  1.00  0.00     0.074 A 
HETATM   16  C   UNL     1      31.903  48.304  40.554  1.00  0.00     0.084 A 
HETATM   17  S   UNL     1      30.640  47.345  39.901  1.00  0.00    -0.085 SA
HETATM   18  C   UNL     1      29.560  48.005  41.059  1.00  0.00     0.071 A 
HETATM   19  C   UNL     1      28.132  47.588  41.078  1.00  0.00     0.078 C 
HETATM   20  N   UNL     1      30.086  48.886  41.884  1.00  0.00    -0.245 NA
ENDBRANCH  11  15
ENDBRANCH   6   9
ENDBRANCH   4   5
ENDBRANCH   1   4
BRANCH   1  21
HETATM   21  C   UNL     1      36.665  53.074  38.971  1.00  0.00     0.337 C 
BRANCH  21  22
HETATM   22  C   UNL     1      35.216  53.517  39.206  1.00  0.00     0.248 C 
HETATM   23  N   UNL     1      34.307  52.474  39.270  1.00  0.00    -0.326 N 
HETATM   24  H   UNL     1      34.606  51.544  38.992  1.00  0.00     0.169 HD
HETATM   25  O   UNL     1      34.966  54.706  39.361  1.00  0.00    -0.271 OA
BRANCH  23  26
HETATM   26  C   UNL     1      32.918  52.589  39.524  1.00  0.00     0.034 A 
HETATM   27  C   UNL     1      32.363  53.455  40.464  1.00  0.00     0.032 A 
HETATM   28  C   UNL     1      30.974  53.520  40.635  1.00  0.00     0.039 A 
HETATM   29  C   UNL     1      30.116  52.728  39.872  1.00  0.00     0.078 A 
HETATM   30  C   UNL     1      30.668  51.842  38.949  1.00  0.00     0.039 A 
HETATM   31  C   UNL     1      32.059  51.773  38.778  1.00  0.00     0.032 A 
BRANCH  29  32
HETATM   32  O   UNL     1      28.791  52.916  40.131  1.00  0.00    -0.255 OA
BRANCH  32  33
HETATM   33  C   UNL     1      28.179  52.074  41.095  1.00  0.00     0.530 C 
HETATM   34  F   UNL     1      29.007  51.845  42.137  1.00  0.00    -0.144 F 
HETATM   35  F   UNL     1      27.030  52.622  41.547  1.00  0.00    -0.144 F 
HETATM   36  F   UNL     1      27.886  50.890  40.516  1.00  0.00    -0.144 F 
ENDBRANCH  32  33
ENDBRANCH  29  32
ENDBRANCH  23  26
ENDBRANCH  21  22
ENDBRANCH   1  21
TORSDOF 9
ENDMDL
MODEL 9
REMARK VINA RESULT:      -8.0      2.529      3.990
REMARK  9 active torsions:
REMARK  status: ('A' for Active; 'I' for Inactive)
REMARK    1  A    between atoms: C_5  and  C_6 
REMARK    2  A    between atoms: C_8  and  N_9 
REMARK       I    between atoms: N_9  and  C_10 
REMARK    3  A    between atoms: C_10  and  C_11 
REMARK    4  A    between atoms: C_11  and  N_12 
REMARK    5  A    between atoms: N_12  and  C_14 
REMARK    6  A    between atoms: C_14  and  C_15 
REMARK       I    between atoms: C_15  and  N_16 
REMARK    7  A    between atoms: N_16  and  C_17 
REMARK    8  A    between atoms: C_20  and  O_21 
REMARK    9  A    between atoms: O_21  and  C_22 
ROOT
HETATM    1  N   UNL     1      23.492  44.126  48.485  1.00  0.00    -0.058 N 
HETATM    2  H   UNL     1      24.302  44.749  48.394  1.00  0.00     0.280 HD
HETATM    3  C   UNL     1      23.975  42.805  47.928  1.00  0.00     0.270 C 
ENDROOT
BRANCH   1   4
HETATM    4  C   UNL     1      22.394  44.771  47.632  1.00  0.00     0.337 C 
BRANCH   4   5
HETATM    5  C   UNL     1      21.773  46.068  48.163  1.00  0.00     0.248 C 
HETATM    6  N   UNL     1      22.601  47.171  48.062  1.00  0.00    -0.326 N 
HETATM    7  H   UNL     1      23.584  47.032  47.870  1.00  0.00     0.169 HD
HETATM    8  O   UNL     1      20.641  46.035  48.636  1.00  0.00    -0.271 OA
BRANCH   6   9
HETATM    9  C   UNL     1      22.246  48.520  48.293  1.00  0.00     0.035 A 
HETATM   10  C   UNL     1      20.941  48.955  48.545  1.00  0.00     0.043 A 
HETATM   11  C   UNL     1      20.645  50.324  48.701  1.00  0.00    -0.005 A 
HETATM   12  C   UNL     1      21.697  51.248  48.625  1.00  0.00     0.014 A 
HETATM   13  C   UNL     1      23.003  50.821  48.382  1.00  0.00     0.003 A 
HETATM   14  C   UNL     1      23.272  49.466  48.205  1.00  0.00     0.029 A 
BRANCH  11  15
HETATM   15  C   UNL     1      19.256  50.740  48.914  1.00  0.00     0.074 A 
HETATM   16  C   UNL     1      18.857  51.817  49.682  1.00  0.00     0.084 A 
HETATM   17  S   UNL     1      17.149  51.965  49.667  1.00  0.00    -0.085 SA
HETATM   18  C   UNL     1      17.054  50.599  48.634  1.00  0.00     0.071 A 
HETATM   19  C   UNL     1      15.731  50.096  48.172  1.00  0.00     0.078 C 
HETATM   20  N   UNL     1      18.207  50.051  48.314  1.00  0.00    -0.245 NA
ENDBRANCH  11  15
ENDBRANCH   6   9
ENDBRANCH   4   5
ENDBRANCH   1   4
BRANCH   1  21
HETATM   21  C   UNL     1      23.179  44.083  49.982  1.00  0.00     0.337 C 
BRANCH  21  22
HETATM   22  C   UNL     1      24.277  44.632  50.901  1.00  0.00     0.248 C 
HETATM   23  N   UNL     1      24.942  43.661  51.632  1.00  0.00    -0.326 N 
HETATM   24  H   UNL     1      24.566  42.718  51.653  1.00  0.00     0.169 HD
HETATM   25  O   UNL     1      24.520  45.832  50.902  1.00  0.00    -0.271 OA
BRANCH  23  26
HETATM   26  C   UNL     1      26.025  43.877  52.519  1.00  0.00     0.034 A 
HETATM   27  C   UNL     1      27.366  43.834  52.143  1.00  0.00     0.032 A 
HETATM   28  C   UNL     1      28.375  44.082  53.082  1.00  0.00     0.039 A 
HETATM   29  C   UNL     1      28.065  44.379  54.410  1.00  0.00     0.078 A 
HETATM   30  C   UNL     1      26.727  44.397  54.796  1.00  0.00     0.039 A 
HETATM   31  C   UNL     1      25.716  44.147  53.858  1.00  0.00     0.032 A 
BRANCH  29  32
HETATM   32  O   UNL     1      29.148  44.621  55.203  1.00  0.00    -0.255 OA
BRANCH  32  33
HETATM   33  C   UNL     1      29.281  45.918  55.764  1.00  0.00     0.530 C 
HETATM   34  F   UNL     1      28.548  46.037  56.892  1.00  0.00    -0.144 F 
HETATM   35  F   UNL     1      30.575  46.188  56.039  1.00  0.00    -0.144 F 
HETATM   36  F   UNL     1      28.838  46.827  54.870  1.00  0.00    -0.144 F 
ENDBRANCH  32  33
ENDBRANCH  29  32
ENDBRANCH  23  26
ENDBRANCH  21  22
ENDBRANCH   1  21
TORSDOF 9
ENDMDL
MODEL 10
REMARK VINA RESULT:      -7.9      1.803      2.426
REMARK  9 active torsions:
REMARK  status: ('A' for Active; 'I' for Inactive)
REMARK    1  A    between atoms: C_5  and  C_6 
REMARK    2  A    between atoms: C_8  and  N_9 
REMARK       I    between atoms: N_9  and  C_10 
REMARK    3  A    between atoms: C_10  and  C_11 
REMARK    4  A    between atoms: C_11  and  N_12 
REMARK    5  A    between atoms: N_12  and  C_14 
REMARK    6  A    between atoms: C_14  and  C_15 
REMARK       I    between atoms: C_15  and  N_16 
REMARK    7  A    between atoms: N_16  and  C_17 
REMARK    8  A    between atoms: C_20  and  O_21 
REMARK    9  A    between atoms: O_21  and  C_22 
ROOT
HETATM    1  N   UNL     1      26.717  41.653  49.501  1.00  0.00    -0.058 N 
HETATM    2  H   UNL     1      26.746  42.671  49.380  1.00  0.00     0.280 HD
HETATM    3  C   UNL     1      27.598  41.122  48.390  1.00  0.00     0.270 C 
ENDROOT
BRANCH   1   4
HETATM    4  C   UNL     1      25.242  41.273  49.328  1.00  0.00     0.337 C 
BRANCH   4   5
HETATM    5  C   UNL     1      24.251  42.420  49.100  1.00  0.00     0.248 C 
HETATM    6  N   UNL     1      24.309  42.970  47.833  1.00  0.00    -0.326 N 
HETATM    7  H   UNL     1      25.099  42.758  47.240  1.00  0.00     0.169 HD
HETATM    8  O   UNL     1      23.521  42.768  50.024  1.00  0.00    -0.271 OA
BRANCH   6   9
HETATM    9  C   UNL     1      23.406  43.905  47.274  1.00  0.00     0.035 A 
HETATM   10  C   UNL     1      23.140  45.163  47.823  1.00  0.00     0.043 A 
HETATM   11  C   UNL     1      22.178  46.020  47.252  1.00  0.00    -0.005 A 
HETATM   12  C   UNL     1      21.506  45.595  46.097  1.00  0.00     0.014 A 
HETATM   13  C   UNL     1      21.772  44.345  45.538  1.00  0.00     0.003 A 
HETATM   14  C   UNL     1      22.708  43.501  46.131  1.00  0.00     0.029 A 
BRANCH  11  15
HETATM   15  C   UNL     1      21.895  47.309  47.890  1.00  0.00     0.074 A 
HETATM   16  C   UNL     1      20.742  47.614  48.589  1.00  0.00     0.084 A 
HETATM   17  S   UNL     1      20.808  49.222  49.182  1.00  0.00    -0.085 SA
HETATM   18  C   UNL     1      22.363  49.402  48.481  1.00  0.00     0.071 A 
HETATM   19  C   UNL     1      23.098  50.690  48.604  1.00  0.00     0.078 C 
HETATM   20  N   UNL     1      22.819  48.347  47.839  1.00  0.00    -0.245 NA
ENDBRANCH  11  15
ENDBRANCH   6   9
ENDBRANCH   4   5
ENDBRANCH   1   4
BRANCH   1  21
HETATM   21  C   UNL     1      27.272  41.393  50.901  1.00  0.00     0.337 C 
BRANCH  21  22
HETATM   22  C   UNL     1      27.731  42.637  51.670  1.00  0.00     0.248 C 
HETATM   23  N   UNL     1      28.192  42.375  52.950  1.00  0.00    -0.326 N 
HETATM   24  H   UNL     1      28.039  41.454  53.348  1.00  0.00     0.169 HD
HETATM   25  O   UNL     1      27.706  43.731  51.120  1.00  0.00    -0.271 OA
BRANCH  23  26
HETATM   26  C   UNL     1      28.719  43.324  53.860  1.00  0.00     0.034 A 
HETATM   27  C   UNL     1      28.130  44.556  54.137  1.00  0.00     0.032 A 
HETATM   28  C   UNL     1      28.708  45.426  55.070  1.00  0.00     0.039 A 
HETATM   29  C   UNL     1      29.880  45.083  55.744  1.00  0.00     0.078 A 
HETATM   30  C   UNL     1      30.487  43.864  55.452  1.00  0.00     0.039 A 
HETATM   31  C   UNL     1      29.911  42.992  54.516  1.00  0.00     0.032 A 
BRANCH  29  32
HETATM   32  O   UNL     1      30.312  46.017  56.639  1.00  0.00    -0.255 OA
BRANCH  32  33
HETATM   33  C   UNL     1      30.073  45.774  58.016  1.00  0.00     0.530 C 
HETATM   34  F   UNL     1      28.750  45.730  58.280  1.00  0.00    -0.144 F 
HETATM   35  F   UNL     1      30.647  44.614  58.403  1.00  0.00    -0.144 F 
HETATM   36  F   UNL     1      30.617  46.777  58.737  1.00  0.00    -0.144 F 
ENDBRANCH  32  33
ENDBRANCH  29  32
ENDBRANCH  23  26
ENDBRANCH  21  22
ENDBRANCH   1  21
TORSDOF 9
ENDMDL
