MODEL 1
REMARK VINA RESULT:     -10.5      0.000      0.000
REMARK  6 active torsions:
REMARK  status: ('A' for Active; 'I' for Inactive)
REMARK    1  A    between atoms: C_5  and  C_6 
REMARK    2  A    between atoms: C_11  and  C_12 
REMARK       I    between atoms: C_12  and  N_13 
REMARK    3  A    between atoms: N_13  and  C_14 
REMARK    4  A    between atoms: C_16  and  C_17 
REMARK    5  A    between atoms: C_17  and  O_18 
REMARK    6  A    between atoms: C_25  and  C_26 
ROOT
HETATM    1  C   UNL     1      27.298  43.745  53.141  1.00  0.00     0.118 C 
HETATM    2  N   UNL     1      26.487  44.959  53.210  1.00  0.00    -0.366 N 
HETATM    3  C   UNL     1      26.008  45.578  52.113  1.00  0.00     0.123 A 
HETATM    4  N   UNL     1      26.133  45.020  50.874  1.00  0.00    -0.240 N 
HETATM    5  N   UNL     1      25.753  45.826  49.866  1.00  0.00    -0.165 NA
HETATM    6  C   UNL     1      25.228  46.897  50.510  1.00  0.00     0.148 A 
HETATM    7  C   UNL     1      25.361  46.768  51.921  1.00  0.00     0.089 A 
HETATM    8  C   UNL     1      26.730  43.719  50.648  1.00  0.00     0.221 C 
HETATM    9  C   UNL     1      27.813  43.478  51.709  1.00  0.00     0.066 C 
HETATM   10  H   UNL     1      26.382  45.366  54.139  1.00  0.00     0.161 HD
ENDROOT
BRANCH   6  11
HETATM   11  C   UNL     1      24.637  48.035  49.785  1.00  0.00     0.276 C 
HETATM   12  N   UNL     1      23.259  47.952  49.736  1.00  0.00    -0.322 N 
HETATM   13  H   UNL     1      22.889  47.106  50.163  1.00  0.00     0.169 HD
HETATM   14  O   UNL     1      25.338  48.906  49.281  1.00  0.00    -0.266 OA
BRANCH  12  15
HETATM   15  C   UNL     1      22.351  48.855  49.162  1.00  0.00     0.035 A 
HETATM   16  C   UNL     1      21.262  48.464  48.378  1.00  0.00     0.039 A 
HETATM   17  C   UNL     1      20.399  49.415  47.803  1.00  0.00    -0.028 A 
HETATM   18  C   UNL     1      20.634  50.773  48.054  1.00  0.00     0.010 A 
HETATM   19  C   UNL     1      21.716  51.173  48.835  1.00  0.00     0.003 A 
HETATM   20  C   UNL     1      22.576  50.217  49.378  1.00  0.00     0.029 A 
BRANCH  17  21
HETATM   21  C   UNL     1      19.244  48.944  46.947  1.00  0.00     0.147 C 
HETATM   22  C   UNL     1      18.748  50.042  46.014  1.00  0.00     0.044 C 
BRANCH  21  23
HETATM   23  O   UNL     1      19.626  47.812  46.166  1.00  0.00    -0.391 OA
HETATM   24  H   UNL     1      20.596  47.762  46.199  1.00  0.00     0.210 HD
ENDBRANCH  21  23
ENDBRANCH  17  21
ENDBRANCH  12  15
ENDBRANCH   6  11
BRANCH   8  25
HETATM   25  C   UNL     1      25.659  42.653  50.652  1.00  0.00     0.409 C 
HETATM   26  F   UNL     1      24.592  42.997  51.406  1.00  0.00    -0.169 F 
HETATM   27  F   UNL     1      25.193  42.469  49.388  1.00  0.00    -0.169 F 
HETATM   28  F   UNL     1      26.094  41.450  51.079  1.00  0.00    -0.169 F 
ENDBRANCH   8  25
BRANCH   1  29
HETATM   29  C   UNL     1      28.457  43.876  54.117  1.00  0.00    -0.035 A 
HETATM   30  C   UNL     1      28.558  44.990  54.960  1.00  0.00     0.010 A 
HETATM   31  C   UNL     1      29.624  45.109  55.857  1.00  0.00     0.007 A 
HETATM   32  C   UNL     1      30.615  44.123  55.921  1.00  0.00    -0.062 A 
HETATM   33  C   UNL     1      31.745  44.229  56.901  1.00  0.00     0.048 C 
HETATM   34  C   UNL     1      30.513  43.004  55.090  1.00  0.00     0.007 A 
HETATM   35  C   UNL     1      29.451  42.886  54.194  1.00  0.00     0.010 A 
ENDBRANCH   1  29
TORSDOF 6
ENDMDL
MODEL 2
REMARK VINA RESULT:     -10.2      1.312      1.940
REMARK  6 active torsions:
REMARK  status: ('A' for Active; 'I' for Inactive)
REMARK    1  A    between atoms: C_5  and  C_6 
REMARK    2  A    between atoms: C_11  and  C_12 
REMARK       I    between atoms: C_12  and  N_13 
REMARK    3  A    between atoms: N_13  and  C_14 
REMARK    4  A    between atoms: C_16  and  C_17 
REMARK    5  A    between atoms: C_17  and  O_18 
REMARK    6  A    between atoms: C_25  and  C_26 
ROOT
HETATM    1  C   UNL     1      27.311  43.522  52.536  1.00  0.00     0.118 C 
HETATM    2  N   UNL     1      26.278  44.535  52.749  1.00  0.00    -0.366 N 
HETATM    3  C   UNL     1      25.722  45.231  51.739  1.00  0.00     0.123 A 
HETATM    4  N   UNL     1      25.989  44.925  50.436  1.00  0.00    -0.240 N 
HETATM    5  N   UNL     1      25.491  45.807  49.550  1.00  0.00    -0.165 NA
HETATM    6  C   UNL     1      24.749  46.635  50.325  1.00  0.00     0.148 A 
HETATM    7  C   UNL     1      24.862  46.295  51.702  1.00  0.00     0.089 A 
HETATM    8  C   UNL     1      26.833  43.816  50.042  1.00  0.00     0.221 C 
HETATM    9  C   UNL     1      27.910  43.604  51.115  1.00  0.00     0.066 C 
HETATM   10  H   UNL     1      26.068  44.750  53.723  1.00  0.00     0.161 HD
ENDROOT
BRANCH   6  11
HETATM   11  C   UNL     1      23.970  47.750  49.758  1.00  0.00     0.276 C 
HETATM   12  N   UNL     1      22.701  47.352  49.387  1.00  0.00    -0.322 N 
HETATM   13  H   UNL     1      22.532  46.358  49.523  1.00  0.00     0.169 HD
HETATM   14  O   UNL     1      24.457  48.869  49.628  1.00  0.00    -0.266 OA
BRANCH  12  15
HETATM   15  C   UNL     1      21.668  48.130  48.841  1.00  0.00     0.035 A 
HETATM   16  C   UNL     1      21.215  49.323  49.410  1.00  0.00     0.039 A 
HETATM   17  C   UNL     1      20.155  50.048  48.835  1.00  0.00    -0.028 A 
HETATM   18  C   UNL     1      19.574  49.567  47.654  1.00  0.00     0.010 A 
HETATM   19  C   UNL     1      20.021  48.379  47.078  1.00  0.00     0.003 A 
HETATM   20  C   UNL     1      21.057  47.659  47.675  1.00  0.00     0.029 A 
BRANCH  17  21
HETATM   21  C   UNL     1      19.686  51.325  49.498  1.00  0.00     0.147 C 
HETATM   22  C   UNL     1      19.290  52.381  48.474  1.00  0.00     0.044 C 
BRANCH  21  23
HETATM   23  O   UNL     1      18.572  51.067  50.352  1.00  0.00    -0.391 OA
HETATM   24  H   UNL     1      17.923  50.571  49.826  1.00  0.00     0.210 HD
ENDBRANCH  21  23
ENDBRANCH  17  21
ENDBRANCH  12  15
ENDBRANCH   6  11
BRANCH   8  25
HETATM   25  C   UNL     1      25.990  42.585  49.807  1.00  0.00     0.409 C 
HETATM   26  F   UNL     1      24.853  42.591  50.537  1.00  0.00    -0.169 F 
HETATM   27  F   UNL     1      25.608  42.533  48.502  1.00  0.00    -0.169 F 
HETATM   28  F   UNL     1      26.637  41.428  50.061  1.00  0.00    -0.169 F 
ENDBRANCH   8  25
BRANCH   1  29
HETATM   29  C   UNL     1      28.392  43.699  53.590  1.00  0.00    -0.035 A 
HETATM   30  C   UNL     1      29.461  42.798  53.675  1.00  0.00     0.010 A 
HETATM   31  C   UNL     1      30.455  42.963  54.645  1.00  0.00     0.007 A 
HETATM   32  C   UNL     1      30.394  44.024  55.555  1.00  0.00    -0.062 A 
HETATM   33  C   UNL     1      31.472  44.224  56.579  1.00  0.00     0.048 C 
HETATM   34  C   UNL     1      29.335  44.933  55.468  1.00  0.00     0.007 A 
HETATM   35  C   UNL     1      28.343  44.768  54.502  1.00  0.00     0.010 A 
ENDBRANCH   1  29
TORSDOF 6
ENDMDL
MODEL 3
REMARK VINA RESULT:     -10.2      2.831      9.821
REMARK  6 active torsions:
REMARK  status: ('A' for Active; 'I' for Inactive)
REMARK    1  A    between atoms: C_5  and  C_6 
REMARK    2  A    between atoms: C_11  and  C_12 
REMARK       I    between atoms: C_12  and  N_13 
REMARK    3  A    between atoms: N_13  and  C_14 
REMARK    4  A    between atoms: C_16  and  C_17 
REMARK    5  A    between atoms: C_17  and  O_18 
REMARK    6  A    between atoms: C_25  and  C_26 
ROOT
HETATM    1  C   UNL     1      23.001  47.121  48.688  1.00  0.00     0.118 C 
HETATM    2  N   UNL     1      24.139  47.334  49.582  1.00  0.00    -0.366 N 
HETATM    3  C   UNL     1      24.555  46.406  50.466  1.00  0.00     0.123 A 
HETATM    4  N   UNL     1      24.025  45.149  50.475  1.00  0.00    -0.240 N 
HETATM    5  N   UNL     1      24.424  44.391  51.513  1.00  0.00    -0.165 NA
HETATM    6  C   UNL     1      25.365  45.161  52.111  1.00  0.00     0.148 A 
HETATM    7  C   UNL     1      25.481  46.427  51.473  1.00  0.00     0.089 A 
HETATM    8  C   UNL     1      23.030  44.703  49.521  1.00  0.00     0.221 C 
HETATM    9  C   UNL     1      22.157  45.899  49.116  1.00  0.00     0.066 C 
HETATM   10  H   UNL     1      24.544  48.270  49.562  1.00  0.00     0.161 HD
ENDROOT
BRANCH   6  11
HETATM   11  C   UNL     1      26.117  44.702  53.293  1.00  0.00     0.276 C 
HETATM   12  N   UNL     1      27.482  44.805  53.103  1.00  0.00    -0.322 N 
HETATM   13  H   UNL     1      27.737  45.132  52.174  1.00  0.00     0.169 HD
HETATM   14  O   UNL     1      25.545  44.263  54.285  1.00  0.00    -0.266 OA
BRANCH  12  15
HETATM   15  C   UNL     1      28.512  44.494  54.003  1.00  0.00     0.035 A 
HETATM   16  C   UNL     1      28.782  45.237  55.156  1.00  0.00     0.039 A 
HETATM   17  C   UNL     1      29.848  44.896  56.009  1.00  0.00    -0.028 A 
HETATM   18  C   UNL     1      30.626  43.773  55.697  1.00  0.00     0.010 A 
HETATM   19  C   UNL     1      30.364  43.026  54.551  1.00  0.00     0.003 A 
HETATM   20  C   UNL     1      29.317  43.391  53.702  1.00  0.00     0.029 A 
BRANCH  17  21
HETATM   21  C   UNL     1      30.113  45.741  57.236  1.00  0.00     0.147 C 
HETATM   22  C   UNL     1      28.819  46.192  57.901  1.00  0.00     0.044 C 
BRANCH  21  23
HETATM   23  O   UNL     1      30.893  45.016  58.186  1.00  0.00    -0.391 OA
HETATM   24  H   UNL     1      30.547  44.108  58.199  1.00  0.00     0.210 HD
ENDBRANCH  21  23
ENDBRANCH  17  21
ENDBRANCH  12  15
ENDBRANCH   6  11
BRANCH   8  25
HETATM   25  C   UNL     1      23.707  44.045  48.341  1.00  0.00     0.409 C 
HETATM   26  F   UNL     1      23.271  44.533  47.159  1.00  0.00    -0.169 F 
HETATM   27  F   UNL     1      25.045  44.288  48.386  1.00  0.00    -0.169 F 
HETATM   28  F   UNL     1      23.563  42.704  48.312  1.00  0.00    -0.169 F 
ENDBRANCH   8  25
BRANCH   1  29
HETATM   29  C   UNL     1      22.154  48.382  48.667  1.00  0.00    -0.035 A 
HETATM   30  C   UNL     1      20.764  48.312  48.818  1.00  0.00     0.010 A 
HETATM   31  C   UNL     1      19.986  49.474  48.798  1.00  0.00     0.007 A 
HETATM   32  C   UNL     1      20.582  50.728  48.616  1.00  0.00    -0.062 A 
HETATM   33  C   UNL     1      19.758  51.981  48.623  1.00  0.00     0.048 C 
HETATM   34  C   UNL     1      21.970  50.805  48.476  1.00  0.00     0.007 A 
HETATM   35  C   UNL     1      22.746  49.645  48.494  1.00  0.00     0.010 A 
ENDBRANCH   1  29
TORSDOF 6
ENDMDL
MODEL 4
REMARK VINA RESULT:     -10.0      2.067      3.093
REMARK  6 active torsions:
REMARK  status: ('A' for Active; 'I' for Inactive)
REMARK    1  A    between atoms: C_5  and  C_6 
REMARK    2  A    between atoms: C_11  and  C_12 
REMARK       I    between atoms: C_12  and  N_13 
REMARK    3  A    between atoms: N_13  and  C_14 
REMARK    4  A    between atoms: C_16  and  C_17 
REMARK    5  A    between atoms: C_17  and  O_18 
REMARK    6  A    between atoms: C_25  and  C_26 
ROOT
HETATM    1  C   UNL     1      28.486  43.080  54.032  1.00  0.00     0.118 C 
HETATM    2  N   UNL     1      27.165  43.619  53.714  1.00  0.00    -0.366 N 
HETATM    3  C   UNL     1      26.711  43.738  52.451  1.00  0.00     0.123 A 
HETATM    4  N   UNL     1      27.406  43.221  51.397  1.00  0.00    -0.240 N 
HETATM    5  N   UNL     1      26.912  43.558  50.192  1.00  0.00    -0.165 NA
HETATM    6  C   UNL     1      25.761  44.203  50.502  1.00  0.00     0.148 A 
HETATM    7  C   UNL     1      25.598  44.323  51.911  1.00  0.00     0.089 A 
HETATM    8  C   UNL     1      28.637  42.472  51.552  1.00  0.00     0.221 C 
HETATM    9  C   UNL     1      29.390  43.002  52.781  1.00  0.00     0.066 C 
HETATM   10  H   UNL     1      26.640  43.990  54.505  1.00  0.00     0.161 HD
ENDROOT
BRANCH   6  11
HETATM   11  C   UNL     1      24.850  44.722  49.466  1.00  0.00     0.276 C 
HETATM   12  N   UNL     1      24.251  45.904  49.857  1.00  0.00    -0.322 N 
HETATM   13  H   UNL     1      24.500  46.191  50.800  1.00  0.00     0.169 HD
HETATM   14  O   UNL     1      24.664  44.116  48.417  1.00  0.00    -0.266 OA
BRANCH  12  15
HETATM   15  C   UNL     1      23.352  46.705  49.135  1.00  0.00     0.035 A 
HETATM   16  C   UNL     1      23.617  48.027  48.770  1.00  0.00     0.039 A 
HETATM   17  C   UNL     1      22.667  48.794  48.071  1.00  0.00    -0.028 A 
HETATM   18  C   UNL     1      21.449  48.197  47.718  1.00  0.00     0.010 A 
HETATM   19  C   UNL     1      21.177  46.879  48.077  1.00  0.00     0.003 A 
HETATM   20  C   UNL     1      22.121  46.139  48.791  1.00  0.00     0.029 A 
BRANCH  17  21
HETATM   21  C   UNL     1      22.991  50.228  47.712  1.00  0.00     0.147 C 
HETATM   22  C   UNL     1      22.766  51.169  48.889  1.00  0.00     0.044 C 
BRANCH  21  23
HETATM   23  O   UNL     1      24.347  50.343  47.281  1.00  0.00    -0.391 OA
HETATM   24  H   UNL     1      24.398  49.931  46.402  1.00  0.00     0.210 HD
ENDBRANCH  21  23
ENDBRANCH  17  21
ENDBRANCH  12  15
ENDBRANCH   6  11
BRANCH   8  25
HETATM   25  C   UNL     1      28.334  40.995  51.643  1.00  0.00     0.409 C 
HETATM   26  F   UNL     1      28.519  40.357  50.467  1.00  0.00    -0.169 F 
HETATM   27  F   UNL     1      29.177  40.409  52.535  1.00  0.00    -0.169 F 
HETATM   28  F   UNL     1      27.081  40.724  52.066  1.00  0.00    -0.169 F 
ENDBRANCH   8  25
BRANCH   1  29
HETATM   29  C   UNL     1      29.122  43.947  55.106  1.00  0.00    -0.035 A 
HETATM   30  C   UNL     1      28.484  45.110  55.556  1.00  0.00     0.010 A 
HETATM   31  C   UNL     1      29.070  45.906  56.544  1.00  0.00     0.007 A 
HETATM   32  C   UNL     1      30.311  45.561  57.094  1.00  0.00    -0.062 A 
HETATM   33  C   UNL     1      30.931  46.394  58.176  1.00  0.00     0.048 C 
HETATM   34  C   UNL     1      30.946  44.396  56.657  1.00  0.00     0.007 A 
HETATM   35  C   UNL     1      30.362  43.603  55.670  1.00  0.00     0.010 A 
ENDBRANCH   1  29
TORSDOF 6
ENDMDL
MODEL 5
REMARK VINA RESULT:      -9.3      3.144      4.998
REMARK  6 active torsions:
REMARK  status: ('A' for Active; 'I' for Inactive)
REMARK    1  A    between atoms: C_5  and  C_6 
REMARK    2  A    between atoms: C_11  and  C_12 
REMARK       I    between atoms: C_12  and  N_13 
REMARK    3  A    between atoms: N_13  and  C_14 
REMARK    4  A    between atoms: C_16  and  C_17 
REMARK    5  A    between atoms: C_17  and  O_18 
REMARK    6  A    between atoms: C_25  and  C_26 
ROOT
HETATM    1  C   UNL     1      28.361  41.475  51.492  1.00  0.00     0.118 C 
HETATM    2  N   UNL     1      28.062  42.616  50.627  1.00  0.00    -0.366 N 
HETATM    3  C   UNL     1      27.455  43.732  51.076  1.00  0.00     0.123 A 
HETATM    4  N   UNL     1      27.216  43.921  52.407  1.00  0.00    -0.240 N 
HETATM    5  N   UNL     1      26.463  45.001  52.682  1.00  0.00    -0.165 NA
HETATM    6  C   UNL     1      26.340  45.605  51.476  1.00  0.00     0.148 A 
HETATM    7  C   UNL     1      26.961  44.842  50.448  1.00  0.00     0.089 A 
HETATM    8  C   UNL     1      27.634  42.981  53.427  1.00  0.00     0.221 C 
HETATM    9  C   UNL     1      27.608  41.563  52.838  1.00  0.00     0.066 C 
HETATM   10  H   UNL     1      28.256  42.478  49.635  1.00  0.00     0.161 HD
ENDROOT
BRANCH   6  11
HETATM   11  C   UNL     1      25.613  46.877  51.307  1.00  0.00     0.276 C 
HETATM   12  N   UNL     1      25.352  47.144  49.977  1.00  0.00    -0.322 N 
HETATM   13  H   UNL     1      25.740  46.452  49.341  1.00  0.00     0.169 HD
HETATM   14  O   UNL     1      25.330  47.584  52.268  1.00  0.00    -0.266 OA
BRANCH  12  15
HETATM   15  C   UNL     1      24.663  48.236  49.427  1.00  0.00     0.035 A 
HETATM   16  C   UNL     1      23.285  48.427  49.561  1.00  0.00     0.039 A 
HETATM   17  C   UNL     1      22.640  49.526  48.963  1.00  0.00    -0.028 A 
HETATM   18  C   UNL     1      23.412  50.451  48.249  1.00  0.00     0.010 A 
HETATM   19  C   UNL     1      24.787  50.269  48.111  1.00  0.00     0.003 A 
HETATM   20  C   UNL     1      25.407  49.161  48.689  1.00  0.00     0.029 A 
BRANCH  17  21
HETATM   21  C   UNL     1      21.143  49.681  49.121  1.00  0.00     0.147 C 
HETATM   22  C   UNL     1      20.408  48.373  48.855  1.00  0.00     0.044 C 
BRANCH  21  23
HETATM   23  O   UNL     1      20.821  50.134  50.436  1.00  0.00    -0.391 OA
HETATM   24  H   UNL     1      21.626  50.039  50.971  1.00  0.00     0.210 HD
ENDBRANCH  21  23
ENDBRANCH  17  21
ENDBRANCH  12  15
ENDBRANCH   6  11
BRANCH   8  25
HETATM   25  C   UNL     1      28.993  43.369  53.960  1.00  0.00     0.409 C 
HETATM   26  F   UNL     1      28.937  44.432  54.791  1.00  0.00    -0.169 F 
HETATM   27  F   UNL     1      29.512  42.342  54.684  1.00  0.00    -0.169 F 
HETATM   28  F   UNL     1      29.894  43.648  52.994  1.00  0.00    -0.169 F 
ENDBRANCH   8  25
BRANCH   1  29
HETATM   29  C   UNL     1      28.003  40.196  50.754  1.00  0.00    -0.035 A 
HETATM   30  C   UNL     1      26.717  40.009  50.230  1.00  0.00     0.010 A 
HETATM   31  C   UNL     1      26.390  38.831  49.552  1.00  0.00     0.007 A 
HETATM   32  C   UNL     1      27.338  37.813  49.393  1.00  0.00    -0.062 A 
HETATM   33  C   UNL     1      27.003  36.560  48.640  1.00  0.00     0.048 C 
HETATM   34  C   UNL     1      28.625  37.999  49.903  1.00  0.00     0.007 A 
HETATM   35  C   UNL     1      28.951  39.173  50.582  1.00  0.00     0.010 A 
ENDBRANCH   1  29
TORSDOF 6
ENDMDL
MODEL 6
REMARK VINA RESULT:      -9.3      3.036     10.041
REMARK  6 active torsions:
REMARK  status: ('A' for Active; 'I' for Inactive)
REMARK    1  A    between atoms: C_5  and  C_6 
REMARK    2  A    between atoms: C_11  and  C_12 
REMARK       I    between atoms: C_12  and  N_13 
REMARK    3  A    between atoms: N_13  and  C_14 
REMARK    4  A    between atoms: C_16  and  C_17 
REMARK    5  A    between atoms: C_17  and  O_18 
REMARK    6  A    between atoms: C_25  and  C_26 
ROOT
HETATM    1  C   UNL     1      20.411  48.851  47.884  1.00  0.00     0.118 C 
HETATM    2  N   UNL     1      21.795  49.199  48.202  1.00  0.00    -0.366 N 
HETATM    3  C   UNL     1      22.673  48.311  48.708  1.00  0.00     0.123 A 
HETATM    4  N   UNL     1      22.357  46.987  48.817  1.00  0.00    -0.240 N 
HETATM    5  N   UNL     1      23.267  46.258  49.486  1.00  0.00    -0.165 NA
HETATM    6  C   UNL     1      24.279  47.137  49.686  1.00  0.00     0.148 A 
HETATM    7  C   UNL     1      23.944  48.432  49.200  1.00  0.00     0.089 A 
HETATM    8  C   UNL     1      21.099  46.434  48.358  1.00  0.00     0.221 C 
HETATM    9  C   UNL     1      20.002  47.498  48.509  1.00  0.00     0.066 C 
HETATM   10  H   UNL     1      22.033  50.186  48.104  1.00  0.00     0.161 HD
ENDROOT
BRANCH   6  11
HETATM   11  C   UNL     1      25.532  46.751  50.359  1.00  0.00     0.276 C 
HETATM   12  N   UNL     1      25.341  46.531  51.710  1.00  0.00    -0.322 N 
HETATM   13  H   UNL     1      24.390  46.714  52.020  1.00  0.00     0.169 HD
HETATM   14  O   UNL     1      26.592  46.680  49.746  1.00  0.00    -0.266 OA
BRANCH  12  15
HETATM   15  C   UNL     1      26.283  46.124  52.668  1.00  0.00     0.035 A 
HETATM   16  C   UNL     1      26.860  44.852  52.693  1.00  0.00     0.039 A 
HETATM   17  C   UNL     1      27.778  44.488  53.696  1.00  0.00    -0.028 A 
HETATM   18  C   UNL     1      28.132  45.440  54.661  1.00  0.00     0.010 A 
HETATM   19  C   UNL     1      27.562  46.712  54.643  1.00  0.00     0.003 A 
HETATM   20  C   UNL     1      26.635  47.049  53.656  1.00  0.00     0.029 A 
BRANCH  17  21
HETATM   21  C   UNL     1      28.363  43.092  53.693  1.00  0.00     0.147 C 
HETATM   22  C   UNL     1      29.551  42.976  54.640  1.00  0.00     0.044 C 
BRANCH  21  23
HETATM   23  O   UNL     1      27.375  42.134  54.069  1.00  0.00    -0.391 OA
HETATM   24  H   UNL     1      26.531  42.439  53.697  1.00  0.00     0.210 HD
ENDBRANCH  21  23
ENDBRANCH  17  21
ENDBRANCH  12  15
ENDBRANCH   6  11
BRANCH   8  25
HETATM   25  C   UNL     1      21.243  45.937  46.939  1.00  0.00     0.409 C 
HETATM   26  F   UNL     1      21.468  44.607  46.878  1.00  0.00    -0.169 F 
HETATM   27  F   UNL     1      20.088  46.163  46.256  1.00  0.00    -0.169 F 
HETATM   28  F   UNL     1      22.223  46.553  46.246  1.00  0.00    -0.169 F 
ENDBRANCH   8  25
BRANCH   1  29
HETATM   29  C   UNL     1      19.503  49.967  48.372  1.00  0.00    -0.035 A 
HETATM   30  C   UNL     1      18.284  49.675  48.998  1.00  0.00     0.010 A 
HETATM   31  C   UNL     1      17.450  50.704  49.446  1.00  0.00     0.007 A 
HETATM   32  C   UNL     1      17.812  52.045  49.267  1.00  0.00    -0.062 A 
HETATM   33  C   UNL     1      16.937  53.153  49.772  1.00  0.00     0.048 C 
HETATM   34  C   UNL     1      19.032  52.342  48.653  1.00  0.00     0.007 A 
HETATM   35  C   UNL     1      19.863  51.315  48.204  1.00  0.00     0.010 A 
ENDBRANCH   1  29
TORSDOF 6
ENDMDL
MODEL 7
REMARK VINA RESULT:      -9.2      2.512      2.977
REMARK  6 active torsions:
REMARK  status: ('A' for Active; 'I' for Inactive)
REMARK    1  A    between atoms: C_5  and  C_6 
REMARK    2  A    between atoms: C_11  and  C_12 
REMARK       I    between atoms: C_12  and  N_13 
REMARK    3  A    between atoms: N_13  and  C_14 
REMARK    4  A    between atoms: C_16  and  C_17 
REMARK    5  A    between atoms: C_17  and  O_18 
REMARK    6  A    between atoms: C_25  and  C_26 
ROOT
HETATM    1  C   UNL     1      27.430  42.397  52.571  1.00  0.00     0.118 C 
HETATM    2  N   UNL     1      26.108  43.001  52.411  1.00  0.00    -0.366 N 
HETATM    3  C   UNL     1      25.528  43.178  51.207  1.00  0.00     0.123 A 
HETATM    4  N   UNL     1      26.085  42.665  50.072  1.00  0.00    -0.240 N 
HETATM    5  N   UNL     1      25.481  43.059  48.936  1.00  0.00    -0.165 NA
HETATM    6  C   UNL     1      24.400  43.742  49.385  1.00  0.00     0.148 A 
HETATM    7  C   UNL     1      24.392  43.825  50.805  1.00  0.00     0.089 A 
HETATM    8  C   UNL     1      27.290  41.860  50.075  1.00  0.00     0.221 C 
HETATM    9  C   UNL     1      28.192  42.320  51.230  1.00  0.00     0.066 C 
HETATM   10  H   UNL     1      25.687  43.370  53.263  1.00  0.00     0.161 HD
ENDROOT
BRANCH   6  11
HETATM   11  C   UNL     1      23.409  44.330  48.466  1.00  0.00     0.276 C 
HETATM   12  N   UNL     1      22.534  45.171  49.127  1.00  0.00    -0.322 N 
HETATM   13  H   UNL     1      22.688  45.207  50.132  1.00  0.00     0.169 HD
HETATM   14  O   UNL     1      23.394  44.046  47.273  1.00  0.00    -0.266 OA
BRANCH  12  15
HETATM   15  C   UNL     1      21.480  45.928  48.592  1.00  0.00     0.035 A 
HETATM   16  C   UNL     1      20.133  45.580  48.724  1.00  0.00     0.039 A 
HETATM   17  C   UNL     1      19.119  46.362  48.140  1.00  0.00    -0.028 A 
HETATM   18  C   UNL     1      19.481  47.521  47.442  1.00  0.00     0.010 A 
HETATM   19  C   UNL     1      20.821  47.876  47.306  1.00  0.00     0.003 A 
HETATM   20  C   UNL     1      21.817  47.077  47.871  1.00  0.00     0.029 A 
BRANCH  17  21
HETATM   21  C   UNL     1      17.675  45.935  48.295  1.00  0.00     0.147 C 
HETATM   22  C   UNL     1      16.721  47.117  48.174  1.00  0.00     0.044 C 
BRANCH  21  23
HETATM   23  O   UNL     1      17.331  44.961  47.311  1.00  0.00    -0.391 OA
HETATM   24  H   UNL     1      17.687  45.278  46.464  1.00  0.00     0.210 HD
ENDBRANCH  21  23
ENDBRANCH  17  21
ENDBRANCH  12  15
ENDBRANCH   6  11
BRANCH   8  25
HETATM   25  C   UNL     1      26.931  40.395  50.159  1.00  0.00     0.409 C 
HETATM   26  F   UNL     1      27.918  39.653  50.708  1.00  0.00    -0.169 F 
HETATM   27  F   UNL     1      25.841  40.236  50.957  1.00  0.00    -0.169 F 
HETATM   28  F   UNL     1      26.617  39.846  48.968  1.00  0.00    -0.169 F 
ENDBRANCH   8  25
BRANCH   1  29
HETATM   29  C   UNL     1      28.214  43.203  53.593  1.00  0.00    -0.035 A 
HETATM   30  C   UNL     1      27.697  44.398  54.110  1.00  0.00     0.010 A 
HETATM   31  C   UNL     1      28.420  45.138  55.051  1.00  0.00     0.007 A 
HETATM   32  C   UNL     1      29.678  44.704  55.485  1.00  0.00    -0.062 A 
HETATM   33  C   UNL     1      30.446  45.477  56.516  1.00  0.00     0.048 C 
HETATM   34  C   UNL     1      30.194  43.507  54.981  1.00  0.00     0.007 A 
HETATM   35  C   UNL     1      29.474  42.769  54.041  1.00  0.00     0.010 A 
ENDBRANCH   1  29
TORSDOF 6
ENDMDL
MODEL 8
REMARK VINA RESULT:      -9.1      4.955      8.495
REMARK  6 active torsions:
REMARK  status: ('A' for Active; 'I' for Inactive)
REMARK    1  A    between atoms: C_5  and  C_6 
REMARK    2  A    between atoms: C_11  and  C_12 
REMARK       I    between atoms: C_12  and  N_13 
REMARK    3  A    between atoms: N_13  and  C_14 
REMARK    4  A    between atoms: C_16  and  C_17 
REMARK    5  A    between atoms: C_17  and  O_18 
REMARK    6  A    between atoms: C_25  and  C_26 
ROOT
HETATM    1  C   UNL     1      27.916  44.469  53.177  1.00  0.00     0.118 C 
HETATM    2  N   UNL     1      28.364  43.676  52.033  1.00  0.00    -0.366 N 
HETATM    3  C   UNL     1      27.529  42.902  51.312  1.00  0.00     0.123 A 
HETATM    4  N   UNL     1      26.181  42.929  51.520  1.00  0.00    -0.240 N 
HETATM    5  N   UNL     1      25.500  41.989  50.841  1.00  0.00    -0.165 NA
HETATM    6  C   UNL     1      26.450  41.431  50.052  1.00  0.00     0.148 A 
HETATM    7  C   UNL     1      27.733  41.989  50.313  1.00  0.00     0.089 A 
HETATM    8  C   UNL     1      25.546  43.812  52.477  1.00  0.00     0.221 C 
HETATM    9  C   UNL     1      26.508  44.048  53.651  1.00  0.00     0.066 C 
HETATM   10  H   UNL     1      29.370  43.670  51.869  1.00  0.00     0.161 HD
ENDROOT
BRANCH   6  11
HETATM   11  C   UNL     1      26.139  40.361  49.087  1.00  0.00     0.276 C 
HETATM   12  N   UNL     1      27.168  39.445  48.989  1.00  0.00    -0.322 N 
HETATM   13  H   UNL     1      27.978  39.683  49.557  1.00  0.00     0.169 HD
HETATM   14  O   UNL     1      25.088  40.356  48.454  1.00  0.00    -0.266 OA
BRANCH  12  15
HETATM   15  C   UNL     1      27.229  38.284  48.203  1.00  0.00     0.035 A 
HETATM   16  C   UNL     1      27.932  38.201  46.998  1.00  0.00     0.039 A 
HETATM   17  C   UNL     1      27.935  37.018  46.236  1.00  0.00    -0.028 A 
HETATM   18  C   UNL     1      27.238  35.904  46.722  1.00  0.00     0.010 A 
HETATM   19  C   UNL     1      26.535  35.977  47.922  1.00  0.00     0.003 A 
HETATM   20  C   UNL     1      26.522  37.165  48.655  1.00  0.00     0.029 A 
BRANCH  17  21
HETATM   21  C   UNL     1      28.696  36.982  44.929  1.00  0.00     0.147 C 
HETATM   22  C   UNL     1      28.658  38.327  44.215  1.00  0.00     0.044 C 
BRANCH  21  23
HETATM   23  O   UNL     1      30.057  36.614  45.150  1.00  0.00    -0.391 OA
HETATM   24  H   UNL     1      30.392  37.189  45.859  1.00  0.00     0.210 HD
ENDBRANCH  21  23
ENDBRANCH  17  21
ENDBRANCH  12  15
ENDBRANCH   6  11
BRANCH   8  25
HETATM   25  C   UNL     1      25.127  45.094  51.796  1.00  0.00     0.409 C 
HETATM   26  F   UNL     1      25.939  45.421  50.767  1.00  0.00    -0.169 F 
HETATM   27  F   UNL     1      23.881  44.947  51.271  1.00  0.00    -0.169 F 
HETATM   28  F   UNL     1      25.069  46.155  52.628  1.00  0.00    -0.169 F 
ENDBRANCH   8  25
BRANCH   1  29
HETATM   29  C   UNL     1      28.931  44.323  54.299  1.00  0.00    -0.035 A 
HETATM   30  C   UNL     1      29.091  45.335  55.254  1.00  0.00     0.010 A 
HETATM   31  C   UNL     1      30.024  45.198  56.286  1.00  0.00     0.007 A 
HETATM   32  C   UNL     1      30.824  44.052  56.377  1.00  0.00    -0.062 A 
HETATM   33  C   UNL     1      31.806  43.886  57.498  1.00  0.00     0.048 C 
HETATM   34  C   UNL     1      30.660  43.035  55.433  1.00  0.00     0.007 A 
HETATM   35  C   UNL     1      29.731  43.172  54.403  1.00  0.00     0.010 A 
ENDBRANCH   1  29
TORSDOF 6
ENDMDL
MODEL 9
REMARK VINA RESULT:      -9.0      4.717      6.373
REMARK  6 active torsions:
REMARK  status: ('A' for Active; 'I' for Inactive)
REMARK    1  A    between atoms: C_5  and  C_6 
REMARK    2  A    between atoms: C_11  and  C_12 
REMARK       I    between atoms: C_12  and  N_13 
REMARK    3  A    between atoms: N_13  and  C_14 
REMARK    4  A    between atoms: C_16  and  C_17 
REMARK    5  A    between atoms: C_17  and  O_18 
REMARK    6  A    between atoms: C_25  and  C_26 
ROOT
HETATM    1  C   UNL     1      28.011  44.789  53.332  1.00  0.00     0.118 C 
HETATM    2  N   UNL     1      28.284  43.910  52.196  1.00  0.00    -0.366 N 
HETATM    3  C   UNL     1      27.310  43.277  51.514  1.00  0.00     0.123 A 
HETATM    4  N   UNL     1      25.992  43.537  51.757  1.00  0.00    -0.240 N 
HETATM    5  N   UNL     1      25.142  42.714  51.117  1.00  0.00    -0.165 NA
HETATM    6  C   UNL     1      25.960  41.988  50.317  1.00  0.00     0.148 A 
HETATM    7  C   UNL     1      27.326  42.324  50.532  1.00  0.00     0.089 A 
HETATM    8  C   UNL     1      25.545  44.533  52.709  1.00  0.00     0.221 C 
HETATM    9  C   UNL     1      26.566  44.623  53.852  1.00  0.00     0.066 C 
HETATM   10  H   UNL     1      29.270  43.730  52.006  1.00  0.00     0.161 HD
ENDROOT
BRANCH   6  11
HETATM   11  C   UNL     1      25.444  40.970  49.385  1.00  0.00     0.276 C 
HETATM   12  N   UNL     1      24.461  41.481  48.561  1.00  0.00    -0.322 N 
HETATM   13  H   UNL     1      24.227  42.450  48.763  1.00  0.00     0.169 HD
HETATM   14  O   UNL     1      25.856  39.815  49.408  1.00  0.00    -0.266 OA
BRANCH  12  15
HETATM   15  C   UNL     1      23.758  40.830  47.536  1.00  0.00     0.035 A 
HETATM   16  C   UNL     1      22.398  40.516  47.609  1.00  0.00     0.039 A 
HETATM   17  C   UNL     1      21.750  39.835  46.562  1.00  0.00    -0.028 A 
HETATM   18  C   UNL     1      22.489  39.500  45.419  1.00  0.00     0.010 A 
HETATM   19  C   UNL     1      23.844  39.811  45.337  1.00  0.00     0.003 A 
HETATM   20  C   UNL     1      24.478  40.464  46.394  1.00  0.00     0.029 A 
BRANCH  17  21
HETATM   21  C   UNL     1      20.280  39.500  46.695  1.00  0.00     0.147 C 
HETATM   22  C   UNL     1      19.849  38.442  45.687  1.00  0.00     0.044 C 
BRANCH  21  23
HETATM   23  O   UNL     1      19.989  39.031  48.011  1.00  0.00    -0.391 OA
HETATM   24  H   UNL     1      19.896  38.066  47.951  1.00  0.00     0.210 HD
ENDBRANCH  21  23
ENDBRANCH  17  21
ENDBRANCH  12  15
ENDBRANCH   6  11
BRANCH   8  25
HETATM   25  C   UNL     1      25.330  45.855  52.009  1.00  0.00     0.409 C 
HETATM   26  F   UNL     1      26.333  46.156  51.157  1.00  0.00    -0.169 F 
HETATM   27  F   UNL     1      24.195  45.798  51.262  1.00  0.00    -0.169 F 
HETATM   28  F   UNL     1      25.179  46.896  52.853  1.00  0.00    -0.169 F 
ENDBRANCH   8  25
BRANCH   1  29
HETATM   29  C   UNL     1      29.019  44.493  54.431  1.00  0.00    -0.035 A 
HETATM   30  C   UNL     1      29.772  43.312  54.411  1.00  0.00     0.010 A 
HETATM   31  C   UNL     1      30.698  43.042  55.422  1.00  0.00     0.007 A 
HETATM   32  C   UNL     1      30.883  43.941  56.479  1.00  0.00    -0.062 A 
HETATM   33  C   UNL     1      31.896  43.672  57.552  1.00  0.00     0.048 C 
HETATM   34  C   UNL     1      30.142  45.126  56.498  1.00  0.00     0.007 A 
HETATM   35  C   UNL     1      29.216  45.395  55.490  1.00  0.00     0.010 A 
ENDBRANCH   1  29
TORSDOF 6
ENDMDL
MODEL 10
REMARK VINA RESULT:      -9.0      2.086      2.595
REMARK  6 active torsions:
REMARK  status: ('A' for Active; 'I' for Inactive)
REMARK    1  A    between atoms: C_5  and  C_6 
REMARK    2  A    between atoms: C_11  and  C_12 
REMARK       I    between atoms: C_12  and  N_13 
REMARK    3  A    between atoms: N_13  and  C_14 
REMARK    4  A    between atoms: C_16  and  C_17 
REMARK    5  A    between atoms: C_17  and  O_18 
REMARK    6  A    between atoms: C_25  and  C_26 
ROOT
HETATM    1  C   UNL     1      27.642  42.894  52.843  1.00  0.00     0.118 C 
HETATM    2  N   UNL     1      26.218  43.220  52.917  1.00  0.00    -0.366 N 
HETATM    3  C   UNL     1      25.472  43.476  51.824  1.00  0.00     0.123 A 
HETATM    4  N   UNL     1      25.973  43.300  50.567  1.00  0.00    -0.240 N 
HETATM    5  N   UNL     1      25.168  43.748  49.587  1.00  0.00    -0.165 NA
HETATM    6  C   UNL     1      24.039  44.095  50.250  1.00  0.00     0.148 A 
HETATM    7  C   UNL     1      24.191  43.925  51.655  1.00  0.00     0.089 A 
HETATM    8  C   UNL     1      27.302  42.784  50.310  1.00  0.00     0.221 C 
HETATM    9  C   UNL     1      28.233  43.217  51.453  1.00  0.00     0.066 C 
HETATM   10  H   UNL     1      25.842  43.335  53.857  1.00  0.00     0.161 HD
ENDROOT
BRANCH   6  11
HETATM   11  C   UNL     1      22.847  44.609  49.553  1.00  0.00     0.276 C 
HETATM   12  N   UNL     1      22.997  45.934  49.189  1.00  0.00    -0.322 N 
HETATM   13  H   UNL     1      23.875  46.341  49.500  1.00  0.00     0.169 HD
HETATM   14  O   UNL     1      21.858  43.905  49.373  1.00  0.00    -0.266 OA
BRANCH  12  15
HETATM   15  C   UNL     1      22.097  46.753  48.491  1.00  0.00     0.035 A 
HETATM   16  C   UNL     1      21.581  47.947  49.002  1.00  0.00     0.039 A 
HETATM   17  C   UNL     1      20.657  48.714  48.269  1.00  0.00    -0.028 A 
HETATM   18  C   UNL     1      20.281  48.275  46.993  1.00  0.00     0.010 A 
HETATM   19  C   UNL     1      20.791  47.086  46.474  1.00  0.00     0.003 A 
HETATM   20  C   UNL     1      21.687  46.324  47.224  1.00  0.00     0.029 A 
BRANCH  17  21
HETATM   21  C   UNL     1      20.112  49.991  48.871  1.00  0.00     0.147 C 
HETATM   22  C   UNL     1      20.946  51.203  48.476  1.00  0.00     0.044 C 
BRANCH  21  23
HETATM   23  O   UNL     1      18.762  50.204  48.460  1.00  0.00    -0.391 OA
HETATM   24  H   UNL     1      18.475  49.393  48.008  1.00  0.00     0.210 HD
ENDBRANCH  21  23
ENDBRANCH  17  21
ENDBRANCH  12  15
ENDBRANCH   6  11
BRANCH   8  25
HETATM   25  C   UNL     1      27.248  41.284  50.135  1.00  0.00     0.409 C 
HETATM   26  F   UNL     1      26.136  40.742  50.677  1.00  0.00    -0.169 F 
HETATM   27  F   UNL     1      27.218  40.980  48.810  1.00  0.00    -0.169 F 
HETATM   28  F   UNL     1      28.315  40.640  50.651  1.00  0.00    -0.169 F 
ENDBRANCH   8  25
BRANCH   1  29
HETATM   29  C   UNL     1      28.375  43.658  53.933  1.00  0.00    -0.035 A 
HETATM   30  C   UNL     1      27.811  44.806  54.504  1.00  0.00     0.010 A 
HETATM   31  C   UNL     1      28.487  45.507  55.507  1.00  0.00     0.007 A 
HETATM   32  C   UNL     1      29.744  45.081  55.952  1.00  0.00    -0.062 A 
HETATM   33  C   UNL     1      30.461  45.811  57.048  1.00  0.00     0.048 C 
HETATM   34  C   UNL     1      30.306  43.929  55.394  1.00  0.00     0.007 A 
HETATM   35  C   UNL     1      29.633  43.231  54.392  1.00  0.00     0.010 A 
ENDBRANCH   1  29
TORSDOF 6
ENDMDL
