MODEL 1
REMARK VINA RESULT:      -7.9      0.000      0.000
REMARK  3 active torsions:
REMARK  status: ('A' for Active; 'I' for Inactive)
REMARK    1  A    between atoms: C_11  and  N_12 
REMARK       I    between atoms: N_12  and  C_13 
REMARK       I    between atoms: C_13  and  N_14 
REMARK    2  A    between atoms: N_14  and  C_15 
REMARK    3  A    between atoms: C_20  and  O_21 
ROOT
HETATM    1  N   UNL     1      26.342  43.617  52.041  1.00  0.00    -0.338 N 
HETATM    2  C   UNL     1      26.868  43.751  53.317  1.00  0.00     0.321 C 
HETATM    3  N   UNL     1      28.232  43.915  53.278  1.00  0.00    -0.306 N 
HETATM    4  O   UNL     1      26.174  43.692  54.321  1.00  0.00    -0.247 OA
HETATM    5  H   UNL     1      26.940  44.060  51.356  1.00  0.00     0.164 HD
HETATM    6  H   UNL     1      28.687  43.961  52.375  1.00  0.00     0.171 HD
ENDROOT
BRANCH   1   7
HETATM    7  C   UNL     1      24.913  43.752  51.759  1.00  0.00     0.091 C 
HETATM    8  C   UNL     1      24.275  42.794  50.742  1.00  0.00     0.063 C 
HETATM    9  C   UNL     1      24.652  43.037  49.280  1.00  0.00     0.121 C 
HETATM   10  N   UNL     1      24.436  44.502  48.952  1.00  0.00    -0.059 N 
HETATM   11  C   UNL     1      26.073  42.613  48.901  1.00  0.00     0.046 C 
HETATM   12  C   UNL     1      23.679  42.252  48.374  1.00  0.00     0.046 C 
HETATM   13  C   UNL     1      24.910  45.575  49.908  1.00  0.00     0.121 C 
HETATM   14  H   UNL     1      23.422  44.630  48.826  1.00  0.00     0.279 HD
HETATM   15  H   UNL     1      24.830  44.687  48.017  1.00  0.00     0.279 HD
HETATM   16  C   UNL     1      26.398  45.864  49.681  1.00  0.00     0.046 C 
HETATM   17  C   UNL     1      24.130  46.852  49.528  1.00  0.00     0.046 C 
HETATM   18  C   UNL     1      24.568  45.194  51.361  1.00  0.00     0.063 C 
ENDBRANCH   1   7
BRANCH   3  19
HETATM   19  C   UNL     1      29.110  44.113  54.371  1.00  0.00     0.077 A 
HETATM   20  C   UNL     1      30.180  43.215  54.487  1.00  0.00     0.143 A 
HETATM   21  F   UNL     1      30.311  42.231  53.583  1.00  0.00    -0.204 F 
HETATM   22  C   UNL     1      31.116  43.326  55.507  1.00  0.00     0.047 A 
HETATM   23  C   UNL     1      30.980  44.347  56.443  1.00  0.00     0.040 A 
HETATM   24  C   UNL     1      29.912  45.248  56.360  1.00  0.00     0.070 A 
HETATM   25  C   UNL     1      28.982  45.133  55.319  1.00  0.00     0.069 A 
BRANCH  24  26
HETATM   26  O   UNL     1      29.893  46.191  57.352  1.00  0.00    -0.356 OA
HETATM   27  C   UNL     1      30.694  45.942  58.500  1.00  0.00     0.210 C 
ENDBRANCH  24  26
ENDBRANCH   3  19
TORSDOF 3
ENDMDL
MODEL 2
REMARK VINA RESULT:      -7.7      2.766      3.738
REMARK  3 active torsions:
REMARK  status: ('A' for Active; 'I' for Inactive)
REMARK    1  A    between atoms: C_11  and  N_12 
REMARK       I    between atoms: N_12  and  C_13 
REMARK       I    between atoms: C_13  and  N_14 
REMARK    2  A    between atoms: N_14  and  C_15 
REMARK    3  A    between atoms: C_20  and  O_21 
ROOT
HETATM    1  N   UNL     1      28.504  40.795  51.023  1.00  0.00    -0.338 N 
HETATM    2  C   UNL     1      28.517  41.294  52.317  1.00  0.00     0.321 C 
HETATM    3  N   UNL     1      29.276  42.437  52.401  1.00  0.00    -0.306 N 
HETATM    4  O   UNL     1      27.940  40.737  53.238  1.00  0.00    -0.247 OA
HETATM    5  H   UNL     1      28.676  41.532  50.350  1.00  0.00     0.164 HD
HETATM    6  H   UNL     1      29.691  42.805  51.555  1.00  0.00     0.171 HD
ENDROOT
BRANCH   1   7
HETATM    7  C   UNL     1      27.537  39.794  50.573  1.00  0.00     0.091 C 
HETATM    8  C   UNL     1      27.852  38.994  49.301  1.00  0.00     0.063 C 
HETATM    9  C   UNL     1      27.751  39.773  47.989  1.00  0.00     0.121 C 
HETATM   10  N   UNL     1      26.414  40.488  47.942  1.00  0.00    -0.059 N 
HETATM   11  C   UNL     1      28.890  40.765  47.738  1.00  0.00     0.046 C 
HETATM   12  C   UNL     1      27.740  38.775  46.811  1.00  0.00     0.046 C 
HETATM   13  C   UNL     1      25.905  41.236  49.155  1.00  0.00     0.121 C 
HETATM   14  H   UNL     1      25.708  39.778  47.701  1.00  0.00     0.279 HD
HETATM   15  H   UNL     1      26.415  41.126  47.131  1.00  0.00     0.279 HD
HETATM   16  C   UNL     1      26.522  42.638  49.207  1.00  0.00     0.046 C 
HETATM   17  C   UNL     1      24.387  41.407  48.939  1.00  0.00     0.046 C 
HETATM   18  C   UNL     1      26.138  40.409  50.435  1.00  0.00     0.063 C 
ENDBRANCH   1   7
BRANCH   3  19
HETATM   19  C   UNL     1      29.498  43.243  53.544  1.00  0.00     0.077 A 
HETATM   20  C   UNL     1      28.629  44.329  53.723  1.00  0.00     0.143 A 
HETATM   21  F   UNL     1      27.659  44.549  52.821  1.00  0.00    -0.204 F 
HETATM   22  C   UNL     1      28.738  45.175  54.820  1.00  0.00     0.047 A 
HETATM   23  C   UNL     1      29.742  44.945  55.755  1.00  0.00     0.040 A 
HETATM   24  C   UNL     1      30.634  43.878  55.592  1.00  0.00     0.070 A 
HETATM   25  C   UNL     1      30.505  43.025  54.489  1.00  0.00     0.069 A 
BRANCH  24  26
HETATM   26  O   UNL     1      31.577  43.778  56.578  1.00  0.00    -0.356 OA
HETATM   27  C   UNL     1      31.275  44.380  57.830  1.00  0.00     0.210 C 
ENDBRANCH  24  26
ENDBRANCH   3  19
TORSDOF 3
ENDMDL
MODEL 3
REMARK VINA RESULT:      -7.6      5.633      8.689
REMARK  3 active torsions:
REMARK  status: ('A' for Active; 'I' for Inactive)
REMARK    1  A    between atoms: C_11  and  N_12 
REMARK       I    between atoms: N_12  and  C_13 
REMARK       I    between atoms: C_13  and  N_14 
REMARK    2  A    between atoms: N_14  and  C_15 
REMARK    3  A    between atoms: C_20  and  O_21 
ROOT
HETATM    1  N   UNL     1      21.133  49.123  48.660  1.00  0.00    -0.338 N 
HETATM    2  C   UNL     1      22.263  48.355  48.421  1.00  0.00     0.321 C 
HETATM    3  N   UNL     1      22.978  48.150  49.577  1.00  0.00    -0.306 N 
HETATM    4  O   UNL     1      22.563  47.962  47.304  1.00  0.00    -0.247 OA
HETATM    5  H   UNL     1      20.832  49.032  49.622  1.00  0.00     0.164 HD
HETATM    6  H   UNL     1      22.611  48.520  50.444  1.00  0.00     0.171 HD
ENDROOT
BRANCH   1   7
HETATM    7  C   UNL     1      20.034  49.228  47.700  1.00  0.00     0.091 C 
HETATM    8  C   UNL     1      19.346  50.589  47.524  1.00  0.00     0.063 C 
HETATM    9  C   UNL     1      18.459  51.036  48.686  1.00  0.00     0.121 C 
HETATM   10  N   UNL     1      17.502  49.913  49.036  1.00  0.00    -0.059 N 
HETATM   11  C   UNL     1      19.215  51.496  49.935  1.00  0.00     0.046 C 
HETATM   12  C   UNL     1      17.577  52.215  48.221  1.00  0.00     0.046 C 
HETATM   13  C   UNL     1      18.003  48.489  49.143  1.00  0.00     0.121 C 
HETATM   14  H   UNL     1      16.759  49.924  48.323  1.00  0.00     0.279 HD
HETATM   15  H   UNL     1      17.013  50.162  49.910  1.00  0.00     0.279 HD
HETATM   16  C   UNL     1      18.611  48.246  50.528  1.00  0.00     0.046 C 
HETATM   17  C   UNL     1      16.752  47.592  49.024  1.00  0.00     0.046 C 
HETATM   18  C   UNL     1      18.961  48.166  47.980  1.00  0.00     0.063 C 
ENDBRANCH   1   7
BRANCH   3  19
HETATM   19  C   UNL     1      24.165  47.394  49.735  1.00  0.00     0.077 A 
HETATM   20  C   UNL     1      25.374  48.078  49.545  1.00  0.00     0.143 A 
HETATM   21  F   UNL     1      25.347  49.381  49.225  1.00  0.00    -0.204 F 
HETATM   22  C   UNL     1      26.600  47.444  49.696  1.00  0.00     0.047 A 
HETATM   23  C   UNL     1      26.627  46.093  50.031  1.00  0.00     0.040 A 
HETATM   24  C   UNL     1      25.435  45.382  50.209  1.00  0.00     0.070 A 
HETATM   25  C   UNL     1      24.206  46.036  50.067  1.00  0.00     0.069 A 
BRANCH  24  26
HETATM   26  O   UNL     1      25.610  44.061  50.522  1.00  0.00    -0.356 OA
HETATM   27  C   UNL     1      26.922  43.530  50.387  1.00  0.00     0.210 C 
ENDBRANCH  24  26
ENDBRANCH   3  19
TORSDOF 3
ENDMDL
MODEL 4
REMARK VINA RESULT:      -7.6      1.679      2.188
REMARK  3 active torsions:
REMARK  status: ('A' for Active; 'I' for Inactive)
REMARK    1  A    between atoms: C_11  and  N_12 
REMARK       I    between atoms: N_12  and  C_13 
REMARK       I    between atoms: C_13  and  N_14 
REMARK    2  A    between atoms: N_14  and  C_15 
REMARK    3  A    between atoms: C_20  and  O_21 
ROOT
HETATM    1  N   UNL     1      26.683  44.281  52.598  1.00  0.00    -0.338 N 
HETATM    2  C   UNL     1      27.018  44.295  53.943  1.00  0.00     0.321 C 
HETATM    3  N   UNL     1      28.238  44.896  54.145  1.00  0.00    -0.306 N 
HETATM    4  O   UNL     1      26.305  43.797  54.800  1.00  0.00    -0.247 OA
HETATM    5  H   UNL     1      27.146  45.033  52.102  1.00  0.00     0.164 HD
HETATM    6  H   UNL     1      28.725  45.283  53.347  1.00  0.00     0.171 HD
ENDROOT
BRANCH   1   7
HETATM    7  C   UNL     1      25.327  44.005  52.125  1.00  0.00     0.091 C 
HETATM    8  C   UNL     1      25.109  42.807  51.189  1.00  0.00     0.063 C 
HETATM    9  C   UNL     1      25.639  42.977  49.765  1.00  0.00     0.121 C 
HETATM   10  N   UNL     1      25.127  44.289  49.202  1.00  0.00    -0.059 N 
HETATM   11  C   UNL     1      27.162  42.902  49.630  1.00  0.00     0.046 C 
HETATM   12  C   UNL     1      25.040  41.870  48.871  1.00  0.00     0.046 C 
HETATM   13  C   UNL     1      25.170  45.548  50.040  1.00  0.00     0.121 C 
HETATM   14  H   UNL     1      24.144  44.133  48.934  1.00  0.00     0.279 HD
HETATM   15  H   UNL     1      25.605  44.467  48.305  1.00  0.00     0.279 HD
HETATM   16  C   UNL     1      26.559  46.189  49.958  1.00  0.00     0.046 C 
HETATM   17  C   UNL     1      24.171  46.526  49.385  1.00  0.00     0.046 C 
HETATM   18  C   UNL     1      24.708  45.253  51.481  1.00  0.00     0.063 C 
ENDBRANCH   1   7
BRANCH   3  19
HETATM   19  C   UNL     1      28.895  45.123  55.380  1.00  0.00     0.077 A 
HETATM   20  C   UNL     1      28.364  46.133  56.195  1.00  0.00     0.143 A 
HETATM   21  F   UNL     1      27.292  46.821  55.772  1.00  0.00    -0.204 F 
HETATM   22  C   UNL     1      28.911  46.429  57.436  1.00  0.00     0.047 A 
HETATM   23  C   UNL     1      30.022  45.713  57.874  1.00  0.00     0.040 A 
HETATM   24  C   UNL     1      30.582  44.711  57.073  1.00  0.00     0.070 A 
HETATM   25  C   UNL     1      30.012  44.414  55.830  1.00  0.00     0.069 A 
BRANCH  24  26
HETATM   26  O   UNL     1      31.676  44.100  57.622  1.00  0.00    -0.356 OA
HETATM   27  C   UNL     1      32.040  42.828  57.098  1.00  0.00     0.210 C 
ENDBRANCH  24  26
ENDBRANCH   3  19
TORSDOF 3
ENDMDL
MODEL 5
REMARK VINA RESULT:      -7.4      4.730      7.682
REMARK  3 active torsions:
REMARK  status: ('A' for Active; 'I' for Inactive)
REMARK    1  A    between atoms: C_11  and  N_12 
REMARK       I    between atoms: N_12  and  C_13 
REMARK       I    between atoms: C_13  and  N_14 
REMARK    2  A    between atoms: N_14  and  C_15 
REMARK    3  A    between atoms: C_20  and  O_21 
ROOT
HETATM    1  N   UNL     1      22.545  49.068  49.550  1.00  0.00    -0.338 N 
HETATM    2  C   UNL     1      23.769  48.417  49.525  1.00  0.00     0.321 C 
HETATM    3  N   UNL     1      23.829  47.434  50.484  1.00  0.00    -0.306 N 
HETATM    4  O   UNL     1      24.662  48.734  48.755  1.00  0.00    -0.247 OA
HETATM    5  H   UNL     1      21.826  48.469  49.936  1.00  0.00     0.164 HD
HETATM    6  H   UNL     1      23.009  47.262  51.051  1.00  0.00     0.171 HD
ENDROOT
BRANCH   1   7
HETATM    7  C   UNL     1      22.083  49.923  48.457  1.00  0.00     0.091 C 
HETATM    8  C   UNL     1      21.206  51.136  48.798  1.00  0.00     0.063 C 
HETATM    9  C   UNL     1      19.776  50.815  49.236  1.00  0.00     0.121 C 
HETATM   10  N   UNL     1      19.149  49.878  48.222  1.00  0.00    -0.059 N 
HETATM   11  C   UNL     1      19.650  50.232  50.646  1.00  0.00     0.046 C 
HETATM   12  C   UNL     1      18.936  52.109  49.194  1.00  0.00     0.046 C 
HETATM   13  C   UNL     1      19.925  48.689  47.699  1.00  0.00     0.121 C 
HETATM   14  H   UNL     1      18.886  50.454  47.410  1.00  0.00     0.279 HD
HETATM   15  H   UNL     1      18.246  49.550  48.598  1.00  0.00     0.279 HD
HETATM   16  C   UNL     1      19.815  47.515  48.679  1.00  0.00     0.046 C 
HETATM   17  C   UNL     1      19.220  48.266  46.392  1.00  0.00     0.046 C 
HETATM   18  C   UNL     1      21.377  49.092  47.376  1.00  0.00     0.063 C 
ENDBRANCH   1   7
BRANCH   3  19
HETATM   19  C   UNL     1      24.899  46.542  50.739  1.00  0.00     0.077 A 
HETATM   20  C   UNL     1      25.465  46.593  52.021  1.00  0.00     0.143 A 
HETATM   21  F   UNL     1      24.981  47.468  52.917  1.00  0.00    -0.204 F 
HETATM   22  C   UNL     1      26.504  45.750  52.392  1.00  0.00     0.047 A 
HETATM   23  C   UNL     1      27.004  44.842  51.463  1.00  0.00     0.040 A 
HETATM   24  C   UNL     1      26.469  44.782  50.171  1.00  0.00     0.070 A 
HETATM   25  C   UNL     1      25.412  45.628  49.814  1.00  0.00     0.069 A 
BRANCH  24  26
HETATM   26  O   UNL     1      27.064  43.854  49.359  1.00  0.00    -0.356 OA
HETATM   27  C   UNL     1      26.480  42.558  49.318  1.00  0.00     0.210 C 
ENDBRANCH  24  26
ENDBRANCH   3  19
TORSDOF 3
ENDMDL
MODEL 6
REMARK VINA RESULT:      -7.4      6.416      9.310
REMARK  3 active torsions:
REMARK  status: ('A' for Active; 'I' for Inactive)
REMARK    1  A    between atoms: C_11  and  N_12 
REMARK       I    between atoms: N_12  and  C_13 
REMARK       I    between atoms: C_13  and  N_14 
REMARK    2  A    between atoms: N_14  and  C_15 
REMARK    3  A    between atoms: C_20  and  O_21 
ROOT
HETATM    1  N   UNL     1      20.540  49.675  48.778  1.00  0.00    -0.338 N 
HETATM    2  C   UNL     1      21.654  48.857  48.890  1.00  0.00     0.321 C 
HETATM    3  N   UNL     1      22.813  49.596  48.910  1.00  0.00    -0.306 N 
HETATM    4  O   UNL     1      21.569  47.639  48.929  1.00  0.00    -0.247 OA
HETATM    5  H   UNL     1      20.734  50.601  49.140  1.00  0.00     0.164 HD
HETATM    6  H   UNL     1      22.743  50.605  48.886  1.00  0.00     0.171 HD
ENDROOT
BRANCH   1   7
HETATM    7  C   UNL     1      19.183  49.203  49.053  1.00  0.00     0.091 C 
HETATM    8  C   UNL     1      18.325  48.720  47.874  1.00  0.00     0.063 C 
HETATM    9  C   UNL     1      17.821  49.815  46.932  1.00  0.00     0.121 C 
HETATM   10  N   UNL     1      17.166  50.909  47.754  1.00  0.00    -0.059 N 
HETATM   11  C   UNL     1      18.887  50.412  46.010  1.00  0.00     0.046 C 
HETATM   12  C   UNL     1      16.708  49.233  46.036  1.00  0.00     0.046 C 
HETATM   13  C   UNL     1      17.833  51.423  49.011  1.00  0.00     0.121 C 
HETATM   14  H   UNL     1      16.234  50.560  48.021  1.00  0.00     0.279 HD
HETATM   15  H   UNL     1      16.964  51.706  47.131  1.00  0.00     0.279 HD
HETATM   16  C   UNL     1      18.884  52.480  48.657  1.00  0.00     0.046 C 
HETATM   17  C   UNL     1      16.723  52.129  49.819  1.00  0.00     0.046 C 
HETATM   18  C   UNL     1      18.388  50.251  49.844  1.00  0.00     0.063 C 
ENDBRANCH   1   7
BRANCH   3  19
HETATM   19  C   UNL     1      24.139  49.117  49.045  1.00  0.00     0.077 A 
HETATM   20  C   UNL     1      25.136  49.835  48.369  1.00  0.00     0.143 A 
HETATM   21  F   UNL     1      24.792  50.909  47.641  1.00  0.00    -0.204 F 
HETATM   22  C   UNL     1      26.474  49.471  48.447  1.00  0.00     0.047 A 
HETATM   23  C   UNL     1      26.830  48.359  49.204  1.00  0.00     0.040 A 
HETATM   24  C   UNL     1      25.853  47.614  49.875  1.00  0.00     0.070 A 
HETATM   25  C   UNL     1      24.509  48.000  49.799  1.00  0.00     0.069 A 
BRANCH  24  26
HETATM   26  O   UNL     1      26.342  46.541  50.569  1.00  0.00    -0.356 OA
HETATM   27  C   UNL     1      26.955  45.503  49.813  1.00  0.00     0.210 C 
ENDBRANCH  24  26
ENDBRANCH   3  19
TORSDOF 3
ENDMDL
MODEL 7
REMARK VINA RESULT:      -7.3      5.469      8.683
REMARK  3 active torsions:
REMARK  status: ('A' for Active; 'I' for Inactive)
REMARK    1  A    between atoms: C_11  and  N_12 
REMARK       I    between atoms: N_12  and  C_13 
REMARK       I    between atoms: C_13  and  N_14 
REMARK    2  A    between atoms: N_14  and  C_15 
REMARK    3  A    between atoms: C_20  and  O_21 
ROOT
HETATM    1  N   UNL     1      21.350  48.444  48.419  1.00  0.00    -0.338 N 
HETATM    2  C   UNL     1      22.123  47.331  48.124  1.00  0.00     0.321 C 
HETATM    3  N   UNL     1      22.677  46.794  49.262  1.00  0.00    -0.306 N 
HETATM    4  O   UNL     1      22.288  46.934  46.981  1.00  0.00    -0.247 OA
HETATM    5  H   UNL     1      21.009  48.404  49.371  1.00  0.00     0.164 HD
HETATM    6  H   UNL     1      22.447  47.212  50.154  1.00  0.00     0.171 HD
ENDROOT
BRANCH   1   7
HETATM    7  C   UNL     1      20.396  49.017  47.469  1.00  0.00     0.091 C 
HETATM    8  C   UNL     1      20.179  50.537  47.479  1.00  0.00     0.063 C 
HETATM    9  C   UNL     1      19.409  51.086  48.681  1.00  0.00     0.121 C 
HETATM   10  N   UNL     1      18.131  50.288  48.854  1.00  0.00    -0.059 N 
HETATM   11  C   UNL     1      20.197  51.114  49.993  1.00  0.00     0.046 C 
HETATM   12  C   UNL     1      18.967  52.533  48.376  1.00  0.00     0.046 C 
HETATM   13  C   UNL     1      18.155  48.778  48.764  1.00  0.00     0.121 C 
HETATM   14  H   UNL     1      17.471  50.627  48.139  1.00  0.00     0.279 HD
HETATM   15  H   UNL     1      17.694  50.563  49.747  1.00  0.00     0.279 HD
HETATM   16  C   UNL     1      18.576  48.175  50.109  1.00  0.00     0.046 C 
HETATM   17  C   UNL     1      16.696  48.347  48.501  1.00  0.00     0.046 C 
HETATM   18  C   UNL     1      19.031  48.323  47.580  1.00  0.00     0.063 C 
ENDBRANCH   1   7
BRANCH   3  19
HETATM   19  C   UNL     1      23.494  45.642  49.363  1.00  0.00     0.077 A 
HETATM   20  C   UNL     1      22.833  44.408  49.430  1.00  0.00     0.143 A 
HETATM   21  F   UNL     1      21.491  44.381  49.403  1.00  0.00    -0.204 F 
HETATM   22  C   UNL     1      23.532  43.211  49.509  1.00  0.00     0.047 A 
HETATM   23  C   UNL     1      24.923  43.240  49.536  1.00  0.00     0.040 A 
HETATM   24  C   UNL     1      25.609  44.459  49.487  1.00  0.00     0.070 A 
HETATM   25  C   UNL     1      24.892  45.658  49.394  1.00  0.00     0.069 A 
BRANCH  24  26
HETATM   26  O   UNL     1      26.971  44.341  49.534  1.00  0.00    -0.356 OA
HETATM   27  C   UNL     1      27.560  44.119  50.809  1.00  0.00     0.210 C 
ENDBRANCH  24  26
ENDBRANCH   3  19
TORSDOF 3
ENDMDL
MODEL 8
REMARK VINA RESULT:      -7.1      2.981      4.064
REMARK  3 active torsions:
REMARK  status: ('A' for Active; 'I' for Inactive)
REMARK    1  A    between atoms: C_11  and  N_12 
REMARK       I    between atoms: N_12  and  C_13 
REMARK       I    between atoms: C_13  and  N_14 
REMARK    2  A    between atoms: N_14  and  C_15 
REMARK    3  A    between atoms: C_20  and  O_21 
ROOT
HETATM    1  N   UNL     1      27.308  41.798  50.367  1.00  0.00    -0.338 N 
HETATM    2  C   UNL     1      27.614  41.953  51.711  1.00  0.00     0.321 C 
HETATM    3  N   UNL     1      28.400  43.062  51.917  1.00  0.00    -0.306 N 
HETATM    4  O   UNL     1      27.238  41.163  52.563  1.00  0.00    -0.247 OA
HETATM    5  H   UNL     1      27.347  42.686  49.883  1.00  0.00     0.164 HD
HETATM    6  H   UNL     1      28.630  43.645  51.122  1.00  0.00     0.171 HD
ENDROOT
BRANCH   1   7
HETATM    7  C   UNL     1      26.243  40.911  49.899  1.00  0.00     0.091 C 
HETATM    8  C   UNL     1      26.346  39.413  50.218  1.00  0.00     0.063 C 
HETATM    9  C   UNL     1      27.415  38.644  49.440  1.00  0.00     0.121 C 
HETATM   10  N   UNL     1      27.258  38.941  47.961  1.00  0.00    -0.059 N 
HETATM   11  C   UNL     1      28.855  38.915  49.884  1.00  0.00     0.046 C 
HETATM   12  C   UNL     1      27.160  37.130  49.597  1.00  0.00     0.046 C 
HETATM   13  C   UNL     1      27.038  40.362  47.486  1.00  0.00     0.121 C 
HETATM   14  H   UNL     1      26.459  38.381  47.630  1.00  0.00     0.279 HD
HETATM   15  H   UNL     1      28.067  38.543  47.461  1.00  0.00     0.279 HD
HETATM   16  C   UNL     1      28.380  41.093  47.371  1.00  0.00     0.046 C 
HETATM   17  C   UNL     1      26.453  40.245  46.063  1.00  0.00     0.046 C 
HETATM   18  C   UNL     1      26.017  41.080  48.390  1.00  0.00     0.063 C 
ENDBRANCH   1   7
BRANCH   3  19
HETATM   19  C   UNL     1      28.885  43.560  53.150  1.00  0.00     0.077 A 
HETATM   20  C   UNL     1      30.048  42.962  53.654  1.00  0.00     0.143 A 
HETATM   21  F   UNL     1      30.627  41.968  52.962  1.00  0.00    -0.204 F 
HETATM   22  C   UNL     1      30.627  43.384  54.844  1.00  0.00     0.047 A 
HETATM   23  C   UNL     1      30.027  44.416  55.560  1.00  0.00     0.040 A 
HETATM   24  C   UNL     1      28.855  45.019  55.089  1.00  0.00     0.070 A 
HETATM   25  C   UNL     1      28.290  44.594  53.880  1.00  0.00     0.069 A 
BRANCH  24  26
HETATM   26  O   UNL     1      28.368  46.009  55.898  1.00  0.00    -0.356 OA
HETATM   27  C   UNL     1      27.683  47.085  55.268  1.00  0.00     0.210 C 
ENDBRANCH  24  26
ENDBRANCH   3  19
TORSDOF 3
ENDMDL
MODEL 9
REMARK VINA RESULT:      -7.0     15.990     17.435
REMARK  3 active torsions:
REMARK  status: ('A' for Active; 'I' for Inactive)
REMARK    1  A    between atoms: C_11  and  N_12 
REMARK       I    between atoms: N_12  and  C_13 
REMARK       I    between atoms: C_13  and  N_14 
REMARK    2  A    between atoms: N_14  and  C_15 
REMARK    3  A    between atoms: C_20  and  O_21 
ROOT
HETATM    1  N   UNL     1      38.004  46.628  64.288  1.00  0.00    -0.338 N 
HETATM    2  C   UNL     1      37.725  45.298  64.010  1.00  0.00     0.321 C 
HETATM    3  N   UNL     1      38.814  44.499  64.264  1.00  0.00    -0.306 N 
HETATM    4  O   UNL     1      36.646  44.935  63.568  1.00  0.00    -0.247 OA
HETATM    5  H   UNL     1      38.742  46.706  64.976  1.00  0.00     0.164 HD
HETATM    6  H   UNL     1      39.648  44.926  64.645  1.00  0.00     0.171 HD
ENDROOT
BRANCH   1   7
HETATM    7  C   UNL     1      36.958  47.642  64.420  1.00  0.00     0.091 C 
HETATM    8  C   UNL     1      37.380  49.112  64.566  1.00  0.00     0.063 C 
HETATM    9  C   UNL     1      38.004  49.489  65.910  1.00  0.00     0.121 C 
HETATM   10  N   UNL     1      37.101  49.002  67.027  1.00  0.00    -0.059 N 
HETATM   11  C   UNL     1      39.431  48.979  66.124  1.00  0.00     0.046 C 
HETATM   12  C   UNL     1      38.039  51.027  66.034  1.00  0.00     0.046 C 
HETATM   13  C   UNL     1      36.511  47.609  66.980  1.00  0.00     0.121 C 
HETATM   14  H   UNL     1      36.315  49.665  67.083  1.00  0.00     0.279 HD
HETATM   15  H   UNL     1      37.596  49.125  67.923  1.00  0.00     0.279 HD
HETATM   16  C   UNL     1      37.524  46.589  67.511  1.00  0.00     0.046 C 
HETATM   17  C   UNL     1      35.315  47.623  67.956  1.00  0.00     0.046 C 
HETATM   18  C   UNL     1      35.996  47.289  65.563  1.00  0.00     0.063 C 
ENDBRANCH   1   7
BRANCH   3  19
HETATM   19  C   UNL     1      38.901  43.091  64.132  1.00  0.00     0.077 A 
HETATM   20  C   UNL     1      38.840  42.345  65.317  1.00  0.00     0.143 A 
HETATM   21  F   UNL     1      38.713  42.987  66.490  1.00  0.00    -0.204 F 
HETATM   22  C   UNL     1      38.893  40.958  65.308  1.00  0.00     0.047 A 
HETATM   23  C   UNL     1      39.024  40.294  64.091  1.00  0.00     0.040 A 
HETATM   24  C   UNL     1      39.104  41.014  62.894  1.00  0.00     0.070 A 
HETATM   25  C   UNL     1      39.035  42.413  62.917  1.00  0.00     0.069 A 
BRANCH  24  26
HETATM   26  O   UNL     1      39.243  40.236  61.778  1.00  0.00    -0.356 OA
HETATM   27  C   UNL     1      39.623  38.880  61.974  1.00  0.00     0.210 C 
ENDBRANCH  24  26
ENDBRANCH   3  19
TORSDOF 3
ENDMDL
MODEL 10
REMARK VINA RESULT:      -6.9      6.277      9.373
REMARK  3 active torsions:
REMARK  status: ('A' for Active; 'I' for Inactive)
REMARK    1  A    between atoms: C_11  and  N_12 
REMARK       I    between atoms: N_12  and  C_13 
REMARK       I    between atoms: C_13  and  N_14 
REMARK    2  A    between atoms: N_14  and  C_15 
REMARK    3  A    between atoms: C_20  and  O_21 
ROOT
HETATM    1  N   UNL     1      21.090  48.397  48.230  1.00  0.00    -0.338 N 
HETATM    2  C   UNL     1      21.751  47.225  47.894  1.00  0.00     0.321 C 
HETATM    3  N   UNL     1      22.212  46.576  49.015  1.00  0.00    -0.306 N 
HETATM    4  O   UNL     1      21.908  46.871  46.736  1.00  0.00    -0.247 OA
HETATM    5  H   UNL     1      20.718  48.346  49.170  1.00  0.00     0.164 HD
HETATM    6  H   UNL     1      22.001  46.971  49.923  1.00  0.00     0.171 HD
ENDROOT
BRANCH   1   7
HETATM    7  C   UNL     1      20.229  49.114  47.289  1.00  0.00     0.091 C 
HETATM    8  C   UNL     1      20.108  50.639  47.425  1.00  0.00     0.063 C 
HETATM    9  C   UNL     1      19.309  51.132  48.632  1.00  0.00     0.121 C 
HETATM   10  N   UNL     1      17.975  50.412  48.667  1.00  0.00    -0.059 N 
HETATM   11  C   UNL     1      20.022  50.993  49.979  1.00  0.00     0.046 C 
HETATM   12  C   UNL     1      18.978  52.628  48.437  1.00  0.00     0.046 C 
HETATM   13  C   UNL     1      17.908  48.917  48.442  1.00  0.00     0.121 C 
HETATM   14  H   UNL     1      17.379  50.856  47.954  1.00  0.00     0.279 HD
HETATM   15  H   UNL     1      17.507  50.637  49.559  1.00  0.00     0.279 HD
HETATM   16  C   UNL     1      18.213  48.172  49.746  1.00  0.00     0.046 C 
HETATM   17  C   UNL     1      16.442  48.611  48.068  1.00  0.00     0.046 C 
HETATM   18  C   UNL     1      18.819  48.508  47.267  1.00  0.00     0.063 C 
ENDBRANCH   1   7
BRANCH   3  19
HETATM   19  C   UNL     1      22.902  45.341  49.075  1.00  0.00     0.077 A 
HETATM   20  C   UNL     1      24.292  45.408  49.246  1.00  0.00     0.143 A 
HETATM   21  F   UNL     1      24.885  46.609  49.335  1.00  0.00    -0.204 F 
HETATM   22  C   UNL     1      25.069  44.261  49.341  1.00  0.00     0.047 A 
HETATM   23  C   UNL     1      24.453  43.016  49.250  1.00  0.00     0.040 A 
HETATM   24  C   UNL     1      23.069  42.921  49.063  1.00  0.00     0.070 A 
HETATM   25  C   UNL     1      22.296  44.085  48.983  1.00  0.00     0.069 A 
BRANCH  24  26
HETATM   26  O   UNL     1      22.600  41.638  48.978  1.00  0.00    -0.356 OA
HETATM   27  C   UNL     1      22.808  40.950  47.751  1.00  0.00     0.210 C 
ENDBRANCH  24  26
ENDBRANCH   3  19
TORSDOF 3
ENDMDL
