MODEL 1
REMARK VINA RESULT:      -8.9      0.000      0.000
REMARK  7 active torsions:
REMARK  status: ('A' for Active; 'I' for Inactive)
REMARK    1  A    between atoms: C_2  and  O_3 
REMARK    2  A    between atoms: O_3  and  C_4 
REMARK    3  A    between atoms: C_4  and  C_5 
REMARK    4  A    between atoms: C_6  and  C_7 
REMARK    5  A    between atoms: C_18  and  S_19 
REMARK    6  A    between atoms: S_19  and  C_20 
REMARK    7  A    between atoms: C_20  and  C_21 
ROOT
HETATM    1  C   UNL     1      24.376  43.055  49.996  1.00  0.00     0.070 C 
HETATM    2  C   UNL     1      25.134  43.877  51.042  1.00  0.00     0.203 C 
HETATM    3  N   UNL     1      26.306  43.147  51.532  1.00  0.00    -0.082 N 
HETATM    4  C   UNL     1      26.846  42.064  50.900  1.00  0.00     0.726 A 
HETATM    5  N   UNL     1      26.258  41.604  49.776  1.00  0.00    -0.192 N 
HETATM    6  N   UNL     1      26.927  43.399  52.696  1.00  0.00    -0.128 NA
HETATM    7  C   UNL     1      27.881  42.460  52.680  1.00  0.00     0.226 A 
HETATM    8  N   UNL     1      27.873  41.629  51.584  1.00  0.00    -0.035 NA
HETATM    9  C   UNL     1      24.983  42.010  49.372  1.00  0.00     0.037 C 
HETATM   10  C   UNL     1      24.393  41.219  48.231  1.00  0.00     0.070 C 
HETATM   11  H   UNL     1      26.613  40.739  49.374  1.00  0.00     0.184 HD
ENDROOT
BRANCH   7  12
HETATM   12  S   UNL     1      28.997  42.318  54.006  1.00  0.00    -0.083 SA
BRANCH  12  13
HETATM   13  C   UNL     1      29.342  44.066  54.342  1.00  0.00     0.123 C 
BRANCH  13  14
HETATM   14  C   UNL     1      30.052  44.234  55.665  1.00  0.00    -0.027 A 
HETATM   15  C   UNL     1      29.812  45.317  56.528  1.00  0.00     0.041 A 
HETATM   16 CL   UNL     1      28.647  46.541  56.165  1.00  0.00    -0.084 Cl
HETATM   17  C   UNL     1      30.523  45.443  57.727  1.00  0.00     0.024 A 
HETATM   18  C   UNL     1      31.487  44.498  58.076  1.00  0.00     0.002 A 
HETATM   19  C   UNL     1      31.742  43.424  57.230  1.00  0.00     0.001 A 
HETATM   20  C   UNL     1      31.033  43.294  56.034  1.00  0.00     0.009 A 
ENDBRANCH  13  14
ENDBRANCH  12  13
ENDBRANCH   7  12
BRANCH   2  21
HETATM   21  C   UNL     1      25.571  45.243  50.505  1.00  0.00    -0.028 A 
HETATM   22  C   UNL     1      26.810  45.371  49.854  1.00  0.00     0.011 A 
HETATM   23  C   UNL     1      27.244  46.613  49.382  1.00  0.00     0.024 A 
HETATM   24  C   UNL     1      26.444  47.740  49.557  1.00  0.00     0.034 A 
HETATM   25 CL   UNL     1      26.983  49.270  48.988  1.00  0.00    -0.084 Cl
HETATM   26  C   UNL     1      25.210  47.634  50.195  1.00  0.00     0.024 A 
HETATM   27  C   UNL     1      24.775  46.393  50.666  1.00  0.00     0.011 A 
ENDBRANCH   2  21
BRANCH   1  28
HETATM   28  C   UNL     1      22.968  43.508  49.837  1.00  0.00     0.293 C 
HETATM   29  O   UNL     1      22.107  43.299  50.679  1.00  0.00    -0.259 OA
BRANCH  28  30
HETATM   30  O   UNL     1      22.742  44.061  48.623  1.00  0.00    -0.318 OA
BRANCH  30  31
HETATM   31  C   UNL     1      21.794  45.140  48.590  1.00  0.00     0.174 C 
HETATM   32  C   UNL     1      22.372  46.342  47.865  1.00  0.00     0.034 C 
ENDBRANCH  30  31
ENDBRANCH  28  30
ENDBRANCH   1  28
TORSDOF 7
ENDMDL
MODEL 2
REMARK VINA RESULT:      -8.7      4.471      8.877
REMARK  7 active torsions:
REMARK  status: ('A' for Active; 'I' for Inactive)
REMARK    1  A    between atoms: C_2  and  O_3 
REMARK    2  A    between atoms: O_3  and  C_4 
REMARK    3  A    between atoms: C_4  and  C_5 
REMARK    4  A    between atoms: C_6  and  C_7 
REMARK    5  A    between atoms: C_18  and  S_19 
REMARK    6  A    between atoms: S_19  and  C_20 
REMARK    7  A    between atoms: C_20  and  C_21 
ROOT
HETATM    1  C   UNL     1      25.596  45.425  53.124  1.00  0.00     0.070 C 
HETATM    2  C   UNL     1      24.801  44.967  51.898  1.00  0.00     0.203 C 
HETATM    3  N   UNL     1      24.562  46.085  50.982  1.00  0.00    -0.082 N 
HETATM    4  C   UNL     1      25.245  47.267  51.030  1.00  0.00     0.726 A 
HETATM    5  N   UNL     1      26.174  47.445  51.991  1.00  0.00    -0.192 N 
HETATM    6  N   UNL     1      23.591  46.114  50.054  1.00  0.00    -0.128 NA
HETATM    7  C   UNL     1      23.780  47.331  49.530  1.00  0.00     0.226 A 
HETATM    8  N   UNL     1      24.799  48.065  50.093  1.00  0.00    -0.035 NA
HETATM    9  C   UNL     1      26.289  46.595  53.095  1.00  0.00     0.037 C 
HETATM   10  C   UNL     1      27.217  47.081  54.181  1.00  0.00     0.070 C 
HETATM   11  H   UNL     1      26.602  48.364  52.073  1.00  0.00     0.184 HD
ENDROOT
BRANCH   7  12
HETATM   12  S   UNL     1      22.747  47.911  48.257  1.00  0.00    -0.083 SA
BRANCH  12  13
HETATM   13  C   UNL     1      21.138  47.881  49.091  1.00  0.00     0.123 C 
BRANCH  13  14
HETATM   14  C   UNL     1      20.550  49.270  49.185  1.00  0.00    -0.027 A 
HETATM   15  C   UNL     1      19.447  49.578  49.998  1.00  0.00     0.041 A 
HETATM   16 CL   UNL     1      18.683  48.395  51.000  1.00  0.00    -0.084 Cl
HETATM   17  C   UNL     1      18.920  50.875  50.020  1.00  0.00     0.024 A 
HETATM   18  C   UNL     1      19.479  51.876  49.227  1.00  0.00     0.002 A 
HETATM   19  C   UNL     1      20.567  51.585  48.411  1.00  0.00     0.001 A 
HETATM   20  C   UNL     1      21.097  50.293  48.388  1.00  0.00     0.009 A 
ENDBRANCH  13  14
ENDBRANCH  12  13
ENDBRANCH   7  12
BRANCH   2  21
HETATM   21  C   UNL     1      25.496  43.830  51.144  1.00  0.00    -0.028 A 
HETATM   22  C   UNL     1      24.794  42.644  50.870  1.00  0.00     0.011 A 
HETATM   23  C   UNL     1      25.417  41.581  50.209  1.00  0.00     0.024 A 
HETATM   24  C   UNL     1      26.748  41.693  49.816  1.00  0.00     0.034 A 
HETATM   25 CL   UNL     1      27.518  40.381  49.015  1.00  0.00    -0.084 Cl
HETATM   26  C   UNL     1      27.461  42.861  50.073  1.00  0.00     0.024 A 
HETATM   27  C   UNL     1      26.839  43.925  50.733  1.00  0.00     0.011 A 
ENDBRANCH   2  21
BRANCH   1  28
HETATM   28  C   UNL     1      25.444  44.493  54.273  1.00  0.00     0.293 C 
HETATM   29  O   UNL     1      24.354  44.167  54.720  1.00  0.00    -0.259 OA
BRANCH  28  30
HETATM   30  O   UNL     1      26.635  44.155  54.819  1.00  0.00    -0.318 OA
BRANCH  30  31
HETATM   31  C   UNL     1      27.295  43.020  54.236  1.00  0.00     0.174 C 
HETATM   32  C   UNL     1      28.773  43.304  54.032  1.00  0.00     0.034 C 
ENDBRANCH  30  31
ENDBRANCH  28  30
ENDBRANCH   1  28
TORSDOF 7
ENDMDL
MODEL 3
REMARK VINA RESULT:      -8.5      7.085     10.849
REMARK  7 active torsions:
REMARK  status: ('A' for Active; 'I' for Inactive)
REMARK    1  A    between atoms: C_2  and  O_3 
REMARK    2  A    between atoms: O_3  and  C_4 
REMARK    3  A    between atoms: C_4  and  C_5 
REMARK    4  A    between atoms: C_6  and  C_7 
REMARK    5  A    between atoms: C_18  and  S_19 
REMARK    6  A    between atoms: S_19  and  C_20 
REMARK    7  A    between atoms: C_20  and  C_21 
ROOT
HETATM    1  C   UNL     1      23.060  48.625  48.640  1.00  0.00     0.070 C 
HETATM    2  C   UNL     1      21.839  48.737  47.723  1.00  0.00     0.203 C 
HETATM    3  N   UNL     1      21.295  47.413  47.412  1.00  0.00    -0.082 N 
HETATM    4  C   UNL     1      21.600  46.282  48.114  1.00  0.00     0.726 A 
HETATM    5  N   UNL     1      22.478  46.364  49.134  1.00  0.00    -0.192 N 
HETATM    6  N   UNL     1      20.510  47.141  46.356  1.00  0.00    -0.128 NA
HETATM    7  C   UNL     1      20.326  45.825  46.512  1.00  0.00     0.226 A 
HETATM    8  N   UNL     1      20.968  45.262  47.591  1.00  0.00    -0.035 NA
HETATM    9  C   UNL     1      23.288  47.483  49.344  1.00  0.00     0.037 C 
HETATM   10  C   UNL     1      24.370  47.304  50.380  1.00  0.00     0.070 C 
HETATM   11  H   UNL     1      22.768  45.497  49.582  1.00  0.00     0.184 HD
ENDROOT
BRANCH   7  12
HETATM   12  S   UNL     1      19.369  44.930  45.368  1.00  0.00    -0.083 SA
BRANCH  12  13
HETATM   13  C   UNL     1      17.835  44.716  46.311  1.00  0.00     0.123 C 
BRANCH  13  14
HETATM   14  C   UNL     1      17.368  46.031  46.892  1.00  0.00    -0.027 A 
HETATM   15  C   UNL     1      16.895  47.090  46.099  1.00  0.00     0.041 A 
HETATM   16 CL   UNL     1      16.772  46.968  44.380  1.00  0.00    -0.084 Cl
HETATM   17  C   UNL     1      16.508  48.300  46.687  1.00  0.00     0.024 A 
HETATM   18  C   UNL     1      16.594  48.473  48.068  1.00  0.00     0.002 A 
HETATM   19  C   UNL     1      17.066  47.436  48.866  1.00  0.00     0.001 A 
HETATM   20  C   UNL     1      17.452  46.226  48.284  1.00  0.00     0.009 A 
ENDBRANCH  13  14
ENDBRANCH  12  13
ENDBRANCH   7  12
BRANCH   2  21
HETATM   21  C   UNL     1      20.737  49.613  48.325  1.00  0.00    -0.028 A 
HETATM   22  C   UNL     1      20.260  50.724  47.608  1.00  0.00     0.011 A 
HETATM   23  C   UNL     1      19.275  51.555  48.150  1.00  0.00     0.024 A 
HETATM   24  C   UNL     1      18.758  51.284  49.414  1.00  0.00     0.034 A 
HETATM   25 CL   UNL     1      17.556  52.314  50.086  1.00  0.00    -0.084 Cl
HETATM   26  C   UNL     1      19.213  50.186  50.140  1.00  0.00     0.024 A 
HETATM   27  C   UNL     1      20.196  49.354  49.598  1.00  0.00     0.011 A 
ENDBRANCH   2  21
BRANCH   1  28
HETATM   28  C   UNL     1      23.917  49.840  48.587  1.00  0.00     0.293 C 
HETATM   29  O   UNL     1      23.722  50.818  49.294  1.00  0.00    -0.259 OA
BRANCH  28  30
HETATM   30  O   UNL     1      24.841  49.772  47.601  1.00  0.00    -0.318 OA
BRANCH  30  31
HETATM   31  C   UNL     1      26.151  50.260  47.932  1.00  0.00     0.174 C 
HETATM   32  C   UNL     1      26.941  49.209  48.692  1.00  0.00     0.034 C 
ENDBRANCH  30  31
ENDBRANCH  28  30
ENDBRANCH   1  28
TORSDOF 7
ENDMDL
MODEL 4
REMARK VINA RESULT:      -8.0      3.910      6.444
REMARK  7 active torsions:
REMARK  status: ('A' for Active; 'I' for Inactive)
REMARK    1  A    between atoms: C_2  and  O_3 
REMARK    2  A    between atoms: O_3  and  C_4 
REMARK    3  A    between atoms: C_4  and  C_5 
REMARK    4  A    between atoms: C_6  and  C_7 
REMARK    5  A    between atoms: C_18  and  S_19 
REMARK    6  A    between atoms: S_19  and  C_20 
REMARK    7  A    between atoms: C_20  and  C_21 
ROOT
HETATM    1  C   UNL     1      26.267  45.306  52.815  1.00  0.00     0.070 C 
HETATM    2  C   UNL     1      26.691  45.367  51.345  1.00  0.00     0.203 C 
HETATM    3  N   UNL     1      26.450  44.085  50.678  1.00  0.00    -0.082 N 
HETATM    4  C   UNL     1      25.644  43.105  51.182  1.00  0.00     0.726 A 
HETATM    5  N   UNL     1      25.054  43.297  52.379  1.00  0.00    -0.192 N 
HETATM    6  N   UNL     1      27.059  43.691  49.547  1.00  0.00    -0.128 NA
HETATM    7  C   UNL     1      26.527  42.473  49.387  1.00  0.00     0.226 A 
HETATM    8  N   UNL     1      25.641  42.082  50.364  1.00  0.00    -0.035 NA
HETATM    9  C   UNL     1      25.429  44.325  53.248  1.00  0.00     0.037 C 
HETATM   10  C   UNL     1      24.832  44.242  54.631  1.00  0.00     0.070 C 
HETATM   11  H   UNL     1      24.538  42.519  52.784  1.00  0.00     0.184 HD
ENDROOT
BRANCH   7  12
HETATM   12  S   UNL     1      26.999  41.477  48.042  1.00  0.00    -0.083 SA
BRANCH  12  13
HETATM   13  C   UNL     1      26.702  39.825  48.728  1.00  0.00     0.123 C 
BRANCH  13  14
HETATM   14  C   UNL     1      27.972  39.242  49.305  1.00  0.00    -0.027 A 
HETATM   15  C   UNL     1      28.819  38.390  48.578  1.00  0.00     0.041 A 
HETATM   16 CL   UNL     1      28.501  37.959  46.935  1.00  0.00    -0.084 Cl
HETATM   17  C   UNL     1      29.965  37.850  49.173  1.00  0.00     0.024 A 
HETATM   18  C   UNL     1      30.276  38.145  50.500  1.00  0.00     0.002 A 
HETATM   19  C   UNL     1      29.443  38.981  51.236  1.00  0.00     0.001 A 
HETATM   20  C   UNL     1      28.300  39.524  50.645  1.00  0.00     0.009 A 
ENDBRANCH  13  14
ENDBRANCH  12  13
ENDBRANCH   7  12
BRANCH   2  21
HETATM   21  C   UNL     1      25.975  46.483  50.578  1.00  0.00    -0.028 A 
HETATM   22  C   UNL     1      26.726  47.512  49.984  1.00  0.00     0.011 A 
HETATM   23  C   UNL     1      26.094  48.557  49.304  1.00  0.00     0.024 A 
HETATM   24  C   UNL     1      24.704  48.584  49.213  1.00  0.00     0.034 A 
HETATM   25 CL   UNL     1      23.925  49.877  48.388  1.00  0.00    -0.084 Cl
HETATM   26  C   UNL     1      23.941  47.573  49.791  1.00  0.00     0.024 A 
HETATM   27  C   UNL     1      24.573  46.527  50.469  1.00  0.00     0.011 A 
ENDBRANCH   2  21
BRANCH   1  28
HETATM   28  C   UNL     1      26.918  46.364  53.633  1.00  0.00     0.293 C 
HETATM   29  O   UNL     1      26.398  47.450  53.845  1.00  0.00    -0.259 OA
BRANCH  28  30
HETATM   30  O   UNL     1      28.175  46.025  54.002  1.00  0.00    -0.318 OA
BRANCH  30  31
HETATM   31  C   UNL     1      28.294  45.296  55.234  1.00  0.00     0.174 C 
HETATM   32  C   UNL     1      28.548  46.239  56.396  1.00  0.00     0.034 C 
ENDBRANCH  30  31
ENDBRANCH  28  30
ENDBRANCH   1  28
TORSDOF 7
ENDMDL
MODEL 5
REMARK VINA RESULT:      -7.9      4.298      6.234
REMARK  7 active torsions:
REMARK  status: ('A' for Active; 'I' for Inactive)
REMARK    1  A    between atoms: C_2  and  O_3 
REMARK    2  A    between atoms: O_3  and  C_4 
REMARK    3  A    between atoms: C_4  and  C_5 
REMARK    4  A    between atoms: C_6  and  C_7 
REMARK    5  A    between atoms: C_18  and  S_19 
REMARK    6  A    between atoms: S_19  and  C_20 
REMARK    7  A    between atoms: C_20  and  C_21 
ROOT
HETATM    1  C   UNL     1      27.788  38.687  49.587  1.00  0.00     0.070 C 
HETATM    2  C   UNL     1      26.773  39.777  49.232  1.00  0.00     0.203 C 
HETATM    3  N   UNL     1      26.918  40.935  50.117  1.00  0.00    -0.082 N 
HETATM    4  C   UNL     1      28.015  41.163  50.897  1.00  0.00     0.726 A 
HETATM    5  N   UNL     1      29.018  40.262  50.892  1.00  0.00    -0.192 N 
HETATM    6  N   UNL     1      25.961  41.853  50.331  1.00  0.00    -0.128 NA
HETATM    7  C   UNL     1      26.571  42.651  51.216  1.00  0.00     0.226 A 
HETATM    8  N   UNL     1      27.842  42.268  51.578  1.00  0.00    -0.035 NA
HETATM    9  C   UNL     1      28.883  38.986  50.337  1.00  0.00     0.037 C 
HETATM   10  C   UNL     1      30.018  38.038  50.632  1.00  0.00     0.070 C 
HETATM   11  H   UNL     1      29.782  40.397  51.551  1.00  0.00     0.184 HD
ENDROOT
BRANCH   7  12
HETATM   12  S   UNL     1      25.746  44.036  51.866  1.00  0.00    -0.083 SA
BRANCH  12  13
HETATM   13  C   UNL     1      26.230  43.926  53.610  1.00  0.00     0.123 C 
BRANCH  13  14
HETATM   14  C   UNL     1      26.785  45.243  54.103  1.00  0.00    -0.027 A 
HETATM   15  C   UNL     1      28.096  45.384  54.588  1.00  0.00     0.041 A 
HETATM   16 CL   UNL     1      29.209  44.063  54.630  1.00  0.00    -0.084 Cl
HETATM   17  C   UNL     1      28.548  46.620  55.065  1.00  0.00     0.024 A 
HETATM   18  C   UNL     1      27.699  47.726  55.073  1.00  0.00     0.002 A 
HETATM   19  C   UNL     1      26.396  47.601  54.603  1.00  0.00     0.001 A 
HETATM   20  C   UNL     1      25.942  46.370  54.124  1.00  0.00     0.009 A 
ENDBRANCH  13  14
ENDBRANCH  12  13
ENDBRANCH   7  12
BRANCH   2  21
HETATM   21  C   UNL     1      26.892  40.230  47.774  1.00  0.00    -0.028 A 
HETATM   22  C   UNL     1      25.751  40.243  46.953  1.00  0.00     0.011 A 
HETATM   23  C   UNL     1      25.840  40.625  45.612  1.00  0.00     0.024 A 
HETATM   24  C   UNL     1      27.071  40.998  45.077  1.00  0.00     0.034 A 
HETATM   25 CL   UNL     1      27.184  41.455  43.423  1.00  0.00    -0.084 Cl
HETATM   26  C   UNL     1      28.213  40.997  45.874  1.00  0.00     0.024 A 
HETATM   27  C   UNL     1      28.125  40.616  47.216  1.00  0.00     0.011 A 
ENDBRANCH   2  21
BRANCH   1  28
HETATM   28  C   UNL     1      27.380  37.351  49.078  1.00  0.00     0.293 C 
HETATM   29  O   UNL     1      26.685  36.580  49.725  1.00  0.00    -0.259 OA
BRANCH  28  30
HETATM   30  O   UNL     1      27.958  37.056  47.890  1.00  0.00    -0.318 OA
BRANCH  30  31
HETATM   31  C   UNL     1      27.068  36.623  46.849  1.00  0.00     0.174 C 
HETATM   32  C   UNL     1      27.836  36.335  45.570  1.00  0.00     0.034 C 
ENDBRANCH  30  31
ENDBRANCH  28  30
ENDBRANCH   1  28
TORSDOF 7
ENDMDL
MODEL 6
REMARK VINA RESULT:      -7.7      7.464     10.628
REMARK  7 active torsions:
REMARK  status: ('A' for Active; 'I' for Inactive)
REMARK    1  A    between atoms: C_2  and  O_3 
REMARK    2  A    between atoms: O_3  and  C_4 
REMARK    3  A    between atoms: C_4  and  C_5 
REMARK    4  A    between atoms: C_6  and  C_7 
REMARK    5  A    between atoms: C_18  and  S_19 
REMARK    6  A    between atoms: S_19  and  C_20 
REMARK    7  A    between atoms: C_20  and  C_21 
ROOT
HETATM    1  C   UNL     1      16.870  51.135  47.663  1.00  0.00     0.070 C 
HETATM    2  C   UNL     1      18.166  50.465  47.199  1.00  0.00     0.203 C 
HETATM    3  N   UNL     1      19.247  50.696  48.160  1.00  0.00    -0.082 N 
HETATM    4  C   UNL     1      19.048  51.130  49.439  1.00  0.00     0.726 A 
HETATM    5  N   UNL     1      17.792  51.399  49.849  1.00  0.00    -0.192 N 
HETATM    6  N   UNL     1      20.556  50.597  47.871  1.00  0.00    -0.128 NA
HETATM    7  C   UNL     1      21.099  50.930  49.048  1.00  0.00     0.226 A 
HETATM    8  N   UNL     1      20.204  51.250  50.042  1.00  0.00    -0.035 NA
HETATM    9  C   UNL     1      16.717  51.510  48.962  1.00  0.00     0.037 C 
HETATM   10  C   UNL     1      15.444  52.047  49.566  1.00  0.00     0.070 C 
HETATM   11  H   UNL     1      17.671  51.814  50.770  1.00  0.00     0.184 HD
ENDROOT
BRANCH   7  12
HETATM   12  S   UNL     1      22.827  50.984  49.235  1.00  0.00    -0.083 SA
BRANCH  12  13
HETATM   13  C   UNL     1      23.264  49.278  48.803  1.00  0.00     0.123 C 
BRANCH  13  14
HETATM   14  C   UNL     1      24.754  49.053  48.918  1.00  0.00    -0.027 A 
HETATM   15  C   UNL     1      25.310  47.965  49.611  1.00  0.00     0.041 A 
HETATM   16 CL   UNL     1      24.331  46.757  50.366  1.00  0.00    -0.084 Cl
HETATM   17  C   UNL     1      26.699  47.824  49.716  1.00  0.00     0.024 A 
HETATM   18  C   UNL     1      27.549  48.769  49.142  1.00  0.00     0.002 A 
HETATM   19  C   UNL     1      27.014  49.856  48.459  1.00  0.00     0.001 A 
HETATM   20  C   UNL     1      25.629  49.999  48.350  1.00  0.00     0.009 A 
ENDBRANCH  13  14
ENDBRANCH  12  13
ENDBRANCH   7  12
BRANCH   2  21
HETATM   21  C   UNL     1      17.995  48.959  46.976  1.00  0.00    -0.028 A 
HETATM   22  C   UNL     1      18.443  48.377  45.778  1.00  0.00     0.011 A 
HETATM   23  C   UNL     1      18.272  47.011  45.540  1.00  0.00     0.024 A 
HETATM   24  C   UNL     1      17.650  46.212  46.497  1.00  0.00     0.034 A 
HETATM   25 CL   UNL     1      17.428  44.533  46.199  1.00  0.00    -0.084 Cl
HETATM   26  C   UNL     1      17.204  46.768  47.694  1.00  0.00     0.024 A 
HETATM   27  C   UNL     1      17.376  48.133  47.933  1.00  0.00     0.011 A 
ENDBRANCH   2  21
BRANCH   1  28
HETATM   28  C   UNL     1      15.916  51.351  46.543  1.00  0.00     0.293 C 
HETATM   29  O   UNL     1      14.947  50.631  46.352  1.00  0.00    -0.259 OA
BRANCH  28  30
HETATM   30  O   UNL     1      16.313  52.346  45.716  1.00  0.00    -0.318 OA
BRANCH  30  31
HETATM   31  C   UNL     1      16.205  52.075  44.309  1.00  0.00     0.174 C 
HETATM   32  C   UNL     1      17.544  51.641  43.740  1.00  0.00     0.034 C 
ENDBRANCH  30  31
ENDBRANCH  28  30
ENDBRANCH   1  28
TORSDOF 7
ENDMDL
MODEL 7
REMARK VINA RESULT:      -7.5     13.041     14.620
REMARK  7 active torsions:
REMARK  status: ('A' for Active; 'I' for Inactive)
REMARK    1  A    between atoms: C_2  and  O_3 
REMARK    2  A    between atoms: O_3  and  C_4 
REMARK    3  A    between atoms: C_4  and  C_5 
REMARK    4  A    between atoms: C_6  and  C_7 
REMARK    5  A    between atoms: C_18  and  S_19 
REMARK    6  A    between atoms: S_19  and  C_20 
REMARK    7  A    between atoms: C_20  and  C_21 
ROOT
HETATM    1  C   UNL     1      29.418  51.465  39.836  1.00  0.00     0.070 C 
HETATM    2  C   UNL     1      30.553  50.456  39.642  1.00  0.00     0.203 C 
HETATM    3  N   UNL     1      31.602  50.648  40.646  1.00  0.00    -0.082 N 
HETATM    4  C   UNL     1      31.433  51.369  41.794  1.00  0.00     0.726 A 
HETATM    5  N   UNL     1      30.249  51.975  42.015  1.00  0.00    -0.192 N 
HETATM    6  N   UNL     1      32.868  50.218  40.516  1.00  0.00    -0.128 NA
HETATM    7  C   UNL     1      33.404  50.666  41.658  1.00  0.00     0.226 A 
HETATM    8  N   UNL     1      32.549  51.366  42.478  1.00  0.00    -0.035 NA
HETATM    9  C   UNL     1      29.280  52.124  41.019  1.00  0.00     0.037 C 
HETATM   10  C   UNL     1      28.128  53.029  41.378  1.00  0.00     0.070 C 
HETATM   11  H   UNL     1      30.172  52.588  42.824  1.00  0.00     0.184 HD
ENDROOT
BRANCH   7  12
HETATM   12  S   UNL     1      35.086  50.393  42.006  1.00  0.00    -0.083 SA
BRANCH  12  13
HETATM   13  C   UNL     1      35.832  51.842  41.212  1.00  0.00     0.123 C 
BRANCH  13  14
HETATM   14  C   UNL     1      36.490  52.741  42.233  1.00  0.00    -0.027 A 
HETATM   15  C   UNL     1      37.328  53.812  41.879  1.00  0.00     0.041 A 
HETATM   16 CL   UNL     1      37.652  54.221  40.232  1.00  0.00    -0.084 Cl
HETATM   17  C   UNL     1      37.940  54.592  42.867  1.00  0.00     0.024 A 
HETATM   18  C   UNL     1      37.733  54.310  44.217  1.00  0.00     0.002 A 
HETATM   19  C   UNL     1      36.912  53.248  44.584  1.00  0.00     0.001 A 
HETATM   20  C   UNL     1      36.297  52.469  43.601  1.00  0.00     0.009 A 
ENDBRANCH  13  14
ENDBRANCH  12  13
ENDBRANCH   7  12
BRANCH   2  21
HETATM   21  C   UNL     1      30.059  49.007  39.691  1.00  0.00    -0.028 A 
HETATM   22  C   UNL     1      30.399  48.120  38.656  1.00  0.00     0.011 A 
HETATM   23  C   UNL     1      29.935  46.801  38.664  1.00  0.00     0.024 A 
HETATM   24  C   UNL     1      29.127  46.357  39.708  1.00  0.00     0.034 A 
HETATM   25 CL   UNL     1      28.546  44.738  39.712  1.00  0.00    -0.084 Cl
HETATM   26  C   UNL     1      28.783  47.218  40.747  1.00  0.00     0.024 A 
HETATM   27  C   UNL     1      29.247  48.536  40.740  1.00  0.00     0.011 A 
ENDBRANCH   2  21
BRANCH   1  28
HETATM   28  C   UNL     1      28.604  51.640  38.604  1.00  0.00     0.293 C 
HETATM   29  O   UNL     1      29.014  52.240  37.620  1.00  0.00    -0.259 OA
BRANCH  28  30
HETATM   30  O   UNL     1      27.345  51.167  38.750  1.00  0.00    -0.318 OA
BRANCH  30  31
HETATM   31  C   UNL     1      27.027  49.984  38.001  1.00  0.00     0.174 C 
HETATM   32  C   UNL     1      26.159  49.044  38.820  1.00  0.00     0.034 C 
ENDBRANCH  30  31
ENDBRANCH  28  30
ENDBRANCH   1  28
TORSDOF 7
ENDMDL
MODEL 8
REMARK VINA RESULT:      -7.5     10.837     13.479
REMARK  7 active torsions:
REMARK  status: ('A' for Active; 'I' for Inactive)
REMARK    1  A    between atoms: C_2  and  O_3 
REMARK    2  A    between atoms: O_3  and  C_4 
REMARK    3  A    between atoms: C_4  and  C_5 
REMARK    4  A    between atoms: C_6  and  C_7 
REMARK    5  A    between atoms: C_18  and  S_19 
REMARK    6  A    between atoms: S_19  and  C_20 
REMARK    7  A    between atoms: C_20  and  C_21 
ROOT
HETATM    1  C   UNL     1      28.105  45.386  39.900  1.00  0.00     0.070 C 
HETATM    2  C   UNL     1      27.867  46.670  40.699  1.00  0.00     0.203 C 
HETATM    3  N   UNL     1      29.105  47.444  40.827  1.00  0.00    -0.082 N 
HETATM    4  C   UNL     1      30.212  47.240  40.054  1.00  0.00     0.726 A 
HETATM    5  N   UNL     1      30.196  46.251  39.138  1.00  0.00    -0.192 N 
HETATM    6  N   UNL     1      29.326  48.374  41.770  1.00  0.00    -0.128 NA
HETATM    7  C   UNL     1      30.579  48.741  41.473  1.00  0.00     0.226 A 
HETATM    8  N   UNL     1      31.153  48.077  40.414  1.00  0.00    -0.035 NA
HETATM    9  C   UNL     1      29.211  45.260  39.116  1.00  0.00     0.037 C 
HETATM   10  C   UNL     1      29.483  44.110  38.179  1.00  0.00     0.070 C 
HETATM   11  H   UNL     1      31.060  46.050  38.640  1.00  0.00     0.184 HD
ENDROOT
BRANCH   7  12
HETATM   12  S   UNL     1      31.392  49.947  42.427  1.00  0.00    -0.083 SA
BRANCH  12  13
HETATM   13  C   UNL     1      30.404  51.413  42.025  1.00  0.00     0.123 C 
BRANCH  13  14
HETATM   14  C   UNL     1      30.216  51.547  40.531  1.00  0.00    -0.027 A 
HETATM   15  C   UNL     1      28.952  51.536  39.917  1.00  0.00     0.041 A 
HETATM   16 CL   UNL     1      27.489  51.402  40.826  1.00  0.00    -0.084 Cl
HETATM   17  C   UNL     1      28.838  51.628  38.525  1.00  0.00     0.024 A 
HETATM   18  C   UNL     1      29.978  51.726  37.729  1.00  0.00     0.002 A 
HETATM   19  C   UNL     1      31.237  51.731  38.321  1.00  0.00     0.001 A 
HETATM   20  C   UNL     1      31.355  51.641  39.709  1.00  0.00     0.009 A 
ENDBRANCH  13  14
ENDBRANCH  12  13
ENDBRANCH   7  12
BRANCH   2  21
HETATM   21  C   UNL     1      26.779  47.550  40.077  1.00  0.00    -0.028 A 
HETATM   22  C   UNL     1      25.490  47.565  40.638  1.00  0.00     0.011 A 
HETATM   23  C   UNL     1      24.473  48.336  40.071  1.00  0.00     0.024 A 
HETATM   24  C   UNL     1      24.732  49.101  38.936  1.00  0.00     0.034 A 
HETATM   25 CL   UNL     1      23.477  50.041  38.230  1.00  0.00    -0.084 Cl
HETATM   26  C   UNL     1      26.004  49.105  38.367  1.00  0.00     0.024 A 
HETATM   27  C   UNL     1      27.022  48.335  38.934  1.00  0.00     0.011 A 
ENDBRANCH   2  21
BRANCH   1  28
HETATM   28  C   UNL     1      27.055  44.364  40.152  1.00  0.00     0.293 C 
HETATM   29  O   UNL     1      26.118  44.176  39.389  1.00  0.00    -0.259 OA
BRANCH  28  30
HETATM   30  O   UNL     1      27.200  43.767  41.357  1.00  0.00    -0.318 OA
BRANCH  30  31
HETATM   31  C   UNL     1      25.984  43.456  42.055  1.00  0.00     0.174 C 
HETATM   32  C   UNL     1      25.506  44.651  42.862  1.00  0.00     0.034 C 
ENDBRANCH  30  31
ENDBRANCH  28  30
ENDBRANCH   1  28
TORSDOF 7
ENDMDL
MODEL 9
REMARK VINA RESULT:      -7.3      9.576     12.408
REMARK  7 active torsions:
REMARK  status: ('A' for Active; 'I' for Inactive)
REMARK    1  A    between atoms: C_2  and  O_3 
REMARK    2  A    between atoms: O_3  and  C_4 
REMARK    3  A    between atoms: C_4  and  C_5 
REMARK    4  A    between atoms: C_6  and  C_7 
REMARK    5  A    between atoms: C_18  and  S_19 
REMARK    6  A    between atoms: S_19  and  C_20 
REMARK    7  A    between atoms: C_20  and  C_21 
ROOT
HETATM    1  C   UNL     1      18.770  49.556  49.564  1.00  0.00     0.070 C 
HETATM    2  C   UNL     1      18.904  49.358  48.052  1.00  0.00     0.203 C 
HETATM    3  N   UNL     1      19.527  48.067  47.747  1.00  0.00    -0.082 N 
HETATM    4  C   UNL     1      19.640  47.046  48.646  1.00  0.00     0.726 A 
HETATM    5  N   UNL     1      19.188  47.230  49.903  1.00  0.00    -0.192 N 
HETATM    6  N   UNL     1      20.134  47.772  46.586  1.00  0.00    -0.128 NA
HETATM    7  C   UNL     1      20.547  46.522  46.829  1.00  0.00     0.226 A 
HETATM    8  N   UNL     1      20.248  46.034  48.081  1.00  0.00    -0.035 NA
HETATM    9  C   UNL     1      18.853  48.491  50.407  1.00  0.00     0.037 C 
HETATM   10  C   UNL     1      18.598  48.538  51.893  1.00  0.00     0.070 C 
HETATM   11  H   UNL     1      19.369  46.498  50.586  1.00  0.00     0.184 HD
ENDROOT
BRANCH   7  12
HETATM   12  S   UNL     1      21.438  45.639  45.624  1.00  0.00    -0.083 SA
BRANCH  12  13
HETATM   13  C   UNL     1      20.091  44.753  44.795  1.00  0.00     0.123 C 
BRANCH  13  14
HETATM   14  C   UNL     1      18.990  45.703  44.381  1.00  0.00    -0.027 A 
HETATM   15  C   UNL     1      17.728  45.723  44.998  1.00  0.00     0.041 A 
HETATM   16 CL   UNL     1      17.333  44.680  46.318  1.00  0.00    -0.084 Cl
HETATM   17  C   UNL     1      16.733  46.600  44.552  1.00  0.00     0.024 A 
HETATM   18  C   UNL     1      16.979  47.461  43.483  1.00  0.00     0.002 A 
HETATM   19  C   UNL     1      18.221  47.448  42.857  1.00  0.00     0.001 A 
HETATM   20  C   UNL     1      19.218  46.576  43.300  1.00  0.00     0.009 A 
ENDBRANCH  13  14
ENDBRANCH  12  13
ENDBRANCH   7  12
BRANCH   2  21
HETATM   21  C   UNL     1      17.557  49.458  47.330  1.00  0.00    -0.028 A 
HETATM   22  C   UNL     1      17.418  50.324  46.232  1.00  0.00     0.011 A 
HETATM   23  C   UNL     1      16.191  50.454  45.575  1.00  0.00     0.024 A 
HETATM   24  C   UNL     1      15.091  49.720  46.010  1.00  0.00     0.034 A 
HETATM   25 CL   UNL     1      13.578  49.890  45.210  1.00  0.00    -0.084 Cl
HETATM   26  C   UNL     1      15.208  48.852  47.092  1.00  0.00     0.024 A 
HETATM   27  C   UNL     1      16.434  48.720  47.749  1.00  0.00     0.011 A 
ENDBRANCH   2  21
BRANCH   1  28
HETATM   28  C   UNL     1      18.614  50.988  49.932  1.00  0.00     0.293 C 
HETATM   29  O   UNL     1      19.565  51.746  50.058  1.00  0.00    -0.259 OA
BRANCH  28  30
HETATM   30  O   UNL     1      17.330  51.308  50.217  1.00  0.00    -0.318 OA
BRANCH  30  31
HETATM   31  C   UNL     1      16.795  52.445  49.521  1.00  0.00     0.174 C 
HETATM   32  C   UNL     1      15.391  52.158  49.019  1.00  0.00     0.034 C 
ENDBRANCH  30  31
ENDBRANCH  28  30
ENDBRANCH   1  28
TORSDOF 7
ENDMDL
MODEL 10
REMARK VINA RESULT:      -7.2      4.466      9.166
REMARK  7 active torsions:
REMARK  status: ('A' for Active; 'I' for Inactive)
REMARK    1  A    between atoms: C_2  and  O_3 
REMARK    2  A    between atoms: O_3  and  C_4 
REMARK    3  A    between atoms: C_4  and  C_5 
REMARK    4  A    between atoms: C_6  and  C_7 
REMARK    5  A    between atoms: C_18  and  S_19 
REMARK    6  A    between atoms: S_19  and  C_20 
REMARK    7  A    between atoms: C_20  and  C_21 
ROOT
HETATM    1  C   UNL     1      25.198  44.775  51.924  1.00  0.00     0.070 C 
HETATM    2  C   UNL     1      24.509  43.706  51.073  1.00  0.00     0.203 C 
HETATM    3  N   UNL     1      23.724  44.318  49.998  1.00  0.00    -0.082 N 
HETATM    4  C   UNL     1      23.870  45.614  49.593  1.00  0.00     0.726 A 
HETATM    5  N   UNL     1      24.760  46.401  50.232  1.00  0.00    -0.192 N 
HETATM    6  N   UNL     1      22.716  43.710  49.351  1.00  0.00    -0.128 NA
HETATM    7  C   UNL     1      22.328  44.683  48.518  1.00  0.00     0.226 A 
HETATM    8  N   UNL     1      23.024  45.865  48.626  1.00  0.00    -0.035 NA
HETATM    9  C   UNL     1      25.348  46.041  51.448  1.00  0.00     0.037 C 
HETATM   10  C   UNL     1      26.128  47.138  52.129  1.00  0.00     0.070 C 
HETATM   11  H   UNL     1      24.785  47.387  49.984  1.00  0.00     0.184 HD
ENDROOT
BRANCH   7  12
HETATM   12  S   UNL     1      20.997  44.429  47.428  1.00  0.00    -0.083 SA
BRANCH  12  13
HETATM   13  C   UNL     1      20.614  46.140  46.964  1.00  0.00     0.123 C 
BRANCH  13  14
HETATM   14  C   UNL     1      19.524  46.708  47.844  1.00  0.00    -0.027 A 
HETATM   15  C   UNL     1      18.167  46.379  47.688  1.00  0.00     0.041 A 
HETATM   16 CL   UNL     1      17.625  45.258  46.490  1.00  0.00    -0.084 Cl
HETATM   17  C   UNL     1      17.195  46.963  48.508  1.00  0.00     0.024 A 
HETATM   18  C   UNL     1      17.561  47.886  49.487  1.00  0.00     0.002 A 
HETATM   19  C   UNL     1      18.899  48.228  49.650  1.00  0.00     0.001 A 
HETATM   20  C   UNL     1      19.872  47.646  48.835  1.00  0.00     0.009 A 
ENDBRANCH  13  14
ENDBRANCH  12  13
ENDBRANCH   7  12
BRANCH   2  21
HETATM   21  C   UNL     1      25.505  42.709  50.472  1.00  0.00    -0.028 A 
HETATM   22  C   UNL     1      25.612  41.418  51.017  1.00  0.00     0.011 A 
HETATM   23  C   UNL     1      26.534  40.500  50.505  1.00  0.00     0.024 A 
HETATM   24  C   UNL     1      27.358  40.865  49.444  1.00  0.00     0.034 A 
HETATM   25 CL   UNL     1      28.502  39.741  48.822  1.00  0.00    -0.084 Cl
HETATM   26  C   UNL     1      27.265  42.137  48.885  1.00  0.00     0.024 A 
HETATM   27  C   UNL     1      26.343  43.055  49.396  1.00  0.00     0.011 A 
ENDBRANCH   2  21
BRANCH   1  28
HETATM   28  C   UNL     1      25.583  44.264  53.266  1.00  0.00     0.293 C 
HETATM   29  O   UNL     1      24.792  44.184  54.196  1.00  0.00    -0.259 OA
BRANCH  28  30
HETATM   30  O   UNL     1      26.910  44.016  53.359  1.00  0.00    -0.318 OA
BRANCH  30  31
HETATM   31  C   UNL     1      27.296  43.002  54.300  1.00  0.00     0.174 C 
HETATM   32  C   UNL     1      28.212  41.982  53.647  1.00  0.00     0.034 C 
ENDBRANCH  30  31
ENDBRANCH  28  30
ENDBRANCH   1  28
TORSDOF 7
ENDMDL
