MODEL 1
REMARK VINA RESULT:      -9.3      0.000      0.000
REMARK  6 active torsions:
REMARK  status: ('A' for Active; 'I' for Inactive)
REMARK    1  A    between atoms: C_7  and  C_8 
REMARK    2  A    between atoms: C_8  and  C_9 
REMARK       I    between atoms: C_9  and  N_10 
REMARK    3  A    between atoms: N_10  and  C_11 
REMARK    4  A    between atoms: C_11  and  C_12 
REMARK    5  A    between atoms: C_19  and  C_20 
REMARK    6  A    between atoms: C_23  and  O_24 
ROOT
HETATM    1  C   UNL     1      25.342  47.709  49.297  1.00  0.00     0.151 C 
HETATM    2  O   UNL     1      25.505  49.049  48.746  1.00  0.00    -0.343 OA
HETATM    3  C   UNL     1      24.254  49.595  48.782  1.00  0.00     0.075 A 
HETATM    4  C   UNL     1      23.320  48.824  49.441  1.00  0.00    -0.021 A 
HETATM    5  C   UNL     1      23.962  47.601  49.969  1.00  0.00     0.075 C 
HETATM    6  C   UNL     1      23.927  50.822  48.248  1.00  0.00     0.038 A 
HETATM    7  C   UNL     1      22.609  51.273  48.388  1.00  0.00     0.016 A 
HETATM    8  C   UNL     1      21.622  50.505  49.058  1.00  0.00    -0.005 A 
HETATM    9  C   UNL     1      22.012  49.258  49.590  1.00  0.00     0.024 A 
ENDROOT
BRANCH   1  10
HETATM   10  C   UNL     1      26.501  47.449  50.271  1.00  0.00     0.155 C 
BRANCH  10  11
HETATM   11  N   UNL     1      26.115  47.320  51.665  1.00  0.00    -0.359 N 
HETATM   12  C   UNL     1      26.059  46.098  52.300  1.00  0.00     0.219 C 
HETATM   13  O   UNL     1      26.284  45.037  51.731  1.00  0.00    -0.274 OA
HETATM   14  H   UNL     1      26.034  48.166  52.218  1.00  0.00     0.162 HD
BRANCH  12  15
HETATM   15  C   UNL     1      25.701  46.210  53.767  1.00  0.00     0.128 C 
BRANCH  15  16
HETATM   16  C   UNL     1      26.833  45.745  54.687  1.00  0.00     0.094 C 
HETATM   17  N   UNL     1      27.387  44.484  54.196  1.00  0.00    -0.362 N 
HETATM   18  C   UNL     1      28.643  44.047  54.460  1.00  0.00     0.168 C 
HETATM   19  H   UNL     1      26.752  43.758  53.883  1.00  0.00     0.162 HD
HETATM   20  N   UNL     1      29.508  44.922  55.027  1.00  0.00    -0.363 N 
HETATM   21  S   UNL     1      29.114  42.506  54.062  1.00  0.00    -0.041 SA
HETATM   22  C   UNL     1      29.126  46.211  55.576  1.00  0.00     0.081 C 
HETATM   23  H   UNL     1      30.431  44.558  55.232  1.00  0.00     0.162 HD
HETATM   24  C   UNL     1      28.836  46.091  57.071  1.00  0.00     0.032 C 
HETATM   25  C   UNL     1      27.951  46.789  54.789  1.00  0.00     0.050 C 
ENDBRANCH  15  16
ENDBRANCH  12  15
ENDBRANCH  10  11
ENDBRANCH   1  10
BRANCH   8  26
HETATM   26  C   UNL     1      20.236  50.986  49.225  1.00  0.00     0.089 A 
HETATM   27  N   UNL     1      19.467  50.295  50.105  1.00  0.00    -0.147 NA
HETATM   28  N   UNL     1      18.163  50.659  50.337  1.00  0.00    -0.124 NA
HETATM   29  C   UNL     1      17.640  51.712  49.681  1.00  0.00     0.185 A 
HETATM   30  C   UNL     1      18.378  52.443  48.774  1.00  0.00     0.062 A 
HETATM   31  C   UNL     1      19.700  52.072  48.539  1.00  0.00     0.038 A 
BRANCH  29  32
HETATM   32  O   UNL     1      16.335  52.104  49.891  1.00  0.00    -0.338 OA
HETATM   33  C   UNL     1      15.622  52.326  48.677  1.00  0.00     0.211 C 
ENDBRANCH  29  32
ENDBRANCH   8  26
TORSDOF 6
ENDMDL
MODEL 2
REMARK VINA RESULT:      -9.2      2.244      3.673
REMARK  6 active torsions:
REMARK  status: ('A' for Active; 'I' for Inactive)
REMARK    1  A    between atoms: C_7  and  C_8 
REMARK    2  A    between atoms: C_8  and  C_9 
REMARK       I    between atoms: C_9  and  N_10 
REMARK    3  A    between atoms: N_10  and  C_11 
REMARK    4  A    between atoms: C_11  and  C_12 
REMARK    5  A    between atoms: C_19  and  C_20 
REMARK    6  A    between atoms: C_23  and  O_24 
ROOT
HETATM    1  C   UNL     1      26.394  43.679  49.613  1.00  0.00     0.151 C 
HETATM    2  O   UNL     1      27.246  44.839  49.843  1.00  0.00    -0.343 OA
HETATM    3  C   UNL     1      26.428  45.916  49.651  1.00  0.00     0.075 A 
HETATM    4  C   UNL     1      25.099  45.592  49.479  1.00  0.00    -0.021 A 
HETATM    5  C   UNL     1      24.922  44.128  49.587  1.00  0.00     0.075 C 
HETATM    6  C   UNL     1      26.854  47.226  49.659  1.00  0.00     0.038 A 
HETATM    7  C   UNL     1      25.897  48.233  49.482  1.00  0.00     0.016 A 
HETATM    8  C   UNL     1      24.523  47.935  49.301  1.00  0.00    -0.005 A 
HETATM    9  C   UNL     1      24.140  46.577  49.307  1.00  0.00     0.024 A 
ENDROOT
BRANCH   1  10
HETATM   10  C   UNL     1      26.683  42.649  50.715  1.00  0.00     0.155 C 
BRANCH  10  11
HETATM   11  N   UNL     1      26.170  42.994  52.030  1.00  0.00    -0.359 N 
HETATM   12  C   UNL     1      27.002  43.320  53.079  1.00  0.00     0.219 C 
HETATM   13  O   UNL     1      28.224  43.299  52.995  1.00  0.00    -0.274 OA
HETATM   14  H   UNL     1      25.173  43.145  52.127  1.00  0.00     0.162 HD
BRANCH  12  15
HETATM   15  C   UNL     1      26.248  43.711  54.332  1.00  0.00     0.128 C 
BRANCH  15  16
HETATM   16  C   UNL     1      26.710  45.055  54.902  1.00  0.00     0.094 C 
HETATM   17  N   UNL     1      28.054  44.923  55.462  1.00  0.00    -0.362 N 
HETATM   18  C   UNL     1      28.925  45.952  55.608  1.00  0.00     0.168 C 
HETATM   19  H   UNL     1      28.272  44.111  56.028  1.00  0.00     0.162 HD
HETATM   20  N   UNL     1      28.619  47.126  55.005  1.00  0.00    -0.363 N 
HETATM   21  S   UNL     1      30.335  45.763  56.461  1.00  0.00    -0.041 SA
HETATM   22  C   UNL     1      27.331  47.429  54.409  1.00  0.00     0.081 C 
HETATM   23  H   UNL     1      29.279  47.881  55.153  1.00  0.00     0.162 HD
HETATM   24  C   UNL     1      26.426  48.132  55.419  1.00  0.00     0.032 C 
HETATM   25  C   UNL     1      26.705  46.159  53.837  1.00  0.00     0.050 C 
ENDBRANCH  15  16
ENDBRANCH  12  15
ENDBRANCH  10  11
ENDBRANCH   1  10
BRANCH   8  26
HETATM   26  C   UNL     1      23.507  48.994  49.135  1.00  0.00     0.089 A 
HETATM   27  N   UNL     1      22.219  48.625  49.348  1.00  0.00    -0.147 NA
HETATM   28  N   UNL     1      21.196  49.533  49.221  1.00  0.00    -0.124 NA
HETATM   29  C   UNL     1      21.474  50.804  48.879  1.00  0.00     0.185 A 
HETATM   30  C   UNL     1      22.766  51.229  48.646  1.00  0.00     0.062 A 
HETATM   31  C   UNL     1      23.802  50.306  48.774  1.00  0.00     0.038 A 
BRANCH  29  32
HETATM   32  O   UNL     1      20.471  51.740  48.744  1.00  0.00    -0.338 OA
HETATM   33  C   UNL     1      19.384  51.518  49.638  1.00  0.00     0.211 C 
ENDBRANCH  29  32
ENDBRANCH   8  26
TORSDOF 6
ENDMDL
MODEL 3
REMARK VINA RESULT:      -9.2      3.437     11.033
REMARK  6 active torsions:
REMARK  status: ('A' for Active; 'I' for Inactive)
REMARK    1  A    between atoms: C_7  and  C_8 
REMARK    2  A    between atoms: C_8  and  C_9 
REMARK       I    between atoms: C_9  and  N_10 
REMARK    3  A    between atoms: N_10  and  C_11 
REMARK    4  A    between atoms: C_11  and  C_12 
REMARK    5  A    between atoms: C_19  and  C_20 
REMARK    6  A    between atoms: C_23  and  O_24 
ROOT
HETATM    1  C   UNL     1      24.952  45.418  49.435  1.00  0.00     0.151 C 
HETATM    2  O   UNL     1      24.955  44.004  49.789  1.00  0.00    -0.343 OA
HETATM    3  C   UNL     1      25.886  43.895  50.783  1.00  0.00     0.075 A 
HETATM    4  C   UNL     1      26.377  45.103  51.230  1.00  0.00    -0.021 A 
HETATM    5  C   UNL     1      25.715  46.212  50.511  1.00  0.00     0.075 C 
HETATM    6  C   UNL     1      26.294  42.702  51.337  1.00  0.00     0.038 A 
HETATM    7  C   UNL     1      27.233  42.743  52.375  1.00  0.00     0.016 A 
HETATM    8  C   UNL     1      27.761  43.967  52.858  1.00  0.00    -0.005 A 
HETATM    9  C   UNL     1      27.305  45.160  52.259  1.00  0.00     0.024 A 
ENDROOT
BRANCH   1  10
HETATM   10  C   UNL     1      23.492  45.870  49.286  1.00  0.00     0.155 C 
BRANCH  10  11
HETATM   11  N   UNL     1      23.231  47.246  49.669  1.00  0.00    -0.359 N 
HETATM   12  C   UNL     1      22.754  48.179  48.773  1.00  0.00     0.219 C 
HETATM   13  O   UNL     1      22.560  47.931  47.589  1.00  0.00    -0.274 OA
HETATM   14  H   UNL     1      23.258  47.480  50.654  1.00  0.00     0.162 HD
BRANCH  12  15
HETATM   15  C   UNL     1      22.492  49.528  49.408  1.00  0.00     0.128 C 
BRANCH  15  16
HETATM   16  C   UNL     1      21.089  50.061  49.099  1.00  0.00     0.094 C 
HETATM   17  N   UNL     1      20.127  48.961  49.104  1.00  0.00    -0.362 N 
HETATM   18  C   UNL     1      18.799  49.109  49.336  1.00  0.00     0.168 C 
HETATM   19  H   UNL     1      20.373  48.090  48.648  1.00  0.00     0.162 HD
HETATM   20  N   UNL     1      18.371  50.307  49.804  1.00  0.00    -0.363 N 
HETATM   21  S   UNL     1      17.743  47.851  49.097  1.00  0.00    -0.041 SA
HETATM   22  C   UNL     1      19.190  51.504  49.857  1.00  0.00     0.081 C 
HETATM   23  H   UNL     1      17.371  50.392  49.945  1.00  0.00     0.162 HD
HETATM   24  C   UNL     1      19.001  52.340  48.593  1.00  0.00     0.032 C 
HETATM   25  C   UNL     1      20.650  51.130  50.106  1.00  0.00     0.050 C 
ENDBRANCH  15  16
ENDBRANCH  12  15
ENDBRANCH  10  11
ENDBRANCH   1  10
BRANCH   8  26
HETATM   26  C   UNL     1      28.737  44.017  53.966  1.00  0.00     0.089 A 
HETATM   27  N   UNL     1      28.647  45.089  54.793  1.00  0.00    -0.147 NA
HETATM   28  N   UNL     1      29.505  45.232  55.857  1.00  0.00    -0.124 NA
HETATM   29  C   UNL     1      30.449  44.298  56.078  1.00  0.00     0.185 A 
HETATM   30  C   UNL     1      30.586  43.194  55.263  1.00  0.00     0.062 A 
HETATM   31  C   UNL     1      29.715  43.051  54.185  1.00  0.00     0.038 A 
BRANCH  29  32
HETATM   32  O   UNL     1      31.326  44.411  57.136  1.00  0.00    -0.338 OA
HETATM   33  C   UNL     1      30.791  45.168  58.219  1.00  0.00     0.211 C 
ENDBRANCH  29  32
ENDBRANCH   8  26
TORSDOF 6
ENDMDL
MODEL 4
REMARK VINA RESULT:      -9.0      4.893     10.596
REMARK  6 active torsions:
REMARK  status: ('A' for Active; 'I' for Inactive)
REMARK    1  A    between atoms: C_7  and  C_8 
REMARK    2  A    between atoms: C_8  and  C_9 
REMARK       I    between atoms: C_9  and  N_10 
REMARK    3  A    between atoms: N_10  and  C_11 
REMARK    4  A    between atoms: C_11  and  C_12 
REMARK    5  A    between atoms: C_19  and  C_20 
REMARK    6  A    between atoms: C_23  and  O_24 
ROOT
HETATM    1  C   UNL     1      26.821  41.952  48.980  1.00  0.00     0.151 C 
HETATM    2  O   UNL     1      27.302  40.847  49.800  1.00  0.00    -0.343 OA
HETATM    3  C   UNL     1      27.856  41.443  50.897  1.00  0.00     0.075 A 
HETATM    4  C   UNL     1      27.650  42.805  50.965  1.00  0.00    -0.021 A 
HETATM    5  C   UNL     1      26.834  43.246  49.814  1.00  0.00     0.075 C 
HETATM    6  C   UNL     1      28.536  40.768  51.887  1.00  0.00     0.038 A 
HETATM    7  C   UNL     1      29.023  41.504  52.974  1.00  0.00     0.016 A 
HETATM    8  C   UNL     1      28.832  42.906  53.074  1.00  0.00    -0.005 A 
HETATM    9  C   UNL     1      28.123  43.547  52.036  1.00  0.00     0.024 A 
ENDROOT
BRANCH   1  10
HETATM   10  C   UNL     1      25.420  41.590  48.466  1.00  0.00     0.155 C 
BRANCH  10  11
HETATM   11  N   UNL     1      24.573  42.724  48.138  1.00  0.00    -0.359 N 
HETATM   12  C   UNL     1      23.295  42.853  48.637  1.00  0.00     0.219 C 
HETATM   13  O   UNL     1      22.767  42.008  49.350  1.00  0.00    -0.274 OA
HETATM   14  H   UNL     1      24.993  43.508  47.653  1.00  0.00     0.162 HD
BRANCH  12  15
HETATM   15  C   UNL     1      22.624  44.144  48.218  1.00  0.00     0.128 C 
BRANCH  15  16
HETATM   16  C   UNL     1      23.445  45.382  48.594  1.00  0.00     0.094 C 
HETATM   17  N   UNL     1      22.665  46.592  48.341  1.00  0.00    -0.362 N 
HETATM   18  C   UNL     1      22.869  47.777  48.968  1.00  0.00     0.168 C 
HETATM   19  H   UNL     1      22.136  46.664  47.480  1.00  0.00     0.162 HD
HETATM   20  N   UNL     1      23.694  47.786  50.043  1.00  0.00    -0.363 N 
HETATM   21  S   UNL     1      22.098  49.156  48.461  1.00  0.00    -0.041 SA
HETATM   22  C   UNL     1      24.546  46.678  50.430  1.00  0.00     0.081 C 
HETATM   23  H   UNL     1      23.843  48.691  50.475  1.00  0.00     0.162 HD
HETATM   24  C   UNL     1      25.937  46.832  49.818  1.00  0.00     0.032 C 
HETATM   25  C   UNL     1      23.882  45.352  50.063  1.00  0.00     0.050 C 
ENDBRANCH  15  16
ENDBRANCH  12  15
ENDBRANCH  10  11
ENDBRANCH   1  10
BRANCH   8  26
HETATM   26  C   UNL     1      29.326  43.684  54.229  1.00  0.00     0.089 A 
HETATM   27  N   UNL     1      28.655  44.830  54.507  1.00  0.00    -0.147 NA
HETATM   28  N   UNL     1      29.031  45.627  55.561  1.00  0.00    -0.124 NA
HETATM   29  C   UNL     1      30.080  45.269  56.324  1.00  0.00     0.185 A 
HETATM   30  C   UNL     1      30.798  44.117  56.079  1.00  0.00     0.062 A 
HETATM   31  C   UNL     1      30.415  43.310  55.010  1.00  0.00     0.038 A 
BRANCH  29  32
HETATM   32  O   UNL     1      30.483  46.046  57.389  1.00  0.00    -0.338 OA
HETATM   33  C   UNL     1      30.965  45.275  58.486  1.00  0.00     0.211 C 
ENDBRANCH  29  32
ENDBRANCH   8  26
TORSDOF 6
ENDMDL
MODEL 5
REMARK VINA RESULT:      -8.8      3.882     10.399
REMARK  6 active torsions:
REMARK  status: ('A' for Active; 'I' for Inactive)
REMARK    1  A    between atoms: C_7  and  C_8 
REMARK    2  A    between atoms: C_8  and  C_9 
REMARK       I    between atoms: C_9  and  N_10 
REMARK    3  A    between atoms: N_10  and  C_11 
REMARK    4  A    between atoms: C_11  and  C_12 
REMARK    5  A    between atoms: C_19  and  C_20 
REMARK    6  A    between atoms: C_23  and  O_24 
ROOT
HETATM    1  C   UNL     1      23.418  43.813  50.242  1.00  0.00     0.151 C 
HETATM    2  O   UNL     1      23.874  45.198  50.256  1.00  0.00    -0.343 OA
HETATM    3  C   UNL     1      24.875  45.226  51.185  1.00  0.00     0.075 A 
HETATM    4  C   UNL     1      25.235  43.985  51.665  1.00  0.00    -0.021 A 
HETATM    5  C   UNL     1      24.435  42.937  50.995  1.00  0.00     0.075 C 
HETATM    6  C   UNL     1      25.516  46.372  51.601  1.00  0.00     0.038 A 
HETATM    7  C   UNL     1      26.550  46.248  52.537  1.00  0.00     0.016 A 
HETATM    8  C   UNL     1      26.944  44.987  53.054  1.00  0.00    -0.005 A 
HETATM    9  C   UNL     1      26.258  43.845  52.589  1.00  0.00     0.024 A 
ENDROOT
BRANCH   1  10
HETATM   10  C   UNL     1      23.233  43.386  48.779  1.00  0.00     0.155 C 
BRANCH  10  11
HETATM   11  N   UNL     1      22.957  44.470  47.852  1.00  0.00    -0.359 N 
HETATM   12  C   UNL     1      21.703  45.027  47.727  1.00  0.00     0.219 C 
HETATM   13  O   UNL     1      20.727  44.624  48.349  1.00  0.00    -0.274 OA
HETATM   14  H   UNL     1      23.743  44.923  47.400  1.00  0.00     0.162 HD
BRANCH  12  15
HETATM   15  C   UNL     1      21.664  46.186  46.753  1.00  0.00     0.128 C 
BRANCH  15  16
HETATM   16  C   UNL     1      21.481  47.536  47.452  1.00  0.00     0.094 C 
HETATM   17  N   UNL     1      20.264  47.517  48.261  1.00  0.00    -0.362 N 
HETATM   18  C   UNL     1      20.047  48.316  49.335  1.00  0.00     0.168 C 
HETATM   19  H   UNL     1      19.421  47.109  47.871  1.00  0.00     0.162 HD
HETATM   20  N   UNL     1      21.100  49.018  49.820  1.00  0.00    -0.363 N 
HETATM   21  S   UNL     1      18.555  48.395  50.055  1.00  0.00    -0.041 SA
HETATM   22  C   UNL     1      22.376  49.152  49.141  1.00  0.00     0.081 C 
HETATM   23  H   UNL     1      20.900  49.622  50.608  1.00  0.00     0.162 HD
HETATM   24  C   UNL     1      22.396  50.415  48.282  1.00  0.00     0.032 C 
HETATM   25  C   UNL     1      22.681  47.887  48.341  1.00  0.00     0.050 C 
ENDBRANCH  15  16
ENDBRANCH  12  15
ENDBRANCH  10  11
ENDBRANCH   1  10
BRANCH   8  26
HETATM   26  C   UNL     1      28.048  44.849  54.026  1.00  0.00     0.089 A 
HETATM   27  N   UNL     1      28.271  45.917  54.832  1.00  0.00    -0.147 NA
HETATM   28  N   UNL     1      29.272  45.892  55.772  1.00  0.00    -0.124 NA
HETATM   29  C   UNL     1      30.043  44.795  55.893  1.00  0.00     0.185 A 
HETATM   30  C   UNL     1      29.861  43.686  55.094  1.00  0.00     0.062 A 
HETATM   31  C   UNL     1      28.845  43.714  54.140  1.00  0.00     0.038 A 
BRANCH  29  32
HETATM   32  O   UNL     1      31.056  44.738  56.827  1.00  0.00    -0.338 OA
HETATM   33  C   UNL     1      31.598  43.428  56.974  1.00  0.00     0.211 C 
ENDBRANCH  29  32
ENDBRANCH   8  26
TORSDOF 6
ENDMDL
MODEL 6
REMARK VINA RESULT:      -8.5      3.617     10.622
REMARK  6 active torsions:
REMARK  status: ('A' for Active; 'I' for Inactive)
REMARK    1  A    between atoms: C_7  and  C_8 
REMARK    2  A    between atoms: C_8  and  C_9 
REMARK       I    between atoms: C_9  and  N_10 
REMARK    3  A    between atoms: N_10  and  C_11 
REMARK    4  A    between atoms: C_11  and  C_12 
REMARK    5  A    between atoms: C_19  and  C_20 
REMARK    6  A    between atoms: C_23  and  O_24 
ROOT
HETATM    1  C   UNL     1      24.496  44.216  49.581  1.00  0.00     0.151 C 
HETATM    2  O   UNL     1      25.330  43.021  49.521  1.00  0.00    -0.343 OA
HETATM    3  C   UNL     1      26.241  43.181  50.526  1.00  0.00     0.075 A 
HETATM    4  C   UNL     1      25.999  44.268  51.340  1.00  0.00    -0.021 A 
HETATM    5  C   UNL     1      24.766  44.956  50.903  1.00  0.00     0.075 C 
HETATM    6  C   UNL     1      27.299  42.330  50.757  1.00  0.00     0.038 A 
HETATM    7  C   UNL     1      28.136  42.598  51.847  1.00  0.00     0.016 A 
HETATM    8  C   UNL     1      27.919  43.708  52.703  1.00  0.00    -0.005 A 
HETATM    9  C   UNL     1      26.817  44.544  52.424  1.00  0.00     0.024 A 
ENDROOT
BRANCH   1  10
HETATM   10  C   UNL     1      23.031  43.782  49.430  1.00  0.00     0.155 C 
BRANCH  10  11
HETATM   11  N   UNL     1      22.058  44.856  49.536  1.00  0.00    -0.359 N 
HETATM   12  C   UNL     1      21.800  45.718  48.492  1.00  0.00     0.219 C 
HETATM   13  O   UNL     1      22.398  45.672  47.424  1.00  0.00    -0.274 OA
HETATM   14  H   UNL     1      21.450  44.869  50.346  1.00  0.00     0.162 HD
BRANCH  12  15
HETATM   15  C   UNL     1      20.701  46.712  48.804  1.00  0.00     0.128 C 
BRANCH  15  16
HETATM   16  C   UNL     1      21.204  48.159  48.818  1.00  0.00     0.094 C 
HETATM   17  N   UNL     1      22.665  48.179  48.779  1.00  0.00    -0.362 N 
HETATM   18  C   UNL     1      23.403  49.219  48.318  1.00  0.00     0.168 C 
HETATM   19  H   UNL     1      23.181  47.532  49.365  1.00  0.00     0.162 HD
HETATM   20  N   UNL     1      22.753  50.207  47.656  1.00  0.00    -0.363 N 
HETATM   21  S   UNL     1      25.049  49.257  48.522  1.00  0.00    -0.041 SA
HETATM   22  C   UNL     1      21.309  50.344  47.602  1.00  0.00     0.081 C 
HETATM   23  H   UNL     1      23.329  50.980  47.344  1.00  0.00     0.162 HD
HETATM   24  C   UNL     1      20.817  51.266  48.716  1.00  0.00     0.032 C 
HETATM   25  C   UNL     1      20.649  48.967  47.638  1.00  0.00     0.050 C 
ENDBRANCH  15  16
ENDBRANCH  12  15
ENDBRANCH  10  11
ENDBRANCH   1  10
BRANCH   8  26
HETATM   26  C   UNL     1      28.786  43.983  53.866  1.00  0.00     0.089 A 
HETATM   27  N   UNL     1      28.530  45.130  54.544  1.00  0.00    -0.147 NA
HETATM   28  N   UNL     1      29.277  45.480  55.643  1.00  0.00    -0.124 NA
HETATM   29  C   UNL     1      30.278  44.678  56.049  1.00  0.00     0.185 A 
HETATM   30  C   UNL     1      30.583  43.504  55.391  1.00  0.00     0.062 A 
HETATM   31  C   UNL     1      29.824  43.151  54.276  1.00  0.00     0.038 A 
BRANCH  29  32
HETATM   32  O   UNL     1      31.047  45.000  57.147  1.00  0.00    -0.338 OA
HETATM   33  C   UNL     1      30.380  45.879  58.050  1.00  0.00     0.211 C 
ENDBRANCH  29  32
ENDBRANCH   8  26
TORSDOF 6
ENDMDL
MODEL 7
REMARK VINA RESULT:      -8.5      4.005     10.878
REMARK  6 active torsions:
REMARK  status: ('A' for Active; 'I' for Inactive)
REMARK    1  A    between atoms: C_7  and  C_8 
REMARK    2  A    between atoms: C_8  and  C_9 
REMARK       I    between atoms: C_9  and  N_10 
REMARK    3  A    between atoms: N_10  and  C_11 
REMARK    4  A    between atoms: C_11  and  C_12 
REMARK    5  A    between atoms: C_19  and  C_20 
REMARK    6  A    between atoms: C_23  and  O_24 
ROOT
HETATM    1  C   UNL     1      24.592  44.552  49.325  1.00  0.00     0.151 C 
HETATM    2  O   UNL     1      25.346  43.306  49.252  1.00  0.00    -0.343 OA
HETATM    3  C   UNL     1      26.247  43.383  50.275  1.00  0.00     0.075 A 
HETATM    4  C   UNL     1      26.063  44.466  51.109  1.00  0.00    -0.021 A 
HETATM    5  C   UNL     1      24.887  45.245  50.668  1.00  0.00     0.075 C 
HETATM    6  C   UNL     1      27.242  42.458  50.505  1.00  0.00     0.038 A 
HETATM    7  C   UNL     1      28.075  42.647  51.614  1.00  0.00     0.016 A 
HETATM    8  C   UNL     1      27.916  43.750  52.491  1.00  0.00    -0.005 A 
HETATM    9  C   UNL     1      26.878  44.664  52.213  1.00  0.00     0.024 A 
ENDROOT
BRANCH   1  10
HETATM   10  C   UNL     1      23.104  44.221  49.140  1.00  0.00     0.155 C 
BRANCH  10  11
HETATM   11  N   UNL     1      22.208  45.363  49.199  1.00  0.00    -0.359 N 
HETATM   12  C   UNL     1      21.859  46.080  48.075  1.00  0.00     0.219 C 
HETATM   13  O   UNL     1      22.308  45.840  46.962  1.00  0.00    -0.274 OA
HETATM   14  H   UNL     1      21.713  45.536  50.066  1.00  0.00     0.162 HD
BRANCH  12  15
HETATM   15  C   UNL     1      20.861  47.182  48.364  1.00  0.00     0.128 C 
BRANCH  15  16
HETATM   16  C   UNL     1      21.455  48.580  48.166  1.00  0.00     0.094 C 
HETATM   17  N   UNL     1      20.400  49.587  48.258  1.00  0.00    -0.362 N 
HETATM   18  C   UNL     1      20.609  50.884  48.596  1.00  0.00     0.168 C 
HETATM   19  H   UNL     1      19.517  49.418  47.789  1.00  0.00     0.162 HD
HETATM   20  N   UNL     1      21.826  51.218  49.087  1.00  0.00    -0.363 N 
HETATM   21  S   UNL     1      19.399  52.010  48.452  1.00  0.00    -0.041 SA
HETATM   22  C   UNL     1      22.986  50.345  49.065  1.00  0.00     0.081 C 
HETATM   23  H   UNL     1      21.957  52.198  49.308  1.00  0.00     0.162 HD
HETATM   24  C   UNL     1      23.824  50.599  47.814  1.00  0.00     0.032 C 
HETATM   25  C   UNL     1      22.548  48.887  49.197  1.00  0.00     0.050 C 
ENDBRANCH  15  16
ENDBRANCH  12  15
ENDBRANCH  10  11
ENDBRANCH   1  10
BRANCH   8  26
HETATM   26  C   UNL     1      28.779  43.942  53.674  1.00  0.00     0.089 A 
HETATM   27  N   UNL     1      28.478  44.999  54.468  1.00  0.00    -0.147 NA
HETATM   28  N   UNL     1      29.217  45.268  55.595  1.00  0.00    -0.124 NA
HETATM   29  C   UNL     1      30.255  44.472  55.913  1.00  0.00     0.185 A 
HETATM   30  C   UNL     1      30.606  43.387  55.137  1.00  0.00     0.062 A 
HETATM   31  C   UNL     1      29.855  43.118  53.994  1.00  0.00     0.038 A 
BRANCH  29  32
HETATM   32  O   UNL     1      31.016  44.713  57.037  1.00  0.00    -0.338 OA
HETATM   33  C   UNL     1      31.770  43.575  57.449  1.00  0.00     0.211 C 
ENDBRANCH  29  32
ENDBRANCH   8  26
TORSDOF 6
ENDMDL
MODEL 8
REMARK VINA RESULT:      -8.4      5.934      9.682
REMARK  6 active torsions:
REMARK  status: ('A' for Active; 'I' for Inactive)
REMARK    1  A    between atoms: C_7  and  C_8 
REMARK    2  A    between atoms: C_8  and  C_9 
REMARK       I    between atoms: C_9  and  N_10 
REMARK    3  A    between atoms: N_10  and  C_11 
REMARK    4  A    between atoms: C_11  and  C_12 
REMARK    5  A    between atoms: C_19  and  C_20 
REMARK    6  A    between atoms: C_23  and  O_24 
ROOT
HETATM    1  C   UNL     1      23.990  43.358  50.167  1.00  0.00     0.151 C 
HETATM    2  O   UNL     1      24.089  44.809  50.268  1.00  0.00    -0.343 OA
HETATM    3  C   UNL     1      24.973  45.028  51.286  1.00  0.00     0.075 A 
HETATM    4  C   UNL     1      25.586  43.887  51.757  1.00  0.00    -0.021 A 
HETATM    5  C   UNL     1      25.126  42.714  50.983  1.00  0.00     0.075 C 
HETATM    6  C   UNL     1      25.276  46.271  51.797  1.00  0.00     0.038 A 
HETATM    7  C   UNL     1      26.229  46.350  52.820  1.00  0.00     0.016 A 
HETATM    8  C   UNL     1      26.877  45.197  53.330  1.00  0.00    -0.005 A 
HETATM    9  C   UNL     1      26.534  43.949  52.767  1.00  0.00     0.024 A 
ENDROOT
BRANCH   1  10
HETATM   10  C   UNL     1      24.036  42.979  48.680  1.00  0.00     0.155 C 
BRANCH  10  11
HETATM   11  N   UNL     1      25.347  42.603  48.181  1.00  0.00    -0.359 N 
HETATM   12  C   UNL     1      25.731  41.286  48.047  1.00  0.00     0.219 C 
HETATM   13  O   UNL     1      25.020  40.345  48.378  1.00  0.00    -0.274 OA
HETATM   14  H   UNL     1      25.931  43.328  47.782  1.00  0.00     0.162 HD
BRANCH  12  15
HETATM   15  C   UNL     1      27.111  41.131  47.445  1.00  0.00     0.128 C 
BRANCH  15  16
HETATM   16  C   UNL     1      28.084  40.407  48.380  1.00  0.00     0.094 C 
HETATM   17  N   UNL     1      27.986  40.964  49.728  1.00  0.00    -0.362 N 
HETATM   18  C   UNL     1      28.322  40.294  50.858  1.00  0.00     0.168 C 
HETATM   19  H   UNL     1      27.939  41.970  49.842  1.00  0.00     0.162 HD
HETATM   20  N   UNL     1      28.555  38.963  50.754  1.00  0.00    -0.363 N 
HETATM   21  S   UNL     1      28.402  41.071  52.322  1.00  0.00    -0.041 SA
HETATM   22  C   UNL     1      28.693  38.251  49.497  1.00  0.00     0.081 C 
HETATM   23  H   UNL     1      28.826  38.496  51.612  1.00  0.00     0.162 HD
HETATM   24  C   UNL     1      30.162  38.171  49.085  1.00  0.00     0.032 C 
HETATM   25  C   UNL     1      27.813  38.898  48.429  1.00  0.00     0.050 C 
ENDBRANCH  15  16
ENDBRANCH  12  15
ENDBRANCH  10  11
ENDBRANCH   1  10
BRANCH   8  26
HETATM   26  C   UNL     1      27.898  45.277  54.394  1.00  0.00     0.089 A 
HETATM   27  N   UNL     1      28.881  44.343  54.350  1.00  0.00    -0.147 NA
HETATM   28  N   UNL     1      29.881  44.329  55.293  1.00  0.00    -0.124 NA
HETATM   29  C   UNL     1      29.883  45.251  56.273  1.00  0.00     0.185 A 
HETATM   30  C   UNL     1      28.903  46.218  56.365  1.00  0.00     0.062 A 
HETATM   31  C   UNL     1      27.890  46.230  55.409  1.00  0.00     0.038 A 
BRANCH  29  32
HETATM   32  O   UNL     1      30.872  45.265  57.234  1.00  0.00    -0.338 OA
HETATM   33  C   UNL     1      30.369  45.526  58.541  1.00  0.00     0.211 C 
ENDBRANCH  29  32
ENDBRANCH   8  26
TORSDOF 6
ENDMDL
MODEL 9
REMARK VINA RESULT:      -8.4      5.685     12.507
REMARK  6 active torsions:
REMARK  status: ('A' for Active; 'I' for Inactive)
REMARK    1  A    between atoms: C_7  and  C_8 
REMARK    2  A    between atoms: C_8  and  C_9 
REMARK       I    between atoms: C_9  and  N_10 
REMARK    3  A    between atoms: N_10  and  C_11 
REMARK    4  A    between atoms: C_11  and  C_12 
REMARK    5  A    between atoms: C_19  and  C_20 
REMARK    6  A    between atoms: C_23  and  O_24 
ROOT
HETATM    1  C   UNL     1      17.462  52.418  49.019  1.00  0.00     0.151 C 
HETATM    2  O   UNL     1      17.664  51.639  47.803  1.00  0.00    -0.343 OA
HETATM    3  C   UNL     1      18.951  51.190  47.887  1.00  0.00     0.075 A 
HETATM    4  C   UNL     1      19.563  51.452  49.094  1.00  0.00    -0.021 A 
HETATM    5  C   UNL     1      18.616  52.137  49.998  1.00  0.00     0.075 C 
HETATM    6  C   UNL     1      19.598  50.499  46.886  1.00  0.00     0.038 A 
HETATM    7  C   UNL     1      20.910  50.069  47.122  1.00  0.00     0.016 A 
HETATM    8  C   UNL     1      21.571  50.323  48.351  1.00  0.00    -0.005 A 
HETATM    9  C   UNL     1      20.860  51.029  49.344  1.00  0.00     0.024 A 
ENDROOT
BRANCH   1  10
HETATM   10  C   UNL     1      16.088  52.053  49.598  1.00  0.00     0.155 C 
BRANCH  10  11
HETATM   11  N   UNL     1      15.027  53.002  49.310  1.00  0.00    -0.359 N 
HETATM   12  C   UNL     1      14.473  53.801  50.287  1.00  0.00     0.219 C 
HETATM   13  O   UNL     1      14.799  53.739  51.466  1.00  0.00    -0.274 OA
HETATM   14  H   UNL     1      14.799  53.183  48.340  1.00  0.00     0.162 HD
BRANCH  12  15
HETATM   15  C   UNL     1      13.434  54.760  49.748  1.00  0.00     0.128 C 
BRANCH  15  16
HETATM   16  C   UNL     1      13.563  56.165  50.345  1.00  0.00     0.094 C 
HETATM   17  N   UNL     1      13.280  56.125  51.778  1.00  0.00    -0.362 N 
HETATM   18  C   UNL     1      13.741  57.033  52.674  1.00  0.00     0.168 C 
HETATM   19  H   UNL     1      12.490  55.581  52.108  1.00  0.00     0.162 HD
HETATM   20  N   UNL     1      14.694  57.901  52.256  1.00  0.00    -0.363 N 
HETATM   21  S   UNL     1      13.188  57.048  54.238  1.00  0.00    -0.041 SA
HETATM   22  C   UNL     1      15.089  58.078  50.871  1.00  0.00     0.081 C 
HETATM   23  H   UNL     1      15.000  58.581  52.942  1.00  0.00     0.162 HD
HETATM   24  C   UNL     1      14.291  59.210  50.226  1.00  0.00     0.032 C 
HETATM   25  C   UNL     1      14.959  56.757  50.114  1.00  0.00     0.050 C 
ENDBRANCH  15  16
ENDBRANCH  12  15
ENDBRANCH  10  11
ENDBRANCH   1  10
BRANCH   8  26
HETATM   26  C   UNL     1      22.946  49.853  48.612  1.00  0.00     0.089 A 
HETATM   27  N   UNL     1      23.084  48.923  49.590  1.00  0.00    -0.147 NA
HETATM   28  N   UNL     1      24.320  48.418  49.913  1.00  0.00    -0.124 NA
HETATM   29  C   UNL     1      25.409  48.853  49.253  1.00  0.00     0.185 A 
HETATM   30  C   UNL     1      25.323  49.802  48.255  1.00  0.00     0.062 A 
HETATM   31  C   UNL     1      24.069  50.314  47.930  1.00  0.00     0.038 A 
BRANCH  29  32
HETATM   32  O   UNL     1      26.663  48.366  49.552  1.00  0.00    -0.338 OA
HETATM   33  C   UNL     1      27.711  49.197  49.057  1.00  0.00     0.211 C 
ENDBRANCH  29  32
ENDBRANCH   8  26
TORSDOF 6
ENDMDL
MODEL 10
REMARK VINA RESULT:      -8.4      3.934     11.085
REMARK  6 active torsions:
REMARK  status: ('A' for Active; 'I' for Inactive)
REMARK    1  A    between atoms: C_7  and  C_8 
REMARK    2  A    between atoms: C_8  and  C_9 
REMARK       I    between atoms: C_9  and  N_10 
REMARK    3  A    between atoms: N_10  and  C_11 
REMARK    4  A    between atoms: C_11  and  C_12 
REMARK    5  A    between atoms: C_19  and  C_20 
REMARK    6  A    between atoms: C_23  and  O_24 
ROOT
HETATM    1  C   UNL     1      23.272  47.403  48.840  1.00  0.00     0.151 C 
HETATM    2  O   UNL     1      23.244  45.988  49.187  1.00  0.00    -0.343 OA
HETATM    3  C   UNL     1      24.152  45.860  50.200  1.00  0.00     0.075 A 
HETATM    4  C   UNL     1      24.654  47.057  50.663  1.00  0.00    -0.021 A 
HETATM    5  C   UNL     1      24.025  48.180  49.935  1.00  0.00     0.075 C 
HETATM    6  C   UNL     1      24.529  44.657  50.757  1.00  0.00     0.038 A 
HETATM    7  C   UNL     1      25.447  44.678  51.814  1.00  0.00     0.016 A 
HETATM    8  C   UNL     1      25.985  45.891  52.314  1.00  0.00    -0.005 A 
HETATM    9  C   UNL     1      25.561  47.094  51.711  1.00  0.00     0.024 A 
ENDROOT
BRANCH   1  10
HETATM   10  C   UNL     1      21.823  47.879  48.662  1.00  0.00     0.155 C 
BRANCH  10  11
HETATM   11  N   UNL     1      21.618  49.307  48.839  1.00  0.00    -0.359 N 
HETATM   12  C   UNL     1      20.672  50.006  48.120  1.00  0.00     0.219 C 
HETATM   13  O   UNL     1      19.973  49.491  47.257  1.00  0.00    -0.274 OA
HETATM   14  H   UNL     1      22.079  49.761  49.618  1.00  0.00     0.162 HD
BRANCH  12  15
HETATM   15  C   UNL     1      20.588  51.465  48.518  1.00  0.00     0.128 C 
BRANCH  15  16
HETATM   16  C   UNL     1      19.145  51.976  48.578  1.00  0.00     0.094 C 
HETATM   17  N   UNL     1      18.518  51.850  47.264  1.00  0.00    -0.362 N 
HETATM   18  C   UNL     1      17.180  51.756  47.062  1.00  0.00     0.168 C 
HETATM   19  H   UNL     1      19.043  52.122  46.441  1.00  0.00     0.162 HD
HETATM   20  N   UNL     1      16.393  51.547  48.145  1.00  0.00    -0.363 N 
HETATM   21  S   UNL     1      16.537  51.850  45.535  1.00  0.00    -0.041 SA
HETATM   22  C   UNL     1      16.850  51.643  49.519  1.00  0.00     0.081 C 
HETATM   23  H   UNL     1      15.397  51.504  47.963  1.00  0.00     0.162 HD
HETATM   24  C   UNL     1      16.607  53.048  50.068  1.00  0.00     0.032 C 
HETATM   25  C   UNL     1      18.313  51.215  49.617  1.00  0.00     0.050 C 
ENDBRANCH  15  16
ENDBRANCH  12  15
ENDBRANCH  10  11
ENDBRANCH   1  10
BRANCH   8  26
HETATM   26  C   UNL     1      26.938  45.920  53.442  1.00  0.00     0.089 A 
HETATM   27  N   UNL     1      27.642  44.781  53.658  1.00  0.00    -0.147 NA
HETATM   28  N   UNL     1      28.556  44.701  54.681  1.00  0.00    -0.124 NA
HETATM   29  C   UNL     1      28.753  45.766  55.480  1.00  0.00     0.185 A 
HETATM   30  C   UNL     1      28.058  46.945  55.306  1.00  0.00     0.062 A 
HETATM   31  C   UNL     1      27.131  47.023  54.269  1.00  0.00     0.038 A 
BRANCH  29  32
HETATM   32  O   UNL     1      29.663  45.720  56.515  1.00  0.00    -0.338 OA
HETATM   33  C   UNL     1      30.681  44.743  56.313  1.00  0.00     0.211 C 
ENDBRANCH  29  32
ENDBRANCH   8  26
TORSDOF 6
ENDMDL
