MODEL 1
REMARK VINA RESULT:      -9.1      0.000      0.000
REMARK  9 active torsions:
REMARK  status: ('A' for Active; 'I' for Inactive)
REMARK    1  A    between atoms: C_2  and  O_3 
REMARK    2  A    between atoms: O_3  and  C_4 
REMARK    3  A    between atoms: C_5  and  C_6 
REMARK    4  A    between atoms: N_7  and  C_9 
REMARK    5  A    between atoms: C_9  and  C_10 
REMARK       I    between atoms: C_10  and  N_11 
REMARK    6  A    between atoms: N_11  and  C_12 
REMARK    7  A    between atoms: C_20  and  C_21 
REMARK    8  A    between atoms: C_21  and  O_22 
REMARK    9  A    between atoms: C_28  and  O_29 
ROOT
HETATM    1  C   UNL     1      23.558  46.787  48.419  1.00  0.00     0.231 C 
HETATM    2  N   UNL     1      24.605  46.354  49.459  1.00  0.00    -0.054 N 
HETATM    3  H   UNL     1      25.359  47.014  49.204  1.00  0.00     0.281 HD
HETATM    4  C   UNL     1      25.165  44.984  49.244  1.00  0.00     0.239 C 
HETATM    5  C   UNL     1      24.053  43.956  49.168  1.00  0.00     0.066 C 
HETATM    6  C   UNL     1      23.111  44.298  48.015  1.00  0.00     0.065 C 
HETATM    7  C   UNL     1      22.471  45.690  48.244  1.00  0.00     0.055 C 
HETATM    8  C   UNL     1      22.026  43.222  47.844  1.00  0.00     0.038 C 
HETATM    9  C   UNL     1      21.081  43.552  46.689  1.00  0.00     0.003 C 
HETATM   10  C   UNL     1      20.476  44.942  46.843  1.00  0.00     0.001 C 
HETATM   11  C   UNL     1      21.539  46.017  47.050  1.00  0.00     0.010 C 
ENDROOT
BRANCH   2  12
HETATM   12  C   UNL     1      24.306  46.687  50.935  1.00  0.00     0.338 C 
BRANCH  12  13
HETATM   13  C   UNL     1      25.601  46.856  51.752  1.00  0.00     0.248 C 
HETATM   14  N   UNL     1      25.632  45.973  52.826  1.00  0.00    -0.319 N 
HETATM   15  H   UNL     1      24.760  45.580  53.169  1.00  0.00     0.169 HD
HETATM   16  O   UNL     1      26.446  47.678  51.427  1.00  0.00    -0.271 OA
BRANCH  14  17
HETATM   17  C   UNL     1      26.743  45.545  53.539  1.00  0.00     0.094 A 
HETATM   18  S   UNL     1      27.245  46.360  54.941  1.00  0.00    -0.075 SA
HETATM   19  C   UNL     1      28.582  45.341  55.139  1.00  0.00    -0.008 A 
HETATM   20  C   UNL     1      28.650  44.359  54.171  1.00  0.00    -0.026 A 
HETATM   21  C   UNL     1      29.556  45.516  56.265  1.00  0.00     0.047 C 
HETATM   22  C   UNL     1      29.775  43.356  54.145  1.00  0.00     0.041 C 
HETATM   23  C   UNL     1      27.588  44.494  53.194  1.00  0.00     0.080 A 
HETATM   24  C   UNL     1      30.595  43.356  55.444  1.00  0.00     0.005 C 
HETATM   25  C   UNL     1      30.866  44.777  55.950  1.00  0.00     0.005 C 
BRANCH  23  26
HETATM   26  C   UNL     1      27.470  43.664  51.987  1.00  0.00     0.296 C 
HETATM   27  O   UNL     1      27.705  44.077  50.862  1.00  0.00    -0.259 OA
BRANCH  26  28
HETATM   28  O   UNL     1      27.009  42.394  52.249  1.00  0.00    -0.322 OA
HETATM   29  C   UNL     1      27.767  41.333  51.648  1.00  0.00     0.213 C 
ENDBRANCH  26  28
ENDBRANCH  23  26
ENDBRANCH  14  17
ENDBRANCH  12  13
ENDBRANCH   2  12
BRANCH   1  30
HETATM   30  C   UNL     1      23.096  48.215  48.695  1.00  0.00     0.006 A 
HETATM   31  C   UNL     1      24.048  49.257  48.690  1.00  0.00     0.077 A 
HETATM   32  C   UNL     1      23.665  50.566  49.000  1.00  0.00     0.037 A 
HETATM   33  C   UNL     1      22.335  50.854  49.305  1.00  0.00     0.003 A 
HETATM   34  C   UNL     1      21.387  49.839  49.319  1.00  0.00     0.001 A 
HETATM   35  C   UNL     1      21.764  48.528  49.026  1.00  0.00     0.012 A 
BRANCH  31  36
HETATM   36  O   UNL     1      25.346  48.875  48.439  1.00  0.00    -0.351 OA
BRANCH  36  37
HETATM   37  C   UNL     1      26.267  49.939  48.166  1.00  0.00     0.171 C 
HETATM   38  C   UNL     1      27.570  49.617  48.875  1.00  0.00     0.034 C 
ENDBRANCH  36  37
ENDBRANCH  31  36
ENDBRANCH   1  30
BRANCH   6  39
HETATM   39  O   UNL     1      23.916  44.353  46.830  1.00  0.00    -0.389 OA
HETATM   40  H   UNL     1      24.862  44.304  47.076  1.00  0.00     0.210 HD
ENDBRANCH   6  39
TORSDOF 9
ENDMDL
MODEL 2
REMARK VINA RESULT:      -8.8      1.564      2.085
REMARK  9 active torsions:
REMARK  status: ('A' for Active; 'I' for Inactive)
REMARK    1  A    between atoms: C_2  and  O_3 
REMARK    2  A    between atoms: O_3  and  C_4 
REMARK    3  A    between atoms: C_5  and  C_6 
REMARK    4  A    between atoms: N_7  and  C_9 
REMARK    5  A    between atoms: C_9  and  C_10 
REMARK       I    between atoms: C_10  and  N_11 
REMARK    6  A    between atoms: N_11  and  C_12 
REMARK    7  A    between atoms: C_20  and  C_21 
REMARK    8  A    between atoms: C_21  and  O_22 
REMARK    9  A    between atoms: C_28  and  O_29 
ROOT
HETATM    1  C   UNL     1      24.662  45.208  49.120  1.00  0.00     0.231 C 
HETATM    2  N   UNL     1      25.454  44.989  50.420  1.00  0.00    -0.054 N 
HETATM    3  H   UNL     1      26.208  45.678  50.261  1.00  0.00     0.281 HD
HETATM    4  C   UNL     1      26.126  43.657  50.522  1.00  0.00     0.239 C 
HETATM    5  C   UNL     1      25.124  42.535  50.328  1.00  0.00     0.066 C 
HETATM    6  C   UNL     1      24.467  42.660  48.956  1.00  0.00     0.065 C 
HETATM    7  C   UNL     1      23.713  44.008  48.846  1.00  0.00     0.055 C 
HETATM    8  C   UNL     1      23.517  41.482  48.683  1.00  0.00     0.038 C 
HETATM    9  C   UNL     1      22.858  41.594  47.309  1.00  0.00     0.003 C 
HETATM   10  C   UNL     1      22.155  42.935  47.136  1.00  0.00     0.001 C 
HETATM   11  C   UNL     1      23.075  44.115  47.438  1.00  0.00     0.010 C 
ENDROOT
BRANCH   2  12
HETATM   12  C   UNL     1      24.793  45.461  51.731  1.00  0.00     0.338 C 
BRANCH  12  13
HETATM   13  C   UNL     1      25.469  44.835  52.965  1.00  0.00     0.248 C 
HETATM   14  N   UNL     1      26.843  45.053  52.947  1.00  0.00    -0.319 N 
HETATM   15  H   UNL     1      27.298  45.265  52.064  1.00  0.00     0.169 HD
HETATM   16  O   UNL     1      24.810  44.245  53.810  1.00  0.00    -0.271 OA
BRANCH  14  17
HETATM   17  C   UNL     1      27.722  45.004  54.019  1.00  0.00     0.094 A 
HETATM   18  S   UNL     1      27.618  46.134  55.282  1.00  0.00    -0.075 SA
HETATM   19  C   UNL     1      28.965  45.480  56.072  1.00  0.00    -0.008 A 
HETATM   20  C   UNL     1      29.490  44.386  55.412  1.00  0.00    -0.026 A 
HETATM   21  C   UNL     1      29.490  46.050  57.355  1.00  0.00     0.047 C 
HETATM   22  C   UNL     1      30.706  43.663  55.930  1.00  0.00     0.041 C 
HETATM   23  C   UNL     1      28.786  44.120  54.172  1.00  0.00     0.080 A 
HETATM   24  C   UNL     1      31.059  44.061  57.370  1.00  0.00     0.005 C 
HETATM   25  C   UNL     1      30.930  45.571  57.595  1.00  0.00     0.005 C 
BRANCH  23  26
HETATM   26  C   UNL     1      29.189  43.093  53.202  1.00  0.00     0.296 C 
HETATM   27  O   UNL     1      30.264  43.100  52.622  1.00  0.00    -0.259 OA
BRANCH  26  28
HETATM   28  O   UNL     1      28.207  42.157  52.970  1.00  0.00    -0.322 OA
HETATM   29  C   UNL     1      28.638  40.982  52.266  1.00  0.00     0.213 C 
ENDBRANCH  26  28
ENDBRANCH  23  26
ENDBRANCH  14  17
ENDBRANCH  12  13
ENDBRANCH   2  12
BRANCH   1  30
HETATM   30  C   UNL     1      24.067  46.613  49.092  1.00  0.00     0.006 A 
HETATM   31  C   UNL     1      24.936  47.726  49.109  1.00  0.00     0.077 A 
HETATM   32  C   UNL     1      24.418  49.024  49.146  1.00  0.00     0.037 A 
HETATM   33  C   UNL     1      23.039  49.230  49.155  1.00  0.00     0.003 A 
HETATM   34  C   UNL     1      22.171  48.146  49.142  1.00  0.00     0.001 A 
HETATM   35  C   UNL     1      22.679  46.847  49.120  1.00  0.00     0.012 A 
BRANCH  31  36
HETATM   36  O   UNL     1      26.278  47.431  49.163  1.00  0.00    -0.351 OA
BRANCH  36  37
HETATM   37  C   UNL     1      27.069  48.280  50.005  1.00  0.00     0.171 C 
HETATM   38  C   UNL     1      27.936  49.145  49.107  1.00  0.00     0.034 C 
ENDBRANCH  36  37
ENDBRANCH  31  36
ENDBRANCH   1  30
BRANCH   6  39
HETATM   39  O   UNL     1      25.527  42.648  47.990  1.00  0.00    -0.389 OA
HETATM   40  H   UNL     1      25.359  41.944  47.332  1.00  0.00     0.210 HD
ENDBRANCH   6  39
TORSDOF 9
ENDMDL
MODEL 3
REMARK VINA RESULT:      -8.6      2.324      8.256
REMARK  9 active torsions:
REMARK  status: ('A' for Active; 'I' for Inactive)
REMARK    1  A    between atoms: C_2  and  O_3 
REMARK    2  A    between atoms: O_3  and  C_4 
REMARK    3  A    between atoms: C_5  and  C_6 
REMARK    4  A    between atoms: N_7  and  C_9 
REMARK    5  A    between atoms: C_9  and  C_10 
REMARK       I    between atoms: C_10  and  N_11 
REMARK    6  A    between atoms: N_11  and  C_12 
REMARK    7  A    between atoms: C_20  and  C_21 
REMARK    8  A    between atoms: C_21  and  O_22 
REMARK    9  A    between atoms: C_28  and  O_29 
ROOT
HETATM    1  C   UNL     1      27.569  41.581  51.846  1.00  0.00     0.231 C 
HETATM    2  N   UNL     1      26.708  42.629  51.119  1.00  0.00    -0.054 N 
HETATM    3  H   UNL     1      26.139  42.946  51.922  1.00  0.00     0.281 HD
HETATM    4  C   UNL     1      25.742  42.062  50.129  1.00  0.00     0.239 C 
HETATM    5  C   UNL     1      26.461  41.189  49.118  1.00  0.00     0.066 C 
HETATM    6  C   UNL     1      27.171  40.044  49.836  1.00  0.00     0.065 C 
HETATM    7  C   UNL     1      28.221  40.605  50.828  1.00  0.00     0.055 C 
HETATM    8  C   UNL     1      27.829  39.081  48.835  1.00  0.00     0.038 C 
HETATM    9  C   UNL     1      28.538  37.927  49.543  1.00  0.00     0.003 C 
HETATM   10  C   UNL     1      29.538  38.435  50.574  1.00  0.00     0.001 C 
HETATM   11  C   UNL     1      28.908  39.421  51.555  1.00  0.00     0.010 C 
ENDROOT
BRANCH   2  12
HETATM   12  C   UNL     1      27.420  43.910  50.641  1.00  0.00     0.338 C 
BRANCH  12  13
HETATM   13  C   UNL     1      26.537  45.157  50.837  1.00  0.00     0.248 C 
HETATM   14  N   UNL     1      26.084  45.645  49.615  1.00  0.00    -0.319 N 
HETATM   15  H   UNL     1      26.589  45.401  48.767  1.00  0.00     0.169 HD
HETATM   16  O   UNL     1      26.306  45.594  51.955  1.00  0.00    -0.271 OA
BRANCH  14  17
HETATM   17  C   UNL     1      24.994  46.471  49.385  1.00  0.00     0.094 A 
HETATM   18  S   UNL     1      25.127  48.155  49.556  1.00  0.00    -0.075 SA
HETATM   19  C   UNL     1      23.489  48.391  49.199  1.00  0.00    -0.008 A 
HETATM   20  C   UNL     1      22.830  47.210  48.918  1.00  0.00    -0.026 A 
HETATM   21  C   UNL     1      22.864  49.753  49.190  1.00  0.00     0.047 C 
HETATM   22  C   UNL     1      21.358  47.187  48.594  1.00  0.00     0.041 C 
HETATM   23  C   UNL     1      23.703  46.061  49.064  1.00  0.00     0.080 A 
HETATM   24  C   UNL     1      20.797  48.586  48.304  1.00  0.00     0.005 C 
HETATM   25  C   UNL     1      21.335  49.634  49.284  1.00  0.00     0.005 C 
BRANCH  23  26
HETATM   26  C   UNL     1      23.256  44.668  48.942  1.00  0.00     0.296 C 
HETATM   27  O   UNL     1      22.480  44.139  49.724  1.00  0.00    -0.259 OA
BRANCH  26  28
HETATM   28  O   UNL     1      23.846  44.002  47.892  1.00  0.00    -0.322 OA
HETATM   29  C   UNL     1      23.147  42.832  47.439  1.00  0.00     0.213 C 
ENDBRANCH  26  28
ENDBRANCH  23  26
ENDBRANCH  14  17
ENDBRANCH  12  13
ENDBRANCH   2  12
BRANCH   1  30
HETATM   30  C   UNL     1      28.474  42.257  52.871  1.00  0.00     0.006 A 
HETATM   31  C   UNL     1      27.887  42.956  53.948  1.00  0.00     0.077 A 
HETATM   32  C   UNL     1      28.691  43.636  54.869  1.00  0.00     0.037 A 
HETATM   33  C   UNL     1      30.078  43.620  54.736  1.00  0.00     0.003 A 
HETATM   34  C   UNL     1      30.670  42.941  53.679  1.00  0.00     0.001 A 
HETATM   35  C   UNL     1      29.876  42.272  52.748  1.00  0.00     0.012 A 
BRANCH  31  36
HETATM   36  O   UNL     1      26.512  42.972  53.968  1.00  0.00    -0.351 OA
BRANCH  36  37
HETATM   37  C   UNL     1      25.912  43.520  55.149  1.00  0.00     0.171 C 
HETATM   38  C   UNL     1      24.850  44.512  54.712  1.00  0.00     0.034 C 
ENDBRANCH  36  37
ENDBRANCH  31  36
ENDBRANCH   1  30
BRANCH   6  39
HETATM   39  O   UNL     1      26.167  39.341  50.581  1.00  0.00    -0.389 OA
HETATM   40  H   UNL     1      25.372  39.904  50.666  1.00  0.00     0.210 HD
ENDBRANCH   6  39
TORSDOF 9
ENDMDL
MODEL 4
REMARK VINA RESULT:      -8.3     11.217     12.467
REMARK  9 active torsions:
REMARK  status: ('A' for Active; 'I' for Inactive)
REMARK    1  A    between atoms: C_2  and  O_3 
REMARK    2  A    between atoms: O_3  and  C_4 
REMARK    3  A    between atoms: C_5  and  C_6 
REMARK    4  A    between atoms: N_7  and  C_9 
REMARK    5  A    between atoms: C_9  and  C_10 
REMARK       I    between atoms: C_10  and  N_11 
REMARK    6  A    between atoms: N_11  and  C_12 
REMARK    7  A    between atoms: C_20  and  C_21 
REMARK    8  A    between atoms: C_21  and  O_22 
REMARK    9  A    between atoms: C_28  and  O_29 
ROOT
HETATM    1  C   UNL     1      28.492  48.346  38.964  1.00  0.00     0.231 C 
HETATM    2  N   UNL     1      29.877  47.805  39.357  1.00  0.00    -0.054 N 
HETATM    3  H   UNL     1      30.461  48.496  38.857  1.00  0.00     0.281 HD
HETATM    4  C   UNL     1      30.216  46.474  38.767  1.00  0.00     0.239 C 
HETATM    5  C   UNL     1      29.145  45.452  39.101  1.00  0.00     0.066 C 
HETATM    6  C   UNL     1      27.799  45.916  38.550  1.00  0.00     0.065 C 
HETATM    7  C   UNL     1      27.397  47.268  39.191  1.00  0.00     0.055 C 
HETATM    8  C   UNL     1      26.707  44.858  38.782  1.00  0.00     0.038 C 
HETATM    9  C   UNL     1      25.356  45.310  38.229  1.00  0.00     0.003 C 
HETATM   10  C   UNL     1      24.951  46.668  38.788  1.00  0.00     0.001 C 
HETATM   11  C   UNL     1      26.039  47.721  38.597  1.00  0.00     0.010 C 
ENDROOT
BRANCH   2  12
HETATM   12  C   UNL     1      30.298  47.966  40.832  1.00  0.00     0.338 C 
BRANCH  12  13
HETATM   13  C   UNL     1      31.813  48.214  40.966  1.00  0.00     0.248 C 
HETATM   14  N   UNL     1      32.086  49.573  41.091  1.00  0.00    -0.319 N 
HETATM   15  H   UNL     1      31.400  50.248  40.765  1.00  0.00     0.169 HD
HETATM   16  O   UNL     1      32.605  47.283  40.962  1.00  0.00    -0.271 OA
BRANCH  14  17
HETATM   17  C   UNL     1      33.230  50.162  41.610  1.00  0.00     0.094 A 
HETATM   18  S   UNL     1      34.758  49.821  40.955  1.00  0.00    -0.075 SA
HETATM   19  C   UNL     1      35.543  50.795  42.096  1.00  0.00    -0.008 A 
HETATM   20  C   UNL     1      34.662  51.410  42.964  1.00  0.00    -0.026 A 
HETATM   21  C   UNL     1      37.033  50.952  42.120  1.00  0.00     0.047 C 
HETATM   22  C   UNL     1      35.149  52.306  44.075  1.00  0.00     0.041 C 
HETATM   23  C   UNL     1      33.292  51.011  42.711  1.00  0.00     0.080 A 
HETATM   24  C   UNL     1      36.627  52.690  43.917  1.00  0.00     0.005 C 
HETATM   25  C   UNL     1      37.486  51.497  43.482  1.00  0.00     0.005 C 
BRANCH  23  26
HETATM   26  C   UNL     1      32.151  51.413  43.544  1.00  0.00     0.296 C 
HETATM   27  O   UNL     1      32.174  51.406  44.766  1.00  0.00    -0.259 OA
BRANCH  26  28
HETATM   28  O   UNL     1      31.035  51.739  42.809  1.00  0.00    -0.322 OA
HETATM   29  C   UNL     1      31.103  52.998  42.120  1.00  0.00     0.213 C 
ENDBRANCH  26  28
ENDBRANCH  23  26
ENDBRANCH  14  17
ENDBRANCH  12  13
ENDBRANCH   2  12
BRANCH   1  30
HETATM   30  C   UNL     1      28.271  49.730  39.569  1.00  0.00     0.006 A 
HETATM   31  C   UNL     1      28.915  50.843  38.987  1.00  0.00     0.077 A 
HETATM   32  C   UNL     1      28.781  52.113  39.556  1.00  0.00     0.037 A 
HETATM   33  C   UNL     1      27.999  52.292  40.697  1.00  0.00     0.003 A 
HETATM   34  C   UNL     1      27.363  51.206  41.284  1.00  0.00     0.001 A 
HETATM   35  C   UNL     1      27.504  49.933  40.731  1.00  0.00     0.012 A 
BRANCH  31  36
HETATM   36  O   UNL     1      29.715  50.567  37.902  1.00  0.00    -0.351 OA
BRANCH  36  37
HETATM   37  C   UNL     1      30.617  51.611  37.512  1.00  0.00     0.171 C 
HETATM   38  C   UNL     1      32.018  51.189  37.917  1.00  0.00     0.034 C 
ENDBRANCH  36  37
ENDBRANCH  31  36
ENDBRANCH   1  30
BRANCH   6  39
HETATM   39  O   UNL     1      27.977  46.112  37.141  1.00  0.00    -0.389 OA
HETATM   40  H   UNL     1      27.426  45.470  36.651  1.00  0.00     0.210 HD
ENDBRANCH   6  39
TORSDOF 9
ENDMDL
MODEL 5
REMARK VINA RESULT:      -8.2      3.287      5.292
REMARK  9 active torsions:
REMARK  status: ('A' for Active; 'I' for Inactive)
REMARK    1  A    between atoms: C_2  and  O_3 
REMARK    2  A    between atoms: O_3  and  C_4 
REMARK    3  A    between atoms: C_5  and  C_6 
REMARK    4  A    between atoms: N_7  and  C_9 
REMARK    5  A    between atoms: C_9  and  C_10 
REMARK       I    between atoms: C_10  and  N_11 
REMARK    6  A    between atoms: N_11  and  C_12 
REMARK    7  A    between atoms: C_20  and  C_21 
REMARK    8  A    between atoms: C_21  and  O_22 
REMARK    9  A    between atoms: C_28  and  O_29 
ROOT
HETATM    1  C   UNL     1      26.309  41.738  48.484  1.00  0.00     0.231 C 
HETATM    2  N   UNL     1      27.379  41.517  49.566  1.00  0.00    -0.054 N 
HETATM    3  H   UNL     1      27.687  42.497  49.683  1.00  0.00     0.281 HD
HETATM    4  C   UNL     1      28.583  40.759  49.105  1.00  0.00     0.239 C 
HETATM    5  C   UNL     1      28.178  39.430  48.496  1.00  0.00     0.066 C 
HETATM    6  C   UNL     1      27.250  39.668  47.307  1.00  0.00     0.065 C 
HETATM    7  C   UNL     1      25.967  40.402  47.769  1.00  0.00     0.055 C 
HETATM    8  C   UNL     1      26.899  38.348  46.602  1.00  0.00     0.038 C 
HETATM    9  C   UNL     1      25.975  38.575  45.406  1.00  0.00     0.003 C 
HETATM   10  C   UNL     1      24.725  39.349  45.805  1.00  0.00     0.001 C 
HETATM   11  C   UNL     1      25.057  40.647  46.539  1.00  0.00     0.010 C 
ENDROOT
BRANCH   2  12
HETATM   12  C   UNL     1      26.883  41.117  50.970  1.00  0.00     0.338 C 
BRANCH  12  13
HETATM   13  C   UNL     1      27.964  41.352  52.043  1.00  0.00     0.248 C 
HETATM   14  N   UNL     1      28.168  42.712  52.256  1.00  0.00    -0.319 N 
HETATM   15  H   UNL     1      27.893  43.373  51.535  1.00  0.00     0.169 HD
HETATM   16  O   UNL     1      28.518  40.411  52.593  1.00  0.00    -0.271 OA
BRANCH  14  17
HETATM   17  C   UNL     1      28.736  43.319  53.366  1.00  0.00     0.094 A 
HETATM   18  S   UNL     1      30.246  42.813  53.957  1.00  0.00    -0.075 SA
HETATM   19  C   UNL     1      30.188  43.909  55.245  1.00  0.00    -0.008 A 
HETATM   20  C   UNL     1      29.047  44.688  55.230  1.00  0.00    -0.026 A 
HETATM   21  C   UNL     1      31.283  43.999  56.265  1.00  0.00     0.047 C 
HETATM   22  C   UNL     1      28.782  45.717  56.300  1.00  0.00     0.041 C 
HETATM   23  C   UNL     1      28.161  44.320  54.144  1.00  0.00     0.080 A 
HETATM   24  C   UNL     1      30.020  46.004  57.161  1.00  0.00     0.005 C 
HETATM   25  C   UNL     1      30.777  44.721  57.522  1.00  0.00     0.005 C 
BRANCH  23  26
HETATM   26  C   UNL     1      26.824  44.894  53.942  1.00  0.00     0.296 C 
HETATM   27  O   UNL     1      25.789  44.277  54.147  1.00  0.00    -0.259 OA
BRANCH  26  28
HETATM   28  O   UNL     1      26.858  46.175  53.442  1.00  0.00    -0.322 OA
HETATM   29  C   UNL     1      26.016  47.120  54.122  1.00  0.00     0.213 C 
ENDBRANCH  26  28
ENDBRANCH  23  26
ENDBRANCH  14  17
ENDBRANCH  12  13
ENDBRANCH   2  12
BRANCH   1  30
HETATM   30  C   UNL     1      25.156  42.568  49.040  1.00  0.00     0.006 A 
HETATM   31  C   UNL     1      25.385  43.920  49.379  1.00  0.00     0.077 A 
HETATM   32  C   UNL     1      24.363  44.687  49.948  1.00  0.00     0.037 A 
HETATM   33  C   UNL     1      23.107  44.127  50.174  1.00  0.00     0.003 A 
HETATM   34  C   UNL     1      22.867  42.797  49.851  1.00  0.00     0.001 A 
HETATM   35  C   UNL     1      23.884  42.020  49.297  1.00  0.00     0.012 A 
BRANCH  31  36
HETATM   36  O   UNL     1      26.668  44.373  49.180  1.00  0.00    -0.351 OA
BRANCH  36  37
HETATM   37  C   UNL     1      27.151  45.319  50.144  1.00  0.00     0.171 C 
HETATM   38  C   UNL     1      27.149  46.688  49.489  1.00  0.00     0.034 C 
ENDBRANCH  36  37
ENDBRANCH  31  36
ENDBRANCH   1  30
BRANCH   6  39
HETATM   39  O   UNL     1      27.961  40.517  46.396  1.00  0.00    -0.389 OA
HETATM   40  H   UNL     1      28.192  41.355  46.844  1.00  0.00     0.210 HD
ENDBRANCH   6  39
TORSDOF 9
ENDMDL
MODEL 6
REMARK VINA RESULT:      -8.2      4.516      8.279
REMARK  9 active torsions:
REMARK  status: ('A' for Active; 'I' for Inactive)
REMARK    1  A    between atoms: C_2  and  O_3 
REMARK    2  A    between atoms: O_3  and  C_4 
REMARK    3  A    between atoms: C_5  and  C_6 
REMARK    4  A    between atoms: N_7  and  C_9 
REMARK    5  A    between atoms: C_9  and  C_10 
REMARK       I    between atoms: C_10  and  N_11 
REMARK    6  A    between atoms: N_11  and  C_12 
REMARK    7  A    between atoms: C_20  and  C_21 
REMARK    8  A    between atoms: C_21  and  O_22 
REMARK    9  A    between atoms: C_28  and  O_29 
ROOT
HETATM    1  C   UNL     1      26.378  43.668  51.935  1.00  0.00     0.231 C 
HETATM    2  N   UNL     1      26.416  42.540  50.890  1.00  0.00    -0.054 N 
HETATM    3  H   UNL     1      25.398  42.414  50.761  1.00  0.00     0.281 HD
HETATM    4  C   UNL     1      26.930  41.233  51.404  1.00  0.00     0.239 C 
HETATM    5  C   UNL     1      28.300  41.406  52.031  1.00  0.00     0.066 C 
HETATM    6  C   UNL     1      28.218  42.401  53.186  1.00  0.00     0.065 C 
HETATM    7  C   UNL     1      27.743  43.781  52.670  1.00  0.00     0.055 C 
HETATM    8  C   UNL     1      29.569  42.527  53.911  1.00  0.00     0.038 C 
HETATM    9  C   UNL     1      29.496  43.516  55.073  1.00  0.00     0.003 C 
HETATM   10  C   UNL     1      28.973  44.873  54.619  1.00  0.00     0.001 C 
HETATM   11  C   UNL     1      27.649  44.761  53.867  1.00  0.00     0.010 C 
ENDROOT
BRANCH   2  12
HETATM   12  C   UNL     1      26.925  42.906  49.482  1.00  0.00     0.338 C 
BRANCH  12  13
HETATM   13  C   UNL     1      26.589  41.809  48.453  1.00  0.00     0.248 C 
HETATM   14  N   UNL     1      27.689  41.525  47.650  1.00  0.00    -0.319 N 
HETATM   15  H   UNL     1      28.429  42.215  47.562  1.00  0.00     0.169 HD
HETATM   16  O   UNL     1      25.477  41.300  48.418  1.00  0.00    -0.271 OA
BRANCH  14  17
HETATM   17  C   UNL     1      27.918  40.378  46.904  1.00  0.00     0.094 A 
HETATM   18  S   UNL     1      27.941  40.433  45.207  1.00  0.00    -0.075 SA
HETATM   19  C   UNL     1      28.188  38.763  45.086  1.00  0.00    -0.008 A 
HETATM   20  C   UNL     1      28.286  38.149  46.319  1.00  0.00    -0.026 A 
HETATM   21  C   UNL     1      28.295  38.067  43.763  1.00  0.00     0.047 C 
HETATM   22  C   UNL     1      28.484  36.660  46.444  1.00  0.00     0.041 C 
HETATM   23  C   UNL     1      28.087  39.089  47.404  1.00  0.00     0.080 A 
HETATM   24  C   UNL     1      28.878  36.005  45.112  1.00  0.00     0.005 C 
HETATM   25  C   UNL     1      28.064  36.559  43.938  1.00  0.00     0.005 C 
BRANCH  23  26
HETATM   26  C   UNL     1      28.021  38.709  48.821  1.00  0.00     0.296 C 
HETATM   27  O   UNL     1      27.048  38.170  49.329  1.00  0.00    -0.259 OA
BRANCH  26  28
HETATM   28  O   UNL     1      29.141  39.077  49.531  1.00  0.00    -0.322 OA
HETATM   29  C   UNL     1      29.898  37.989  50.084  1.00  0.00     0.213 C 
ENDBRANCH  26  28
ENDBRANCH  23  26
ENDBRANCH  14  17
ENDBRANCH  12  13
ENDBRANCH   2  12
BRANCH   1  30
HETATM   30  C   UNL     1      25.786  44.935  51.326  1.00  0.00     0.006 A 
HETATM   31  C   UNL     1      24.470  44.899  50.813  1.00  0.00     0.077 A 
HETATM   32  C   UNL     1      23.923  46.028  50.194  1.00  0.00     0.037 A 
HETATM   33  C   UNL     1      24.669  47.201  50.088  1.00  0.00     0.003 A 
HETATM   34  C   UNL     1      25.965  47.251  50.584  1.00  0.00     0.001 A 
HETATM   35  C   UNL     1      26.524  46.126  51.189  1.00  0.00     0.012 A 
BRANCH  31  36
HETATM   36  O   UNL     1      23.830  43.685  50.903  1.00  0.00    -0.351 OA
BRANCH  36  37
HETATM   37  C   UNL     1      22.581  43.586  50.207  1.00  0.00     0.171 C 
HETATM   38  C   UNL     1      22.854  42.962  48.851  1.00  0.00     0.034 C 
ENDBRANCH  36  37
ENDBRANCH  31  36
ENDBRANCH   1  30
BRANCH   6  39
HETATM   39  O   UNL     1      27.236  41.890  54.099  1.00  0.00    -0.389 OA
HETATM   40  H   UNL     1      26.640  41.277  53.625  1.00  0.00     0.210 HD
ENDBRANCH   6  39
TORSDOF 9
ENDMDL
MODEL 7
REMARK VINA RESULT:      -8.1      4.649      9.894
REMARK  9 active torsions:
REMARK  status: ('A' for Active; 'I' for Inactive)
REMARK    1  A    between atoms: C_2  and  O_3 
REMARK    2  A    between atoms: O_3  and  C_4 
REMARK    3  A    between atoms: C_5  and  C_6 
REMARK    4  A    between atoms: N_7  and  C_9 
REMARK    5  A    between atoms: C_9  and  C_10 
REMARK       I    between atoms: C_10  and  N_11 
REMARK    6  A    between atoms: N_11  and  C_12 
REMARK    7  A    between atoms: C_20  and  C_21 
REMARK    8  A    between atoms: C_21  and  O_22 
REMARK    9  A    between atoms: C_28  and  O_29 
ROOT
HETATM    1  C   UNL     1      22.552  46.989  49.199  1.00  0.00     0.231 C 
HETATM    2  N   UNL     1      21.537  46.366  48.226  1.00  0.00    -0.054 N 
HETATM    3  H   UNL     1      20.684  46.838  48.568  1.00  0.00     0.281 HD
HETATM    4  C   UNL     1      21.305  44.902  48.422  1.00  0.00     0.239 C 
HETATM    5  C   UNL     1      22.615  44.140  48.365  1.00  0.00     0.066 C 
HETATM    6  C   UNL     1      23.557  44.648  49.455  1.00  0.00     0.065 C 
HETATM    7  C   UNL     1      23.860  46.151  49.240  1.00  0.00     0.055 C 
HETATM    8  C   UNL     1      24.858  43.830  49.493  1.00  0.00     0.038 C 
HETATM    9  C   UNL     1      25.806  44.327  50.584  1.00  0.00     0.003 C 
HETATM   10  C   UNL     1      26.083  45.819  50.446  1.00  0.00     0.001 C 
HETATM   11  C   UNL     1      24.799  46.642  50.371  1.00  0.00     0.010 C 
ENDROOT
BRANCH   2  12
HETATM   12  C   UNL     1      21.630  46.795  46.748  1.00  0.00     0.338 C 
BRANCH  12  13
HETATM   13  C   UNL     1      20.249  47.175  46.180  1.00  0.00     0.248 C 
HETATM   14  N   UNL     1      19.657  48.181  46.937  1.00  0.00    -0.319 N 
HETATM   15  H   UNL     1      19.967  48.328  47.893  1.00  0.00     0.169 HD
HETATM   16  O   UNL     1      19.806  46.621  45.184  1.00  0.00    -0.271 OA
BRANCH  14  17
HETATM   17  C   UNL     1      18.642  49.045  46.551  1.00  0.00     0.094 A 
HETATM   18  S   UNL     1      18.997  50.509  45.768  1.00  0.00    -0.075 SA
HETATM   19  C   UNL     1      17.365  50.956  45.712  1.00  0.00    -0.008 A 
HETATM   20  C   UNL     1      16.532  49.996  46.255  1.00  0.00    -0.026 A 
HETATM   21  C   UNL     1      16.915  52.256  45.119  1.00  0.00     0.047 C 
HETATM   22  C   UNL     1      15.040  50.199  46.328  1.00  0.00     0.041 C 
HETATM   23  C   UNL     1      17.282  48.878  46.792  1.00  0.00     0.080 A 
HETATM   24  C   UNL     1      14.564  51.381  45.471  1.00  0.00     0.005 C 
HETATM   25  C   UNL     1      15.494  52.592  45.597  1.00  0.00     0.005 C 
BRANCH  23  26
HETATM   26  C   UNL     1      16.677  47.761  47.530  1.00  0.00     0.296 C 
HETATM   27  O   UNL     1      15.940  47.913  48.493  1.00  0.00    -0.259 OA
BRANCH  26  28
HETATM   28  O   UNL     1      17.074  46.529  47.065  1.00  0.00    -0.322 OA
HETATM   29  C   UNL     1      17.524  45.610  48.073  1.00  0.00     0.213 C 
ENDBRANCH  26  28
ENDBRANCH  23  26
ENDBRANCH  14  17
ENDBRANCH  12  13
ENDBRANCH   2  12
BRANCH   1  30
HETATM   30  C   UNL     1      22.671  48.490  48.952  1.00  0.00     0.006 A 
HETATM   31  C   UNL     1      21.551  49.316  49.196  1.00  0.00     0.077 A 
HETATM   32  C   UNL     1      21.612  50.686  48.920  1.00  0.00     0.037 A 
HETATM   33  C   UNL     1      22.782  51.249  48.414  1.00  0.00     0.003 A 
HETATM   34  C   UNL     1      23.890  50.450  48.164  1.00  0.00     0.001 A 
HETATM   35  C   UNL     1      23.834  49.080  48.422  1.00  0.00     0.012 A 
BRANCH  31  36
HETATM   36  O   UNL     1      20.420  48.669  49.636  1.00  0.00    -0.351 OA
BRANCH  36  37
HETATM   37  C   UNL     1      19.424  49.501  50.245  1.00  0.00     0.171 C 
HETATM   38  C   UNL     1      18.642  48.645  51.226  1.00  0.00     0.034 C 
ENDBRANCH  36  37
ENDBRANCH  31  36
ENDBRANCH   1  30
BRANCH   6  39
HETATM   39  O   UNL     1      22.864  44.494  50.701  1.00  0.00    -0.389 OA
HETATM   40  H   UNL     1      23.500  44.238  51.398  1.00  0.00     0.210 HD
ENDBRANCH   6  39
TORSDOF 9
ENDMDL
MODEL 8
REMARK VINA RESULT:      -8.1      3.395      8.663
REMARK  9 active torsions:
REMARK  status: ('A' for Active; 'I' for Inactive)
REMARK    1  A    between atoms: C_2  and  O_3 
REMARK    2  A    between atoms: O_3  and  C_4 
REMARK    3  A    between atoms: C_5  and  C_6 
REMARK    4  A    between atoms: N_7  and  C_9 
REMARK    5  A    between atoms: C_9  and  C_10 
REMARK       I    between atoms: C_10  and  N_11 
REMARK    6  A    between atoms: N_11  and  C_12 
REMARK    7  A    between atoms: C_20  and  C_21 
REMARK    8  A    between atoms: C_21  and  O_22 
REMARK    9  A    between atoms: C_28  and  O_29 
ROOT
HETATM    1  C   UNL     1      23.795  44.738  49.827  1.00  0.00     0.231 C 
HETATM    2  N   UNL     1      22.540  45.462  49.311  1.00  0.00    -0.054 N 
HETATM    3  H   UNL     1      22.189  45.825  50.213  1.00  0.00     0.281 HD
HETATM    4  C   UNL     1      21.471  44.558  48.787  1.00  0.00     0.239 C 
HETATM    5  C   UNL     1      22.023  43.644  47.709  1.00  0.00     0.066 C 
HETATM    6  C   UNL     1      23.159  42.799  48.280  1.00  0.00     0.065 C 
HETATM    7  C   UNL     1      24.307  43.712  48.778  1.00  0.00     0.055 C 
HETATM    8  C   UNL     1      23.678  41.789  47.243  1.00  0.00     0.038 C 
HETATM    9  C   UNL     1      24.812  40.933  47.807  1.00  0.00     0.003 C 
HETATM   10  C   UNL     1      25.937  41.795  48.365  1.00  0.00     0.001 C 
HETATM   11  C   UNL     1      25.433  42.827  49.370  1.00  0.00     0.010 C 
ENDROOT
BRANCH   2  12
HETATM   12  C   UNL     1      22.762  46.731  48.463  1.00  0.00     0.338 C 
BRANCH  12  13
HETATM   13  C   UNL     1      21.427  47.385  48.060  1.00  0.00     0.248 C 
HETATM   14  N   UNL     1      20.747  47.862  49.176  1.00  0.00    -0.319 N 
HETATM   15  H   UNL     1      20.969  47.480  50.091  1.00  0.00     0.169 HD
HETATM   16  O   UNL     1      21.085  47.443  46.887  1.00  0.00    -0.271 OA
BRANCH  14  17
HETATM   17  C   UNL     1      19.749  48.825  49.212  1.00  0.00     0.094 A 
HETATM   18  S   UNL     1      18.155  48.442  48.769  1.00  0.00    -0.075 SA
HETATM   19  C   UNL     1      17.633  50.036  49.001  1.00  0.00    -0.008 A 
HETATM   20  C   UNL     1      18.644  50.867  49.442  1.00  0.00    -0.026 A 
HETATM   21  C   UNL     1      16.216  50.454  48.753  1.00  0.00     0.047 C 
HETATM   22  C   UNL     1      18.404  52.334  49.693  1.00  0.00     0.041 C 
HETATM   23  C   UNL     1      19.912  50.170  49.532  1.00  0.00     0.080 A 
HETATM   24  C   UNL     1      16.911  52.691  49.718  1.00  0.00     0.005 C 
HETATM   25  C   UNL     1      16.133  51.981  48.605  1.00  0.00     0.005 C 
BRANCH  23  26
HETATM   26  C   UNL     1      21.187  50.819  49.863  1.00  0.00     0.296 C 
HETATM   27  O   UNL     1      21.470  51.213  50.984  1.00  0.00    -0.259 OA
BRANCH  26  28
HETATM   28  O   UNL     1      22.003  50.994  48.769  1.00  0.00    -0.322 OA
HETATM   29  C   UNL     1      23.351  50.526  48.931  1.00  0.00     0.213 C 
ENDBRANCH  26  28
ENDBRANCH  23  26
ENDBRANCH  14  17
ENDBRANCH  12  13
ENDBRANCH   2  12
BRANCH   1  30
HETATM   30  C   UNL     1      24.794  45.744  50.391  1.00  0.00     0.006 A 
HETATM   31  C   UNL     1      25.151  45.665  51.754  1.00  0.00     0.077 A 
HETATM   32  C   UNL     1      26.016  46.611  52.313  1.00  0.00     0.037 A 
HETATM   33  C   UNL     1      26.543  47.633  51.525  1.00  0.00     0.003 A 
HETATM   34  C   UNL     1      26.198  47.727  50.183  1.00  0.00     0.001 A 
HETATM   35  C   UNL     1      25.324  46.797  49.621  1.00  0.00     0.012 A 
BRANCH  31  36
HETATM   36  O   UNL     1      24.538  44.665  52.472  1.00  0.00    -0.351 OA
BRANCH  36  37
HETATM   37  C   UNL     1      25.401  43.875  53.302  1.00  0.00     0.171 C 
HETATM   38  C   UNL     1      25.081  44.204  54.749  1.00  0.00     0.034 C 
ENDBRANCH  36  37
ENDBRANCH  31  36
ENDBRANCH   1  30
BRANCH   6  39
HETATM   39  O   UNL     1      22.618  42.089  49.403  1.00  0.00    -0.389 OA
HETATM   40  H   UNL     1      23.018  42.431  50.228  1.00  0.00     0.210 HD
ENDBRANCH   6  39
TORSDOF 9
ENDMDL
MODEL 9
REMARK VINA RESULT:      -8.0      3.018      8.247
REMARK  9 active torsions:
REMARK  status: ('A' for Active; 'I' for Inactive)
REMARK    1  A    between atoms: C_2  and  O_3 
REMARK    2  A    between atoms: O_3  and  C_4 
REMARK    3  A    between atoms: C_5  and  C_6 
REMARK    4  A    between atoms: N_7  and  C_9 
REMARK    5  A    between atoms: C_9  and  C_10 
REMARK       I    between atoms: C_10  and  N_11 
REMARK    6  A    between atoms: N_11  and  C_12 
REMARK    7  A    between atoms: C_20  and  C_21 
REMARK    8  A    between atoms: C_21  and  O_22 
REMARK    9  A    between atoms: C_28  and  O_29 
ROOT
HETATM    1  C   UNL     1      25.053  43.339  50.202  1.00  0.00     0.231 C 
HETATM    2  N   UNL     1      23.646  43.349  49.581  1.00  0.00    -0.054 N 
HETATM    3  H   UNL     1      23.120  43.715  50.392  1.00  0.00     0.281 HD
HETATM    4  C   UNL     1      23.080  41.994  49.300  1.00  0.00     0.239 C 
HETATM    5  C   UNL     1      24.026  41.188  48.430  1.00  0.00     0.066 C 
HETATM    6  C   UNL     1      25.371  41.033  49.136  1.00  0.00     0.065 C 
HETATM    7  C   UNL     1      26.007  42.423  49.387  1.00  0.00     0.055 C 
HETATM    8  C   UNL     1      26.325  40.137  48.329  1.00  0.00     0.038 C 
HETATM    9  C   UNL     1      27.672  39.970  49.030  1.00  0.00     0.003 C 
HETATM   10  C   UNL     1      28.305  41.318  49.351  1.00  0.00     0.001 C 
HETATM   11  C   UNL     1      27.357  42.233  50.122  1.00  0.00     0.010 C 
ENDROOT
BRANCH   2  12
HETATM   12  C   UNL     1      23.378  44.385  48.470  1.00  0.00     0.338 C 
BRANCH  12  13
HETATM   13  C   UNL     1      22.152  45.260  48.794  1.00  0.00     0.248 C 
HETATM   14  N   UNL     1      22.450  46.611  48.642  1.00  0.00    -0.319 N 
HETATM   15  H   UNL     1      23.420  46.911  48.677  1.00  0.00     0.169 HD
HETATM   16  O   UNL     1      21.090  44.755  49.126  1.00  0.00    -0.271 OA
BRANCH  14  17
HETATM   17  C   UNL     1      21.559  47.658  48.456  1.00  0.00     0.094 A 
HETATM   18  S   UNL     1      20.001  47.376  47.841  1.00  0.00    -0.075 SA
HETATM   19  C   UNL     1      19.621  49.026  47.855  1.00  0.00    -0.008 A 
HETATM   20  C   UNL     1      20.649  49.804  48.349  1.00  0.00    -0.026 A 
HETATM   21  C   UNL     1      18.295  49.542  47.383  1.00  0.00     0.047 C 
HETATM   22  C   UNL     1      20.532  51.305  48.430  1.00  0.00     0.041 C 
HETATM   23  C   UNL     1      21.818  49.009  48.671  1.00  0.00     0.080 A 
HETATM   24  C   UNL     1      19.091  51.795  48.223  1.00  0.00     0.005 C 
HETATM   25  C   UNL     1      18.389  51.046  47.086  1.00  0.00     0.005 C 
BRANCH  23  26
HETATM   26  C   UNL     1      23.102  49.572  49.108  1.00  0.00     0.296 C 
HETATM   27  O   UNL     1      23.198  50.456  49.946  1.00  0.00    -0.259 OA
BRANCH  26  28
HETATM   28  O   UNL     1      24.179  49.046  48.432  1.00  0.00    -0.322 OA
HETATM   29  C   UNL     1      25.204  49.990  48.086  1.00  0.00     0.213 C 
ENDBRANCH  26  28
ENDBRANCH  23  26
ENDBRANCH  14  17
ENDBRANCH  12  13
ENDBRANCH   2  12
BRANCH   1  30
HETATM   30  C   UNL     1      25.510  44.764  50.502  1.00  0.00     0.006 A 
HETATM   31  C   UNL     1      25.271  45.305  51.784  1.00  0.00     0.077 A 
HETATM   32  C   UNL     1      25.624  46.628  52.068  1.00  0.00     0.037 A 
HETATM   33  C   UNL     1      26.226  47.420  51.090  1.00  0.00     0.003 A 
HETATM   34  C   UNL     1      26.463  46.903  49.823  1.00  0.00     0.001 A 
HETATM   35  C   UNL     1      26.101  45.589  49.527  1.00  0.00     0.012 A 
BRANCH  31  36
HETATM   36  O   UNL     1      24.618  44.477  52.666  1.00  0.00    -0.351 OA
BRANCH  36  37
HETATM   37  C   UNL     1      25.105  44.496  54.015  1.00  0.00     0.171 C 
HETATM   38  C   UNL     1      26.398  43.701  54.052  1.00  0.00     0.034 C 
ENDBRANCH  36  37
ENDBRANCH  31  36
ENDBRANCH   1  30
BRANCH   6  39
HETATM   39  O   UNL     1      25.101  40.417  50.403  1.00  0.00    -0.389 OA
HETATM   40  H   UNL     1      25.312  39.464  50.353  1.00  0.00     0.210 HD
ENDBRANCH   6  39
TORSDOF 9
ENDMDL
MODEL 10
REMARK VINA RESULT:      -7.8      2.029      2.967
REMARK  9 active torsions:
REMARK  status: ('A' for Active; 'I' for Inactive)
REMARK    1  A    between atoms: C_2  and  O_3 
REMARK    2  A    between atoms: O_3  and  C_4 
REMARK    3  A    between atoms: C_5  and  C_6 
REMARK    4  A    between atoms: N_7  and  C_9 
REMARK    5  A    between atoms: C_9  and  C_10 
REMARK       I    between atoms: C_10  and  N_11 
REMARK    6  A    between atoms: N_11  and  C_12 
REMARK    7  A    between atoms: C_20  and  C_21 
REMARK    8  A    between atoms: C_21  and  O_22 
REMARK    9  A    between atoms: C_28  and  O_29 
ROOT
HETATM    1  C   UNL     1      21.296  46.113  47.093  1.00  0.00     0.231 C 
HETATM    2  N   UNL     1      22.558  45.470  47.694  1.00  0.00    -0.054 N 
HETATM    3  H   UNL     1      23.165  46.307  47.712  1.00  0.00     0.281 HD
HETATM    4  C   UNL     1      23.241  44.486  46.799  1.00  0.00     0.239 C 
HETATM    5  C   UNL     1      22.273  43.408  46.351  1.00  0.00     0.066 C 
HETATM    6  C   UNL     1      21.106  44.043  45.598  1.00  0.00     0.065 C 
HETATM    7  C   UNL     1      20.345  45.025  46.522  1.00  0.00     0.055 C 
HETATM    8  C   UNL     1      20.154  42.972  45.040  1.00  0.00     0.038 C 
HETATM    9  C   UNL     1      18.985  43.596  44.279  1.00  0.00     0.003 C 
HETATM   10  C   UNL     1      18.244  44.617  45.134  1.00  0.00     0.001 C 
HETATM   11  C   UNL     1      19.182  45.667  45.724  1.00  0.00     0.010 C 
ENDROOT
BRANCH   2  12
HETATM   12  C   UNL     1      22.486  45.034  49.171  1.00  0.00     0.338 C 
BRANCH  12  13
HETATM   13  C   UNL     1      23.802  45.328  49.915  1.00  0.00     0.248 C 
HETATM   14  N   UNL     1      23.918  44.539  51.056  1.00  0.00    -0.319 N 
HETATM   15  H   UNL     1      23.080  44.138  51.467  1.00  0.00     0.169 HD
HETATM   16  O   UNL     1      24.593  46.157  49.488  1.00  0.00    -0.271 OA
BRANCH  14  17
HETATM   17  C   UNL     1      25.075  44.222  51.751  1.00  0.00     0.094 A 
HETATM   18  S   UNL     1      25.428  44.964  53.237  1.00  0.00    -0.075 SA
HETATM   19  C   UNL     1      26.908  44.152  53.371  1.00  0.00    -0.008 A 
HETATM   20  C   UNL     1      27.139  43.291  52.316  1.00  0.00    -0.026 A 
HETATM   21  C   UNL     1      27.831  44.365  54.532  1.00  0.00     0.047 C 
HETATM   22  C   UNL     1      28.408  42.483  52.223  1.00  0.00     0.041 C 
HETATM   23  C   UNL     1      26.079  43.354  51.330  1.00  0.00     0.080 A 
HETATM   24  C   UNL     1      29.204  42.484  53.536  1.00  0.00     0.005 C 
HETATM   25  C   UNL     1      29.243  43.873  54.182  1.00  0.00     0.005 C 
BRANCH  23  26
HETATM   26  C   UNL     1      26.104  42.639  50.047  1.00  0.00     0.296 C 
HETATM   27  O   UNL     1      26.878  42.909  49.141  1.00  0.00    -0.259 OA
BRANCH  26  28
HETATM   28  O   UNL     1      25.128  41.674  49.949  1.00  0.00    -0.322 OA
HETATM   29  C   UNL     1      24.561  41.509  48.640  1.00  0.00     0.213 C 
ENDBRANCH  26  28
ENDBRANCH  23  26
ENDBRANCH  14  17
ENDBRANCH  12  13
ENDBRANCH   2  12
BRANCH   1  30
HETATM   30  C   UNL     1      20.713  47.140  48.058  1.00  0.00     0.006 A 
HETATM   31  C   UNL     1      21.432  48.328  48.313  1.00  0.00     0.077 A 
HETATM   32  C   UNL     1      20.951  49.259  49.240  1.00  0.00     0.037 A 
HETATM   33  C   UNL     1      19.752  49.026  49.911  1.00  0.00     0.003 A 
HETATM   34  C   UNL     1      19.035  47.860  49.675  1.00  0.00     0.001 A 
HETATM   35  C   UNL     1      19.514  46.919  48.764  1.00  0.00     0.012 A 
BRANCH  31  36
HETATM   36  O   UNL     1      22.634  48.448  47.655  1.00  0.00    -0.351 OA
BRANCH  36  37
HETATM   37  C   UNL     1      23.659  49.164  48.356  1.00  0.00     0.171 C 
HETATM   38  C   UNL     1      23.846  50.502  47.663  1.00  0.00     0.034 C 
ENDBRANCH  36  37
ENDBRANCH  31  36
ENDBRANCH   1  30
BRANCH   6  39
HETATM   39  O   UNL     1      21.675  44.784  44.510  1.00  0.00    -0.389 OA
HETATM   40  H   UNL     1      21.982  44.164  43.818  1.00  0.00     0.210 HD
ENDBRANCH   6  39
TORSDOF 9
ENDMDL
