MODEL 1
REMARK VINA RESULT:     -10.2      0.000      0.000
REMARK  5 active torsions:
REMARK  status: ('A' for Active; 'I' for Inactive)
REMARK    1  A    between atoms: C_2  and  O_4 
REMARK    2  A    between atoms: O_4  and  C_5 
REMARK    3  A    between atoms: C_10  and  C_11 
REMARK    4  A    between atoms: C_13  and  N_14 
REMARK    5  A    between atoms: N_14  and  C_15 
ROOT
HETATM    1  C   UNL     1      27.536  44.082  53.186  1.00  0.00     0.164 A 
HETATM    2  N   UNL     1      26.721  45.083  52.832  1.00  0.00    -0.215 NA
HETATM    3  C   UNL     1      25.800  44.841  51.883  1.00  0.00     0.122 A 
HETATM    4  C   UNL     1      25.734  43.604  51.212  1.00  0.00     0.033 A 
HETATM    5  C   UNL     1      24.859  43.290  50.138  1.00  0.00     0.017 A 
HETATM    6  C   UNL     1      24.860  42.023  49.559  1.00  0.00     0.001 A 
HETATM    7  C   UNL     1      25.730  41.056  50.040  1.00  0.00     0.002 A 
HETATM    8  C   UNL     1      26.600  41.368  51.089  1.00  0.00     0.032 A 
HETATM    9  C   UNL     1      26.622  42.625  51.678  1.00  0.00     0.072 A 
HETATM   10  N   UNL     1      27.496  42.846  52.663  1.00  0.00    -0.228 NA
ENDROOT
BRANCH   3  11
HETATM   11  N   UNL     1      24.916  45.894  51.497  1.00  0.00    -0.243 NA
HETATM   12  H   UNL     1      24.644  46.386  52.346  1.00  0.00     0.135 HD
BRANCH  11  13
HETATM   13  C   UNL     1      25.199  46.899  50.530  1.00  0.00     0.015 A 
HETATM   14  C   UNL     1      26.496  47.378  50.303  1.00  0.00     0.026 A 
HETATM   15  C   UNL     1      26.755  48.431  49.417  1.00  0.00     0.034 A 
HETATM   16  C   UNL     1      25.654  49.014  48.788  1.00  0.00     0.061 A 
HETATM   17  N   UNL     1      25.558  50.035  47.881  1.00  0.00    -0.278 N 
HETATM   18  C   UNL     1      24.349  48.598  49.015  1.00  0.00     0.013 A 
HETATM   19  H   UNL     1      26.315  50.577  47.481  1.00  0.00     0.189 HD
HETATM   20  N   UNL     1      24.297  50.323  47.510  1.00  0.00    -0.186 NA
HETATM   21  C   UNL     1      23.565  49.443  48.200  1.00  0.00     0.152 A 
HETATM   22  C   UNL     1      24.110  47.541  49.912  1.00  0.00     0.039 A 
ENDBRANCH  11  13
ENDBRANCH   3  11
BRANCH   1  23
HETATM   23  C   UNL     1      28.514  44.333  54.255  1.00  0.00     0.046 A 
HETATM   24  C   UNL     1      28.333  45.320  55.241  1.00  0.00     0.093 A 
HETATM   25  C   UNL     1      29.287  45.562  56.237  1.00  0.00     0.038 A 
HETATM   26  C   UNL     1      30.440  44.785  56.289  1.00  0.00     0.003 A 
HETATM   27  C   UNL     1      30.648  43.790  55.335  1.00  0.00     0.001 A 
HETATM   28  C   UNL     1      29.699  43.573  54.329  1.00  0.00     0.018 A 
BRANCH  24  29
HETATM   29  O   UNL     1      27.228  46.183  55.163  1.00  0.00    -0.278 OA
BRANCH  29  30
HETATM   30  C   UNL     1      27.556  47.530  55.058  1.00  0.00     0.260 C 
HETATM   31  C   UNL     1      26.569  48.325  55.861  1.00  0.00     0.126 C 
HETATM   32  O   UNL     1      28.454  48.020  54.385  1.00  0.00    -0.265 OA
ENDBRANCH  29  30
ENDBRANCH  24  29
ENDBRANCH   1  23
TORSDOF 5
ENDMDL
MODEL 2
REMARK VINA RESULT:     -10.1      2.764      7.131
REMARK  5 active torsions:
REMARK  status: ('A' for Active; 'I' for Inactive)
REMARK    1  A    between atoms: C_2  and  O_4 
REMARK    2  A    between atoms: O_4  and  C_5 
REMARK    3  A    between atoms: C_10  and  C_11 
REMARK    4  A    between atoms: C_13  and  N_14 
REMARK    5  A    between atoms: N_14  and  C_15 
ROOT
HETATM    1  C   UNL     1      26.208  46.276  50.205  1.00  0.00     0.164 A 
HETATM    2  N   UNL     1      26.156  46.187  51.540  1.00  0.00    -0.215 NA
HETATM    3  C   UNL     1      26.303  44.973  52.097  1.00  0.00     0.122 A 
HETATM    4  C   UNL     1      26.426  43.807  51.314  1.00  0.00     0.033 A 
HETATM    5  C   UNL     1      26.493  42.479  51.813  1.00  0.00     0.017 A 
HETATM    6  C   UNL     1      26.638  41.396  50.948  1.00  0.00     0.001 A 
HETATM    7  C   UNL     1      26.717  41.621  49.582  1.00  0.00     0.002 A 
HETATM    8  C   UNL     1      26.638  42.927  49.091  1.00  0.00     0.032 A 
HETATM    9  C   UNL     1      26.488  44.023  49.931  1.00  0.00     0.072 A 
HETATM   10  N   UNL     1      26.403  45.235  49.380  1.00  0.00    -0.228 NA
ENDROOT
BRANCH   3  11
HETATM   11  N   UNL     1      26.259  44.858  53.520  1.00  0.00    -0.243 NA
HETATM   12  H   UNL     1      25.842  43.955  53.737  1.00  0.00     0.135 HD
BRANCH  11  13
HETATM   13  C   UNL     1      27.370  45.004  54.397  1.00  0.00     0.015 A 
HETATM   14  C   UNL     1      27.615  46.189  55.105  1.00  0.00     0.026 A 
HETATM   15  C   UNL     1      28.759  46.360  55.894  1.00  0.00     0.034 A 
HETATM   16  C   UNL     1      29.672  45.305  55.920  1.00  0.00     0.061 A 
HETATM   17  N   UNL     1      30.862  45.147  56.579  1.00  0.00    -0.278 N 
HETATM   18  C   UNL     1      29.489  44.131  55.202  1.00  0.00     0.013 A 
HETATM   19  H   UNL     1      31.314  45.805  57.204  1.00  0.00     0.189 HD
HETATM   20  N   UNL     1      31.470  43.970  56.338  1.00  0.00    -0.186 NA
HETATM   21  C   UNL     1      30.629  43.354  55.502  1.00  0.00     0.152 A 
HETATM   22  C   UNL     1      28.335  43.982  54.412  1.00  0.00     0.039 A 
ENDBRANCH  11  13
ENDBRANCH   3  11
BRANCH   1  23
HETATM   23  C   UNL     1      26.092  47.610  49.597  1.00  0.00     0.046 A 
HETATM   24  C   UNL     1      24.858  48.252  49.392  1.00  0.00     0.093 A 
HETATM   25  C   UNL     1      24.765  49.513  48.788  1.00  0.00     0.038 A 
HETATM   26  C   UNL     1      25.925  50.180  48.407  1.00  0.00     0.003 A 
HETATM   27  C   UNL     1      27.166  49.579  48.606  1.00  0.00     0.001 A 
HETATM   28  C   UNL     1      27.246  48.308  49.187  1.00  0.00     0.018 A 
BRANCH  24  29
HETATM   29  O   UNL     1      23.665  47.569  49.679  1.00  0.00    -0.278 OA
BRANCH  29  30
HETATM   30  C   UNL     1      22.983  47.107  48.558  1.00  0.00     0.260 C 
HETATM   31  C   UNL     1      22.935  45.609  48.613  1.00  0.00     0.126 C 
HETATM   32  O   UNL     1      22.537  47.781  47.637  1.00  0.00    -0.265 OA
ENDBRANCH  29  30
ENDBRANCH  24  29
ENDBRANCH   1  23
TORSDOF 5
ENDMDL
MODEL 3
REMARK VINA RESULT:     -10.1      2.286      6.890
REMARK  5 active torsions:
REMARK  status: ('A' for Active; 'I' for Inactive)
REMARK    1  A    between atoms: C_2  and  O_4 
REMARK    2  A    between atoms: O_4  and  C_5 
REMARK    3  A    between atoms: C_10  and  C_11 
REMARK    4  A    between atoms: C_13  and  N_14 
REMARK    5  A    between atoms: N_14  and  C_15 
ROOT
HETATM    1  C   UNL     1      24.874  45.646  50.083  1.00  0.00     0.164 A 
HETATM    2  N   UNL     1      24.965  45.586  51.417  1.00  0.00    -0.215 NA
HETATM    3  C   UNL     1      25.573  44.517  51.960  1.00  0.00     0.122 A 
HETATM    4  C   UNL     1      26.032  43.444  51.171  1.00  0.00     0.033 A 
HETATM    5  C   UNL     1      26.600  42.239  51.663  1.00  0.00     0.017 A 
HETATM    6  C   UNL     1      27.044  41.248  50.790  1.00  0.00     0.001 A 
HETATM    7  C   UNL     1      26.927  41.443  49.422  1.00  0.00     0.002 A 
HETATM    8  C   UNL     1      26.357  42.624  48.938  1.00  0.00     0.032 A 
HETATM    9  C   UNL     1      25.901  43.624  49.788  1.00  0.00     0.072 A 
HETATM   10  N   UNL     1      25.353  44.713  49.245  1.00  0.00    -0.228 NA
ENDROOT
BRANCH   3  11
HETATM   11  N   UNL     1      25.687  44.439  53.382  1.00  0.00    -0.243 NA
HETATM   12  H   UNL     1      25.542  43.466  53.644  1.00  0.00     0.135 HD
BRANCH  11  13
HETATM   13  C   UNL     1      26.795  44.895  54.149  1.00  0.00     0.015 A 
HETATM   14  C   UNL     1      26.924  46.229  54.561  1.00  0.00     0.026 A 
HETATM   15  C   UNL     1      28.061  46.692  55.235  1.00  0.00     0.034 A 
HETATM   16  C   UNL     1      29.085  45.772  55.454  1.00  0.00     0.061 A 
HETATM   17  N   UNL     1      30.301  45.891  56.073  1.00  0.00    -0.278 N 
HETATM   18  C   UNL     1      29.017  44.451  55.027  1.00  0.00     0.013 A 
HETATM   19  H   UNL     1      30.691  46.717  56.511  1.00  0.00     0.189 HD
HETATM   20  N   UNL     1      31.030  44.760  56.073  1.00  0.00    -0.186 NA
HETATM   21  C   UNL     1      30.243  43.886  55.438  1.00  0.00     0.152 A 
HETATM   22  C   UNL     1      27.868  44.008  54.347  1.00  0.00     0.039 A 
ENDBRANCH  11  13
ENDBRANCH   3  11
BRANCH   1  23
HETATM   23  C   UNL     1      24.249  46.835  49.487  1.00  0.00     0.046 A 
HETATM   24  C   UNL     1      24.870  48.098  49.468  1.00  0.00     0.093 A 
HETATM   25  C   UNL     1      24.248  49.226  48.918  1.00  0.00     0.038 A 
HETATM   26  C   UNL     1      22.991  49.102  48.333  1.00  0.00     0.003 A 
HETATM   27  C   UNL     1      22.351  47.865  48.323  1.00  0.00     0.001 A 
HETATM   28  C   UNL     1      22.971  46.750  48.898  1.00  0.00     0.018 A 
BRANCH  24  29
HETATM   29  O   UNL     1      26.095  48.277  50.130  1.00  0.00    -0.278 OA
BRANCH  29  30
HETATM   30  C   UNL     1      27.210  48.236  49.299  1.00  0.00     0.260 C 
HETATM   31  C   UNL     1      27.588  49.641  48.938  1.00  0.00     0.126 C 
HETATM   32  O   UNL     1      27.773  47.236  48.870  1.00  0.00    -0.265 OA
ENDBRANCH  29  30
ENDBRANCH  24  29
ENDBRANCH   1  23
TORSDOF 5
ENDMDL
MODEL 4
REMARK VINA RESULT:      -9.8      2.935      7.136
REMARK  5 active torsions:
REMARK  status: ('A' for Active; 'I' for Inactive)
REMARK    1  A    between atoms: C_2  and  O_4 
REMARK    2  A    between atoms: O_4  and  C_5 
REMARK    3  A    between atoms: C_10  and  C_11 
REMARK    4  A    between atoms: C_13  and  N_14 
REMARK    5  A    between atoms: N_14  and  C_15 
ROOT
HETATM    1  C   UNL     1      26.215  44.623  50.275  1.00  0.00     0.164 A 
HETATM    2  N   UNL     1      26.427  44.346  51.567  1.00  0.00    -0.215 NA
HETATM    3  C   UNL     1      26.956  43.151  51.878  1.00  0.00     0.122 A 
HETATM    4  C   UNL     1      27.207  42.173  50.895  1.00  0.00     0.033 A 
HETATM    5  C   UNL     1      27.675  40.854  51.140  1.00  0.00     0.017 A 
HETATM    6  C   UNL     1      27.914  39.972  50.089  1.00  0.00     0.001 A 
HETATM    7  C   UNL     1      27.689  40.389  48.785  1.00  0.00     0.002 A 
HETATM    8  C   UNL     1      27.216  41.682  48.545  1.00  0.00     0.032 A 
HETATM    9  C   UNL     1      26.965  42.579  49.576  1.00  0.00     0.072 A 
HETATM   10  N   UNL     1      26.498  43.788  49.262  1.00  0.00    -0.228 NA
ENDROOT
BRANCH   3  11
HETATM   11  N   UNL     1      27.198  42.841  53.251  1.00  0.00    -0.243 NA
HETATM   12  H   UNL     1      27.266  41.828  53.325  1.00  0.00     0.135 HD
BRANCH  11  13
HETATM   13  C   UNL     1      28.254  43.368  54.045  1.00  0.00     0.015 A 
HETATM   14  C   UNL     1      29.489  42.718  54.178  1.00  0.00     0.026 A 
HETATM   15  C   UNL     1      30.491  43.193  55.033  1.00  0.00     0.034 A 
HETATM   16  C   UNL     1      30.196  44.333  55.781  1.00  0.00     0.061 A 
HETATM   17  N   UNL     1      30.936  45.045  56.687  1.00  0.00    -0.278 N 
HETATM   18  C   UNL     1      28.971  44.984  55.711  1.00  0.00     0.013 A 
HETATM   19  H   UNL     1      31.886  44.862  56.987  1.00  0.00     0.189 HD
HETATM   20  N   UNL     1      30.288  46.099  57.217  1.00  0.00    -0.186 NA
HETATM   21  C   UNL     1      29.094  46.060  56.618  1.00  0.00     0.152 A 
HETATM   22  C   UNL     1      27.977  44.488  54.849  1.00  0.00     0.039 A 
ENDBRANCH  11  13
ENDBRANCH   3  11
BRANCH   1  23
HETATM   23  C   UNL     1      25.678  45.948  49.931  1.00  0.00     0.046 A 
HETATM   24  C   UNL     1      24.306  46.193  49.744  1.00  0.00     0.093 A 
HETATM   25  C   UNL     1      23.816  47.457  49.392  1.00  0.00     0.038 A 
HETATM   26  C   UNL     1      24.699  48.524  49.256  1.00  0.00     0.003 A 
HETATM   27  C   UNL     1      26.064  48.321  49.445  1.00  0.00     0.001 A 
HETATM   28  C   UNL     1      26.546  47.048  49.772  1.00  0.00     0.018 A 
BRANCH  24  29
HETATM   29  O   UNL     1      23.399  45.121  49.782  1.00  0.00    -0.278 OA
BRANCH  29  30
HETATM   30  C   UNL     1      22.895  44.750  48.540  1.00  0.00     0.260 C 
HETATM   31  C   UNL     1      21.397  44.807  48.597  1.00  0.00     0.126 C 
HETATM   32  O   UNL     1      23.536  44.378  47.564  1.00  0.00    -0.265 OA
ENDBRANCH  29  30
ENDBRANCH  24  29
ENDBRANCH   1  23
TORSDOF 5
ENDMDL
MODEL 5
REMARK VINA RESULT:      -9.8      2.837      7.832
REMARK  5 active torsions:
REMARK  status: ('A' for Active; 'I' for Inactive)
REMARK    1  A    between atoms: C_2  and  O_4 
REMARK    2  A    between atoms: O_4  and  C_5 
REMARK    3  A    between atoms: C_10  and  C_11 
REMARK    4  A    between atoms: C_13  and  N_14 
REMARK    5  A    between atoms: N_14  and  C_15 
ROOT
HETATM    1  C   UNL     1      24.693  46.876  50.037  1.00  0.00     0.164 A 
HETATM    2  N   UNL     1      25.363  45.906  49.402  1.00  0.00    -0.215 NA
HETATM    3  C   UNL     1      26.206  45.147  50.122  1.00  0.00     0.122 A 
HETATM    4  C   UNL     1      26.453  45.401  51.486  1.00  0.00     0.033 A 
HETATM    5  C   UNL     1      27.391  44.712  52.300  1.00  0.00     0.017 A 
HETATM    6  C   UNL     1      27.539  45.029  53.648  1.00  0.00     0.001 A 
HETATM    7  C   UNL     1      26.758  46.034  54.201  1.00  0.00     0.002 A 
HETATM    8  C   UNL     1      25.844  46.720  53.397  1.00  0.00     0.032 A 
HETATM    9  C   UNL     1      25.682  46.427  52.049  1.00  0.00     0.072 A 
HETATM   10  N   UNL     1      24.800  47.142  51.348  1.00  0.00    -0.228 NA
ENDROOT
BRANCH   3  11
HETATM   11  N   UNL     1      26.924  44.102  49.465  1.00  0.00    -0.243 NA
HETATM   12  H   UNL     1      27.910  44.225  49.687  1.00  0.00     0.135 HD
BRANCH  11  13
HETATM   13  C   UNL     1      26.660  42.709  49.592  1.00  0.00     0.015 A 
HETATM   14  C   UNL     1      25.502  42.219  50.210  1.00  0.00     0.026 A 
HETATM   15  C   UNL     1      25.292  40.850  50.416  1.00  0.00     0.034 A 
HETATM   16  C   UNL     1      26.308  39.986  50.008  1.00  0.00     0.061 A 
HETATM   17  N   UNL     1      26.419  38.622  50.056  1.00  0.00    -0.278 N 
HETATM   18  C   UNL     1      27.490  40.432  49.430  1.00  0.00     0.013 A 
HETATM   19  H   UNL     1      25.739  37.960  50.414  1.00  0.00     0.189 HD
HETATM   20  N   UNL     1      27.579  38.148  49.566  1.00  0.00    -0.186 NA
HETATM   21  C   UNL     1      28.226  39.252  49.183  1.00  0.00     0.152 A 
HETATM   22  C   UNL     1      27.682  41.811  49.236  1.00  0.00     0.039 A 
ENDBRANCH  11  13
ENDBRANCH   3  11
BRANCH   1  23
HETATM   23  C   UNL     1      23.738  47.678  49.259  1.00  0.00     0.046 A 
HETATM   24  C   UNL     1      23.989  49.009  48.877  1.00  0.00     0.093 A 
HETATM   25  C   UNL     1      23.056  49.766  48.158  1.00  0.00     0.038 A 
HETATM   26  C   UNL     1      21.853  49.186  47.767  1.00  0.00     0.003 A 
HETATM   27  C   UNL     1      21.575  47.866  48.117  1.00  0.00     0.001 A 
HETATM   28  C   UNL     1      22.504  47.127  48.858  1.00  0.00     0.018 A 
BRANCH  24  29
HETATM   29  O   UNL     1      25.150  49.654  49.334  1.00  0.00    -0.278 OA
BRANCH  29  30
HETATM   30  C   UNL     1      26.183  49.703  48.404  1.00  0.00     0.260 C 
HETATM   31  C   UNL     1      27.414  49.117  49.029  1.00  0.00     0.126 C 
HETATM   32  O   UNL     1      26.142  50.190  47.281  1.00  0.00    -0.265 OA
ENDBRANCH  29  30
ENDBRANCH  24  29
ENDBRANCH   1  23
TORSDOF 5
ENDMDL
MODEL 6
REMARK VINA RESULT:      -9.8      1.990      2.982
REMARK  5 active torsions:
REMARK  status: ('A' for Active; 'I' for Inactive)
REMARK    1  A    between atoms: C_2  and  O_4 
REMARK    2  A    between atoms: O_4  and  C_5 
REMARK    3  A    between atoms: C_10  and  C_11 
REMARK    4  A    between atoms: C_13  and  N_14 
REMARK    5  A    between atoms: N_14  and  C_15 
ROOT
HETATM    1  C   UNL     1      28.716  42.756  52.560  1.00  0.00     0.164 A 
HETATM    2  N   UNL     1      28.036  43.373  51.585  1.00  0.00    -0.215 NA
HETATM    3  C   UNL     1      27.655  42.643  50.523  1.00  0.00     0.122 A 
HETATM    4  C   UNL     1      28.022  41.290  50.383  1.00  0.00     0.033 A 
HETATM    5  C   UNL     1      27.745  40.470  49.257  1.00  0.00     0.017 A 
HETATM    6  C   UNL     1      28.135  39.133  49.231  1.00  0.00     0.001 A 
HETATM    7  C   UNL     1      28.805  38.598  50.321  1.00  0.00     0.002 A 
HETATM    8  C   UNL     1      29.089  39.408  51.424  1.00  0.00     0.032 A 
HETATM    9  C   UNL     1      28.716  40.745  51.471  1.00  0.00     0.072 A 
HETATM   10  N   UNL     1      29.042  41.454  52.554  1.00  0.00    -0.228 NA
ENDROOT
BRANCH   3  11
HETATM   11  N   UNL     1      26.921  43.281  49.477  1.00  0.00    -0.243 NA
HETATM   12  H   UNL     1      26.455  42.549  48.945  1.00  0.00     0.135 HD
BRANCH  11  13
HETATM   13  C   UNL     1      25.961  44.316  49.652  1.00  0.00     0.015 A 
HETATM   14  C   UNL     1      24.583  44.060  49.700  1.00  0.00     0.026 A 
HETATM   15  C   UNL     1      23.638  45.091  49.779  1.00  0.00     0.034 A 
HETATM   16  C   UNL     1      24.126  46.398  49.774  1.00  0.00     0.061 A 
HETATM   17  N   UNL     1      23.490  47.609  49.844  1.00  0.00    -0.278 N 
HETATM   18  C   UNL     1      25.480  46.697  49.687  1.00  0.00     0.013 A 
HETATM   19  H   UNL     1      22.494  47.778  49.920  1.00  0.00     0.189 HD
HETATM   20  N   UNL     1      24.319  48.668  49.799  1.00  0.00    -0.186 NA
HETATM   21  C   UNL     1      25.529  48.108  49.706  1.00  0.00     0.152 A 
HETATM   22  C   UNL     1      26.412  45.647  49.604  1.00  0.00     0.039 A 
ENDBRANCH  11  13
ENDBRANCH   3  11
BRANCH   1  23
HETATM   23  C   UNL     1      29.094  43.544  53.742  1.00  0.00     0.046 A 
HETATM   24  C   UNL     1      28.360  44.658  54.187  1.00  0.00     0.093 A 
HETATM   25  C   UNL     1      28.749  45.412  55.301  1.00  0.00     0.038 A 
HETATM   26  C   UNL     1      29.877  45.036  56.025  1.00  0.00     0.003 A 
HETATM   27  C   UNL     1      30.623  43.931  55.621  1.00  0.00     0.001 A 
HETATM   28  C   UNL     1      30.238  43.200  54.491  1.00  0.00     0.018 A 
BRANCH  24  29
HETATM   29  O   UNL     1      27.272  45.119  53.427  1.00  0.00    -0.278 OA
BRANCH  29  30
HETATM   30  C   UNL     1      26.121  45.374  54.165  1.00  0.00     0.260 C 
HETATM   31  C   UNL     1      25.467  44.065  54.494  1.00  0.00     0.126 C 
HETATM   32  O   UNL     1      25.663  46.471  54.460  1.00  0.00    -0.265 OA
ENDBRANCH  29  30
ENDBRANCH  24  29
ENDBRANCH   1  23
TORSDOF 5
ENDMDL
MODEL 7
REMARK VINA RESULT:      -9.6      3.013      7.371
REMARK  5 active torsions:
REMARK  status: ('A' for Active; 'I' for Inactive)
REMARK    1  A    between atoms: C_2  and  O_4 
REMARK    2  A    between atoms: O_4  and  C_5 
REMARK    3  A    between atoms: C_10  and  C_11 
REMARK    4  A    between atoms: C_13  and  N_14 
REMARK    5  A    between atoms: N_14  and  C_15 
ROOT
HETATM    1  C   UNL     1      25.356  47.192  50.701  1.00  0.00     0.164 A 
HETATM    2  N   UNL     1      24.623  46.095  50.469  1.00  0.00    -0.215 NA
HETATM    3  C   UNL     1      24.601  45.140  51.414  1.00  0.00     0.122 A 
HETATM    4  C   UNL     1      25.384  45.234  52.582  1.00  0.00     0.033 A 
HETATM    5  C   UNL     1      25.495  44.236  53.586  1.00  0.00     0.017 A 
HETATM    6  C   UNL     1      26.283  44.442  54.717  1.00  0.00     0.001 A 
HETATM    7  C   UNL     1      26.969  45.639  54.860  1.00  0.00     0.002 A 
HETATM    8  C   UNL     1      26.870  46.616  53.865  1.00  0.00     0.032 A 
HETATM    9  C   UNL     1      26.096  46.432  52.727  1.00  0.00     0.072 A 
HETATM   10  N   UNL     1      26.070  47.408  51.817  1.00  0.00    -0.228 NA
ENDROOT
BRANCH   3  11
HETATM   11  N   UNL     1      23.819  43.967  51.189  1.00  0.00    -0.243 NA
HETATM   12  H   UNL     1      22.870  44.272  50.982  1.00  0.00     0.135 HD
BRANCH  11  13
HETATM   13  C   UNL     1      24.119  42.939  50.252  1.00  0.00     0.015 A 
HETATM   14  C   UNL     1      23.252  42.604  49.203  1.00  0.00     0.026 A 
HETATM   15  C   UNL     1      23.508  41.531  48.340  1.00  0.00     0.034 A 
HETATM   16  C   UNL     1      24.656  40.780  48.590  1.00  0.00     0.061 A 
HETATM   17  N   UNL     1      25.192  39.694  47.950  1.00  0.00    -0.278 N 
HETATM   18  C   UNL     1      25.521  41.051  49.643  1.00  0.00     0.013 A 
HETATM   19  H   UNL     1      24.829  39.220  47.131  1.00  0.00     0.189 HD
HETATM   20  N   UNL     1      26.327  39.233  48.508  1.00  0.00    -0.186 NA
HETATM   21  C   UNL     1      26.525  40.064  49.535  1.00  0.00     0.152 A 
HETATM   22  C   UNL     1      25.242  42.130  50.500  1.00  0.00     0.039 A 
ENDBRANCH  11  13
ENDBRANCH   3  11
BRANCH   1  23
HETATM   23  C   UNL     1      25.344  48.256  49.687  1.00  0.00     0.046 A 
HETATM   24  C   UNL     1      24.158  48.798  49.160  1.00  0.00     0.093 A 
HETATM   25  C   UNL     1      24.166  49.795  48.176  1.00  0.00     0.038 A 
HETATM   26  C   UNL     1      25.380  50.302  47.721  1.00  0.00     0.003 A 
HETATM   27  C   UNL     1      26.575  49.798  48.229  1.00  0.00     0.001 A 
HETATM   28  C   UNL     1      26.555  48.784  49.194  1.00  0.00     0.018 A 
BRANCH  24  29
HETATM   29  O   UNL     1      22.920  48.246  49.528  1.00  0.00    -0.278 OA
BRANCH  29  30
HETATM   30  C   UNL     1      22.122  47.859  48.456  1.00  0.00     0.260 C 
HETATM   31  C   UNL     1      20.758  48.457  48.639  1.00  0.00     0.126 C 
HETATM   32  O   UNL     1      22.433  47.111  47.537  1.00  0.00    -0.265 OA
ENDBRANCH  29  30
ENDBRANCH  24  29
ENDBRANCH   1  23
TORSDOF 5
ENDMDL
MODEL 8
REMARK VINA RESULT:      -9.5      4.680      7.631
REMARK  5 active torsions:
REMARK  status: ('A' for Active; 'I' for Inactive)
REMARK    1  A    between atoms: C_2  and  O_4 
REMARK    2  A    between atoms: O_4  and  C_5 
REMARK    3  A    between atoms: C_10  and  C_11 
REMARK    4  A    between atoms: C_13  and  N_14 
REMARK    5  A    between atoms: N_14  and  C_15 
ROOT
HETATM    1  C   UNL     1      23.351  48.415  48.920  1.00  0.00     0.164 A 
HETATM    2  N   UNL     1      22.536  49.269  49.552  1.00  0.00    -0.215 NA
HETATM    3  C   UNL     1      21.218  49.007  49.542  1.00  0.00     0.122 A 
HETATM    4  C   UNL     1      20.684  47.918  48.824  1.00  0.00     0.033 A 
HETATM    5  C   UNL     1      19.303  47.619  48.682  1.00  0.00     0.017 A 
HETATM    6  C   UNL     1      18.882  46.500  47.967  1.00  0.00     0.001 A 
HETATM    7  C   UNL     1      19.828  45.669  47.385  1.00  0.00     0.002 A 
HETATM    8  C   UNL     1      21.187  45.970  47.514  1.00  0.00     0.032 A 
HETATM    9  C   UNL     1      21.631  47.083  48.217  1.00  0.00     0.072 A 
HETATM   10  N   UNL     1      22.945  47.309  48.278  1.00  0.00    -0.228 NA
ENDROOT
BRANCH   3  11
HETATM   11  N   UNL     1      20.333  49.901  50.218  1.00  0.00    -0.243 NA
HETATM   12  H   UNL     1      20.906  50.519  50.789  1.00  0.00     0.135 HD
BRANCH  11  13
HETATM   13  C   UNL     1      19.358  50.729  49.595  1.00  0.00     0.015 A 
HETATM   14  C   UNL     1      19.703  51.742  48.691  1.00  0.00     0.026 A 
HETATM   15  C   UNL     1      18.748  52.614  48.152  1.00  0.00     0.034 A 
HETATM   16  C   UNL     1      17.430  52.452  48.582  1.00  0.00     0.061 A 
HETATM   17  N   UNL     1      16.278  53.117  48.257  1.00  0.00    -0.278 N 
HETATM   18  C   UNL     1      17.052  51.488  49.507  1.00  0.00     0.013 A 
HETATM   19  H   UNL     1      16.172  53.885  47.604  1.00  0.00     0.189 HD
HETATM   20  N   UNL     1      15.186  52.669  48.903  1.00  0.00    -0.186 NA
HETATM   21  C   UNL     1      15.661  51.676  49.660  1.00  0.00     0.152 A 
HETATM   22  C   UNL     1      18.028  50.626  50.039  1.00  0.00     0.039 A 
ENDBRANCH  11  13
ENDBRANCH   3  11
BRANCH   1  23
HETATM   23  C   UNL     1      24.797  48.677  48.969  1.00  0.00     0.046 A 
HETATM   24  C   UNL     1      25.706  47.834  49.633  1.00  0.00     0.093 A 
HETATM   25  C   UNL     1      27.077  48.113  49.690  1.00  0.00     0.038 A 
HETATM   26  C   UNL     1      27.578  49.238  49.042  1.00  0.00     0.003 A 
HETATM   27  C   UNL     1      26.709  50.091  48.364  1.00  0.00     0.001 A 
HETATM   28  C   UNL     1      25.336  49.815  48.335  1.00  0.00     0.018 A 
BRANCH  24  29
HETATM   29  O   UNL     1      25.224  46.743  50.374  1.00  0.00    -0.278 OA
BRANCH  29  30
HETATM   30  C   UNL     1      25.522  46.793  51.732  1.00  0.00     0.260 C 
HETATM   31  C   UNL     1      26.238  45.530  52.110  1.00  0.00     0.126 C 
HETATM   32  O   UNL     1      25.213  47.676  52.522  1.00  0.00    -0.265 OA
ENDBRANCH  29  30
ENDBRANCH  24  29
ENDBRANCH   1  23
TORSDOF 5
ENDMDL
MODEL 9
REMARK VINA RESULT:      -9.5      2.257      3.890
REMARK  5 active torsions:
REMARK  status: ('A' for Active; 'I' for Inactive)
REMARK    1  A    between atoms: C_2  and  O_4 
REMARK    2  A    between atoms: O_4  and  C_5 
REMARK    3  A    between atoms: C_10  and  C_11 
REMARK    4  A    between atoms: C_13  and  N_14 
REMARK    5  A    between atoms: N_14  and  C_15 
ROOT
HETATM    1  C   UNL     1      25.485  46.266  52.138  1.00  0.00     0.164 A 
HETATM    2  N   UNL     1      25.415  47.184  51.166  1.00  0.00    -0.215 NA
HETATM    3  C   UNL     1      24.714  46.880  50.060  1.00  0.00     0.122 A 
HETATM    4  C   UNL     1      24.135  45.609  49.876  1.00  0.00     0.033 A 
HETATM    5  C   UNL     1      23.459  45.169  48.706  1.00  0.00     0.017 A 
HETATM    6  C   UNL     1      22.900  43.895  48.638  1.00  0.00     0.001 A 
HETATM    7  C   UNL     1      23.008  43.045  49.729  1.00  0.00     0.002 A 
HETATM    8  C   UNL     1      23.685  43.473  50.875  1.00  0.00     0.032 A 
HETATM    9  C   UNL     1      24.255  44.736  50.965  1.00  0.00     0.072 A 
HETATM   10  N   UNL     1      24.899  45.060  52.088  1.00  0.00    -0.228 NA
ENDROOT
BRANCH   3  11
HETATM   11  N   UNL     1      24.621  47.849  49.016  1.00  0.00    -0.243 NA
HETATM   12  H   UNL     1      24.608  47.342  48.133  1.00  0.00     0.135 HD
BRANCH  11  13
HETATM   13  C   UNL     1      23.622  48.857  48.909  1.00  0.00     0.015 A 
HETATM   14  C   UNL     1      23.938  50.209  48.717  1.00  0.00     0.026 A 
HETATM   15  C   UNL     1      22.956  51.207  48.706  1.00  0.00     0.034 A 
HETATM   16  C   UNL     1      21.640  50.802  48.929  1.00  0.00     0.061 A 
HETATM   17  N   UNL     1      20.466  51.505  48.976  1.00  0.00    -0.278 N 
HETATM   18  C   UNL     1      21.287  49.479  49.164  1.00  0.00     0.013 A 
HETATM   19  H   UNL     1      20.338  52.502  48.844  1.00  0.00     0.189 HD
HETATM   20  N   UNL     1      19.383  50.748  49.232  1.00  0.00    -0.186 NA
HETATM   21  C   UNL     1      19.887  49.516  49.343  1.00  0.00     0.152 A 
HETATM   22  C   UNL     1      22.290  48.493  49.176  1.00  0.00     0.039 A 
ENDBRANCH  11  13
ENDBRANCH   3  11
BRANCH   1  23
HETATM   23  C   UNL     1      26.214  46.615  53.366  1.00  0.00     0.046 A 
HETATM   24  C   UNL     1      27.325  45.888  53.829  1.00  0.00     0.093 A 
HETATM   25  C   UNL     1      27.992  46.220  55.015  1.00  0.00     0.038 A 
HETATM   26  C   UNL     1      27.576  47.326  55.751  1.00  0.00     0.003 A 
HETATM   27  C   UNL     1      26.486  48.076  55.317  1.00  0.00     0.001 A 
HETATM   28  C   UNL     1      25.812  47.720  54.143  1.00  0.00     0.018 A 
BRANCH  24  29
HETATM   29  O   UNL     1      27.713  44.714  53.162  1.00  0.00    -0.278 OA
BRANCH  29  30
HETATM   30  C   UNL     1      27.712  43.573  53.958  1.00  0.00     0.260 C 
HETATM   31  C   UNL     1      29.065  42.931  53.871  1.00  0.00     0.126 C 
HETATM   32  O   UNL     1      26.767  43.113  54.586  1.00  0.00    -0.265 OA
ENDBRANCH  29  30
ENDBRANCH  24  29
ENDBRANCH   1  23
TORSDOF 5
ENDMDL
MODEL 10
REMARK VINA RESULT:      -9.4      3.506      8.933
REMARK  5 active torsions:
REMARK  status: ('A' for Active; 'I' for Inactive)
REMARK    1  A    between atoms: C_2  and  O_4 
REMARK    2  A    between atoms: O_4  and  C_5 
REMARK    3  A    between atoms: C_10  and  C_11 
REMARK    4  A    between atoms: C_13  and  N_14 
REMARK    5  A    between atoms: N_14  and  C_15 
ROOT
HETATM    1  C   UNL     1      23.004  49.298  48.807  1.00  0.00     0.164 A 
HETATM    2  N   UNL     1      23.044  48.142  49.482  1.00  0.00    -0.215 NA
HETATM    3  C   UNL     1      24.248  47.658  49.833  1.00  0.00     0.122 A 
HETATM    4  C   UNL     1      25.444  48.290  49.440  1.00  0.00     0.033 A 
HETATM    5  C   UNL     1      26.756  47.803  49.685  1.00  0.00     0.017 A 
HETATM    6  C   UNL     1      27.876  48.522  49.272  1.00  0.00     0.001 A 
HETATM    7  C   UNL     1      27.704  49.729  48.611  1.00  0.00     0.002 A 
HETATM    8  C   UNL     1      26.413  50.202  48.358  1.00  0.00     0.032 A 
HETATM    9  C   UNL     1      25.282  49.501  48.755  1.00  0.00     0.072 A 
HETATM   10  N   UNL     1      24.086  50.014  48.459  1.00  0.00    -0.228 NA
ENDROOT
BRANCH   3  11
HETATM   11  N   UNL     1      24.311  46.431  50.560  1.00  0.00    -0.243 NA
HETATM   12  H   UNL     1      24.517  45.693  49.890  1.00  0.00     0.135 HD
BRANCH  11  13
HETATM   13  C   UNL     1      25.136  46.181  51.692  1.00  0.00     0.015 A 
HETATM   14  C   UNL     1      25.294  47.114  52.725  1.00  0.00     0.026 A 
HETATM   15  C   UNL     1      26.179  46.902  53.790  1.00  0.00     0.034 A 
HETATM   16  C   UNL     1      26.930  45.727  53.763  1.00  0.00     0.061 A 
HETATM   17  N   UNL     1      27.861  45.220  54.630  1.00  0.00    -0.278 N 
HETATM   18  C   UNL     1      26.835  44.795  52.737  1.00  0.00     0.013 A 
HETATM   19  H   UNL     1      28.184  45.632  55.498  1.00  0.00     0.189 HD
HETATM   20  N   UNL     1      28.385  44.041  54.246  1.00  0.00    -0.186 NA
HETATM   21  C   UNL     1      27.755  43.785  53.095  1.00  0.00     0.152 A 
HETATM   22  C   UNL     1      25.944  45.030  51.675  1.00  0.00     0.039 A 
ENDBRANCH  11  13
ENDBRANCH   3  11
BRANCH   1  23
HETATM   23  C   UNL     1      21.687  49.851  48.462  1.00  0.00     0.046 A 
HETATM   24  C   UNL     1      20.740  49.149  47.693  1.00  0.00     0.093 A 
HETATM   25  C   UNL     1      19.499  49.701  47.353  1.00  0.00     0.038 A 
HETATM   26  C   UNL     1      19.161  50.971  47.814  1.00  0.00     0.003 A 
HETATM   27  C   UNL     1      20.069  51.691  48.586  1.00  0.00     0.001 A 
HETATM   28  C   UNL     1      21.317  51.138  48.900  1.00  0.00     0.018 A 
BRANCH  24  29
HETATM   29  O   UNL     1      21.084  47.907  47.136  1.00  0.00    -0.278 OA
BRANCH  29  30
HETATM   30  C   UNL     1      20.299  46.844  47.571  1.00  0.00     0.260 C 
HETATM   31  C   UNL     1      19.713  46.161  46.371  1.00  0.00     0.126 C 
HETATM   32  O   UNL     1      20.061  46.530  48.731  1.00  0.00    -0.265 OA
ENDBRANCH  29  30
ENDBRANCH  24  29
ENDBRANCH   1  23
TORSDOF 5
ENDMDL
