MODEL 1
REMARK VINA RESULT:      -8.6      0.000      0.000
REMARK  9 active torsions:
REMARK  status: ('A' for Active; 'I' for Inactive)
REMARK    1  A    between atoms: C_2  and  O_3 
REMARK    2  A    between atoms: O_3  and  C_4 
REMARK    3  A    between atoms: C_7  and  N_8 
REMARK       I    between atoms: N_8  and  C_9 
REMARK    4  A    between atoms: C_9  and  C_10 
REMARK    5  A    between atoms: C_11  and  N_12 
REMARK       I    between atoms: N_12  and  C_13 
REMARK    6  A    between atoms: C_13  and  C_14 
REMARK    7  A    between atoms: C_14  and  N_15 
REMARK    8  A    between atoms: N_15  and  C_18 
REMARK    9  A    between atoms: C_18  and  C_19 
ROOT
HETATM    1  C   UNL     1      23.748  46.813  49.268  1.00  0.00     0.073 A 
HETATM    2  C   UNL     1      23.227  45.697  48.619  1.00  0.00     0.093 A 
HETATM    3  S   UNL     1      21.948  46.083  47.576  1.00  0.00    -0.075 SA
HETATM    4  C   UNL     1      21.951  47.706  48.058  1.00  0.00    -0.008 A 
HETATM    5  C   UNL     1      22.932  47.983  48.993  1.00  0.00    -0.026 A 
HETATM    6  C   UNL     1      23.037  49.354  49.608  1.00  0.00     0.041 C 
HETATM    7  C   UNL     1      21.745  50.167  49.429  1.00  0.00     0.009 C 
HETATM    8  C   UNL     1      21.259  50.117  47.967  1.00  0.00    -0.014 C 
HETATM    9  C   UNL     1      20.054  51.033  47.764  1.00  0.00     0.010 C 
HETATM   10  C   UNL     1      20.918  48.671  47.550  1.00  0.00     0.051 C 
ENDROOT
BRANCH   2  11
HETATM   11  N   UNL     1      23.672  44.388  48.772  1.00  0.00    -0.319 N 
HETATM   12  C   UNL     1      23.516  43.588  49.882  1.00  0.00     0.248 C 
HETATM   13  O   UNL     1      22.909  43.826  50.925  1.00  0.00    -0.271 OA
HETATM   14  H   UNL     1      24.238  44.066  47.983  1.00  0.00     0.169 HD
BRANCH  12  15
HETATM   15  C   UNL     1      24.204  42.226  49.766  1.00  0.00     0.335 C 
BRANCH  15  16
HETATM   16  N   UNL     1      25.292  42.105  50.804  1.00  0.00    -0.063 N 
HETATM   17  H   UNL     1      25.006  42.485  51.713  1.00  0.00     0.278 HD
HETATM   18  H   UNL     1      25.444  41.091  50.942  1.00  0.00     0.278 HD
BRANCH  16  19
HETATM   19  C   UNL     1      26.611  42.669  50.405  1.00  0.00     0.271 C 
BRANCH  19  20
HETATM   20  C   UNL     1      27.609  42.526  51.517  1.00  0.00    -0.033 A 
HETATM   21  C   UNL     1      27.563  41.411  52.369  1.00  0.00     0.009 A 
HETATM   22  C   UNL     1      28.469  41.292  53.424  1.00  0.00     0.001 A 
HETATM   23  C   UNL     1      29.420  42.285  53.642  1.00  0.00     0.000 A 
HETATM   24  C   UNL     1      29.468  43.401  52.810  1.00  0.00     0.001 A 
HETATM   25  C   UNL     1      28.566  43.525  51.752  1.00  0.00     0.009 A 
ENDBRANCH  19  20
ENDBRANCH  16  19
ENDBRANCH  15  16
ENDBRANCH  12  15
ENDBRANCH   2  11
BRANCH   1  26
HETATM   26  C   UNL     1      24.927  46.704  50.147  1.00  0.00     0.259 C 
HETATM   27  N   UNL     1      24.614  46.493  51.471  1.00  0.00    -0.323 N 
HETATM   28  H   UNL     1      23.646  46.619  51.727  1.00  0.00     0.169 HD
HETATM   29  O   UNL     1      26.054  46.885  49.689  1.00  0.00    -0.267 OA
BRANCH  27  30
HETATM   30  C   UNL     1      25.475  46.161  52.534  1.00  0.00     0.035 A 
HETATM   31  C   UNL     1      25.479  44.931  53.186  1.00  0.00     0.032 A 
HETATM   32  C   UNL     1      26.330  44.720  54.280  1.00  0.00     0.039 A 
HETATM   33  C   UNL     1      27.180  45.730  54.737  1.00  0.00     0.068 A 
HETATM   34  C   UNL     1      27.191  46.953  54.073  1.00  0.00     0.039 A 
HETATM   35  C   UNL     1      26.342  47.167  52.982  1.00  0.00     0.032 A 
BRANCH  33  36
HETATM   36  O   UNL     1      27.934  45.401  55.828  1.00  0.00    -0.352 OA
BRANCH  36  37
HETATM   37  C   UNL     1      29.210  46.033  55.948  1.00  0.00     0.171 C 
HETATM   38  C   UNL     1      30.262  44.953  56.117  1.00  0.00     0.034 C 
ENDBRANCH  36  37
ENDBRANCH  33  36
ENDBRANCH  27  30
ENDBRANCH   1  26
TORSDOF 9
ENDMDL
MODEL 2
REMARK VINA RESULT:      -8.5      2.750      7.631
REMARK  9 active torsions:
REMARK  status: ('A' for Active; 'I' for Inactive)
REMARK    1  A    between atoms: C_2  and  O_3 
REMARK    2  A    between atoms: O_3  and  C_4 
REMARK    3  A    between atoms: C_7  and  N_8 
REMARK       I    between atoms: N_8  and  C_9 
REMARK    4  A    between atoms: C_9  and  C_10 
REMARK    5  A    between atoms: C_11  and  N_12 
REMARK       I    between atoms: N_12  and  C_13 
REMARK    6  A    between atoms: C_13  and  C_14 
REMARK    7  A    between atoms: C_14  and  N_15 
REMARK    8  A    between atoms: N_15  and  C_18 
REMARK    9  A    between atoms: C_18  and  C_19 
ROOT
HETATM    1  C   UNL     1      27.275  43.383  50.517  1.00  0.00     0.073 A 
HETATM    2  C   UNL     1      27.672  43.366  51.852  1.00  0.00     0.093 A 
HETATM    3  S   UNL     1      28.396  41.899  52.300  1.00  0.00    -0.075 SA
HETATM    4  C   UNL     1      28.076  41.198  50.792  1.00  0.00    -0.008 A 
HETATM    5  C   UNL     1      27.442  42.068  49.923  1.00  0.00    -0.026 A 
HETATM    6  C   UNL     1      26.998  41.600  48.563  1.00  0.00     0.041 C 
HETATM    7  C   UNL     1      26.922  40.068  48.476  1.00  0.00     0.009 C 
HETATM    8  C   UNL     1      28.207  39.420  49.027  1.00  0.00    -0.014 C 
HETATM    9  C   UNL     1      28.186  37.908  48.816  1.00  0.00     0.010 C 
HETATM   10  C   UNL     1      28.396  39.757  50.521  1.00  0.00     0.051 C 
ENDROOT
BRANCH   2  11
HETATM   11  N   UNL     1      27.518  44.408  52.759  1.00  0.00    -0.319 N 
HETATM   12  C   UNL     1      26.339  44.850  53.315  1.00  0.00     0.248 C 
HETATM   13  O   UNL     1      25.205  44.389  53.188  1.00  0.00    -0.271 OA
HETATM   14  H   UNL     1      28.389  44.918  52.930  1.00  0.00     0.169 HD
BRANCH  12  15
HETATM   15  C   UNL     1      26.499  46.082  54.209  1.00  0.00     0.335 C 
BRANCH  15  16
HETATM   16  N   UNL     1      27.384  45.757  55.387  1.00  0.00    -0.063 N 
HETATM   17  H   UNL     1      26.968  46.050  56.278  1.00  0.00     0.278 HD
HETATM   18  H   UNL     1      27.451  44.725  55.417  1.00  0.00     0.278 HD
BRANCH  16  19
HETATM   19  C   UNL     1      28.781  46.259  55.284  1.00  0.00     0.271 C 
BRANCH  19  20
HETATM   20  C   UNL     1      29.734  45.326  55.971  1.00  0.00    -0.033 A 
HETATM   21  C   UNL     1      30.149  44.143  55.336  1.00  0.00     0.009 A 
HETATM   22  C   UNL     1      31.008  43.258  55.987  1.00  0.00     0.001 A 
HETATM   23  C   UNL     1      31.454  43.537  57.276  1.00  0.00     0.000 A 
HETATM   24  C   UNL     1      31.041  44.701  57.920  1.00  0.00     0.001 A 
HETATM   25  C   UNL     1      30.182  45.592  57.274  1.00  0.00     0.009 A 
ENDBRANCH  19  20
ENDBRANCH  16  19
ENDBRANCH  15  16
ENDBRANCH  12  15
ENDBRANCH   2  11
BRANCH   1  26
HETATM   26  C   UNL     1      26.710  44.601  49.906  1.00  0.00     0.259 C 
HETATM   27  N   UNL     1      25.334  44.646  49.928  1.00  0.00    -0.323 N 
HETATM   28  H   UNL     1      24.863  43.788  50.180  1.00  0.00     0.169 HD
HETATM   29  O   UNL     1      27.453  45.417  49.363  1.00  0.00    -0.267 OA
BRANCH  27  30
HETATM   30  C   UNL     1      24.486  45.722  49.607  1.00  0.00     0.035 A 
HETATM   31  C   UNL     1      24.641  47.016  50.096  1.00  0.00     0.032 A 
HETATM   32  C   UNL     1      23.704  48.006  49.771  1.00  0.00     0.039 A 
HETATM   33  C   UNL     1      22.602  47.716  48.961  1.00  0.00     0.068 A 
HETATM   34  C   UNL     1      22.457  46.428  48.456  1.00  0.00     0.039 A 
HETATM   35  C   UNL     1      23.391  45.438  48.780  1.00  0.00     0.032 A 
BRANCH  33  36
HETATM   36  O   UNL     1      21.751  48.764  48.746  1.00  0.00    -0.352 OA
BRANCH  36  37
HETATM   37  C   UNL     1      22.025  49.976  49.452  1.00  0.00     0.171 C 
HETATM   38  C   UNL     1      21.898  51.132  48.477  1.00  0.00     0.034 C 
ENDBRANCH  36  37
ENDBRANCH  33  36
ENDBRANCH  27  30
ENDBRANCH   1  26
TORSDOF 9
ENDMDL
MODEL 3
REMARK VINA RESULT:      -8.2      2.878      8.969
REMARK  9 active torsions:
REMARK  status: ('A' for Active; 'I' for Inactive)
REMARK    1  A    between atoms: C_2  and  O_3 
REMARK    2  A    between atoms: O_3  and  C_4 
REMARK    3  A    between atoms: C_7  and  N_8 
REMARK       I    between atoms: N_8  and  C_9 
REMARK    4  A    between atoms: C_9  and  C_10 
REMARK    5  A    between atoms: C_11  and  N_12 
REMARK       I    between atoms: N_12  and  C_13 
REMARK    6  A    between atoms: C_13  and  C_14 
REMARK    7  A    between atoms: C_14  and  N_15 
REMARK    8  A    between atoms: N_15  and  C_18 
REMARK    9  A    between atoms: C_18  and  C_19 
ROOT
HETATM    1  C   UNL     1      26.797  45.129  51.950  1.00  0.00     0.073 A 
HETATM    2  C   UNL     1      25.771  46.070  51.930  1.00  0.00     0.093 A 
HETATM    3  S   UNL     1      25.821  47.122  53.259  1.00  0.00    -0.075 SA
HETATM    4  C   UNL     1      27.105  46.278  53.969  1.00  0.00    -0.008 A 
HETATM    5  C   UNL     1      27.529  45.208  53.202  1.00  0.00    -0.026 A 
HETATM    6  C   UNL     1      28.605  44.284  53.708  1.00  0.00     0.041 C 
HETATM    7  C   UNL     1      28.799  44.401  55.228  1.00  0.00     0.009 C 
HETATM    8  C   UNL     1      28.919  45.877  55.656  1.00  0.00    -0.014 C 
HETATM    9  C   UNL     1      29.246  45.985  57.144  1.00  0.00     0.010 C 
HETATM   10  C   UNL     1      27.626  46.652  55.327  1.00  0.00     0.051 C 
ENDROOT
BRANCH   2  11
HETATM   11  N   UNL     1      24.789  46.180  50.951  1.00  0.00    -0.319 N 
HETATM   12  C   UNL     1      24.588  47.243  50.100  1.00  0.00     0.248 C 
HETATM   13  O   UNL     1      25.255  48.270  49.977  1.00  0.00    -0.271 OA
HETATM   14  H   UNL     1      24.125  45.402  50.965  1.00  0.00     0.169 HD
BRANCH  12  15
HETATM   15  C   UNL     1      23.360  47.092  49.199  1.00  0.00     0.335 C 
BRANCH  15  16
HETATM   16  N   UNL     1      22.325  48.130  49.555  1.00  0.00    -0.063 N 
HETATM   17  H   UNL     1      21.442  47.710  49.863  1.00  0.00     0.278 HD
HETATM   18  H   UNL     1      22.706  48.647  50.366  1.00  0.00     0.278 HD
BRANCH  16  19
HETATM   19  C   UNL     1      22.067  49.150  48.501  1.00  0.00     0.271 C 
BRANCH  19  20
HETATM   20  C   UNL     1      20.908  50.024  48.880  1.00  0.00    -0.033 A 
HETATM   21  C   UNL     1      20.743  51.282  48.276  1.00  0.00     0.009 A 
HETATM   22  C   UNL     1      19.685  52.110  48.650  1.00  0.00     0.001 A 
HETATM   23  C   UNL     1      18.789  51.698  49.633  1.00  0.00     0.000 A 
HETATM   24  C   UNL     1      18.947  50.457  50.246  1.00  0.00     0.001 A 
HETATM   25  C   UNL     1      20.003  49.623  49.875  1.00  0.00     0.009 A 
ENDBRANCH  19  20
ENDBRANCH  16  19
ENDBRANCH  15  16
ENDBRANCH  12  15
ENDBRANCH   2  11
BRANCH   1  26
HETATM   26  C   UNL     1      26.985  44.182  50.835  1.00  0.00     0.259 C 
HETATM   27  N   UNL     1      26.961  42.860  51.219  1.00  0.00    -0.323 N 
HETATM   28  H   UNL     1      27.005  42.683  52.212  1.00  0.00     0.169 HD
HETATM   29  O   UNL     1      27.227  44.604  49.706  1.00  0.00    -0.267 OA
BRANCH  27  30
HETATM   30  C   UNL     1      26.923  41.711  50.408  1.00  0.00     0.035 A 
HETATM   31  C   UNL     1      25.853  41.365  49.587  1.00  0.00     0.032 A 
HETATM   32  C   UNL     1      25.881  40.164  48.866  1.00  0.00     0.039 A 
HETATM   33  C   UNL     1      26.971  39.294  48.959  1.00  0.00     0.068 A 
HETATM   34  C   UNL     1      28.050  39.648  49.764  1.00  0.00     0.039 A 
HETATM   35  C   UNL     1      28.023  40.847  50.485  1.00  0.00     0.032 A 
BRANCH  33  36
HETATM   36  O   UNL     1      26.857  38.145  48.227  1.00  0.00    -0.352 OA
BRANCH  36  37
HETATM   37  C   UNL     1      28.020  37.710  47.520  1.00  0.00     0.171 C 
HETATM   38  C   UNL     1      28.080  38.457  46.200  1.00  0.00     0.034 C 
ENDBRANCH  36  37
ENDBRANCH  33  36
ENDBRANCH  27  30
ENDBRANCH   1  26
TORSDOF 9
ENDMDL
MODEL 4
REMARK VINA RESULT:      -8.1      2.682      6.795
REMARK  9 active torsions:
REMARK  status: ('A' for Active; 'I' for Inactive)
REMARK    1  A    between atoms: C_2  and  O_3 
REMARK    2  A    between atoms: O_3  and  C_4 
REMARK    3  A    between atoms: C_7  and  N_8 
REMARK       I    between atoms: N_8  and  C_9 
REMARK    4  A    between atoms: C_9  and  C_10 
REMARK    5  A    between atoms: C_11  and  N_12 
REMARK       I    between atoms: N_12  and  C_13 
REMARK    6  A    between atoms: C_13  and  C_14 
REMARK    7  A    between atoms: C_14  and  N_15 
REMARK    8  A    between atoms: N_15  and  C_18 
REMARK    9  A    between atoms: C_18  and  C_19 
ROOT
HETATM    1  C   UNL     1      26.252  42.439  49.338  1.00  0.00     0.073 A 
HETATM    2  C   UNL     1      25.048  42.559  48.649  1.00  0.00     0.093 A 
HETATM    3  S   UNL     1      24.623  41.142  47.822  1.00  0.00    -0.075 SA
HETATM    4  C   UNL     1      26.079  40.381  48.230  1.00  0.00    -0.008 A 
HETATM    5  C   UNL     1      26.894  41.177  49.016  1.00  0.00    -0.026 A 
HETATM    6  C   UNL     1      28.270  40.707  49.409  1.00  0.00     0.041 C 
HETATM    7  C   UNL     1      28.767  39.562  48.514  1.00  0.00     0.009 C 
HETATM    8  C   UNL     1      27.693  38.465  48.374  1.00  0.00    -0.014 C 
HETATM    9  C   UNL     1      28.237  37.268  47.596  1.00  0.00     0.010 C 
HETATM   10  C   UNL     1      26.424  39.021  47.695  1.00  0.00     0.051 C 
ENDROOT
BRANCH   2  11
HETATM   11  N   UNL     1      24.244  43.693  48.611  1.00  0.00    -0.319 N 
HETATM   12  C   UNL     1      23.420  44.154  49.613  1.00  0.00     0.248 C 
HETATM   13  O   UNL     1      23.269  43.713  50.752  1.00  0.00    -0.271 OA
HETATM   14  H   UNL     1      24.238  44.146  47.694  1.00  0.00     0.169 HD
BRANCH  12  15
HETATM   15  C   UNL     1      22.595  45.381  49.221  1.00  0.00     0.335 C 
BRANCH  15  16
HETATM   16  N   UNL     1      23.507  46.503  48.791  1.00  0.00    -0.063 N 
HETATM   17  H   UNL     1      24.345  46.160  48.309  1.00  0.00     0.278 HD
HETATM   18  H   UNL     1      22.973  47.057  48.098  1.00  0.00     0.278 HD
BRANCH  16  19
HETATM   19  C   UNL     1      23.891  47.454  49.871  1.00  0.00     0.271 C 
BRANCH  19  20
HETATM   20  C   UNL     1      25.072  48.281  49.456  1.00  0.00    -0.033 A 
HETATM   21  C   UNL     1      24.900  49.382  48.601  1.00  0.00     0.009 A 
HETATM   22  C   UNL     1      26.001  50.133  48.189  1.00  0.00     0.001 A 
HETATM   23  C   UNL     1      27.281  49.789  48.615  1.00  0.00     0.000 A 
HETATM   24  C   UNL     1      27.465  48.693  49.455  1.00  0.00     0.001 A 
HETATM   25  C   UNL     1      26.368  47.938  49.873  1.00  0.00     0.009 A 
ENDBRANCH  19  20
ENDBRANCH  16  19
ENDBRANCH  15  16
ENDBRANCH  12  15
ENDBRANCH   2  11
BRANCH   1  26
HETATM   26  C   UNL     1      26.752  43.530  50.196  1.00  0.00     0.259 C 
HETATM   27  N   UNL     1      26.450  43.369  51.530  1.00  0.00    -0.323 N 
HETATM   28  H   UNL     1      25.779  42.648  51.753  1.00  0.00     0.169 HD
HETATM   29  O   UNL     1      27.301  44.506  49.690  1.00  0.00    -0.267 OA
BRANCH  27  30
HETATM   30  C   UNL     1      26.921  44.107  52.631  1.00  0.00     0.035 A 
HETATM   31  C   UNL     1      26.480  45.384  52.967  1.00  0.00     0.032 A 
HETATM   32  C   UNL     1      27.060  46.066  54.046  1.00  0.00     0.039 A 
HETATM   33  C   UNL     1      28.086  45.487  54.796  1.00  0.00     0.068 A 
HETATM   34  C   UNL     1      28.515  44.203  54.473  1.00  0.00     0.039 A 
HETATM   35  C   UNL     1      27.938  43.520  53.396  1.00  0.00     0.032 A 
BRANCH  33  36
HETATM   36  O   UNL     1      28.582  46.271  55.800  1.00  0.00    -0.352 OA
BRANCH  36  37
HETATM   37  C   UNL     1      29.846  45.895  56.351  1.00  0.00     0.171 C 
HETATM   38  C   UNL     1      29.728  45.912  57.864  1.00  0.00     0.034 C 
ENDBRANCH  36  37
ENDBRANCH  33  36
ENDBRANCH  27  30
ENDBRANCH   1  26
TORSDOF 9
ENDMDL
MODEL 5
REMARK VINA RESULT:      -8.0      3.114      7.583
REMARK  9 active torsions:
REMARK  status: ('A' for Active; 'I' for Inactive)
REMARK    1  A    between atoms: C_2  and  O_3 
REMARK    2  A    between atoms: O_3  and  C_4 
REMARK    3  A    between atoms: C_7  and  N_8 
REMARK       I    between atoms: N_8  and  C_9 
REMARK    4  A    between atoms: C_9  and  C_10 
REMARK    5  A    between atoms: C_11  and  N_12 
REMARK       I    between atoms: N_12  and  C_13 
REMARK    6  A    between atoms: C_13  and  C_14 
REMARK    7  A    between atoms: C_14  and  N_15 
REMARK    8  A    between atoms: N_15  and  C_18 
REMARK    9  A    between atoms: C_18  and  C_19 
ROOT
HETATM    1  C   UNL     1      26.876  43.499  52.652  1.00  0.00     0.073 A 
HETATM    2  C   UNL     1      27.261  42.342  51.981  1.00  0.00     0.093 A 
HETATM    3  S   UNL     1      28.625  41.608  52.671  1.00  0.00    -0.075 SA
HETATM    4  C   UNL     1      28.830  42.870  53.781  1.00  0.00    -0.008 A 
HETATM    5  C   UNL     1      27.859  43.848  53.662  1.00  0.00    -0.026 A 
HETATM    6  C   UNL     1      27.923  45.095  54.505  1.00  0.00     0.041 C 
HETATM    7  C   UNL     1      29.322  45.320  55.098  1.00  0.00     0.009 C 
HETATM    8  C   UNL     1      29.857  44.032  55.755  1.00  0.00    -0.014 C 
HETATM    9  C   UNL     1      31.187  44.293  56.459  1.00  0.00     0.010 C 
HETATM   10  C   UNL     1      30.009  42.905  54.711  1.00  0.00     0.051 C 
ENDROOT
BRANCH   2  11
HETATM   11  N   UNL     1      26.631  41.802  50.865  1.00  0.00    -0.319 N 
HETATM   12  C   UNL     1      26.616  42.326  49.592  1.00  0.00     0.248 C 
HETATM   13  O   UNL     1      27.194  43.323  49.161  1.00  0.00    -0.271 OA
HETATM   14  H   UNL     1      26.067  40.978  51.087  1.00  0.00     0.169 HD
BRANCH  12  15
HETATM   15  C   UNL     1      25.751  41.536  48.607  1.00  0.00     0.335 C 
BRANCH  15  16
HETATM   16  N   UNL     1      26.509  41.304  47.323  1.00  0.00    -0.063 N 
HETATM   17  H   UNL     1      26.139  41.863  46.547  1.00  0.00     0.278 HD
HETATM   18  H   UNL     1      27.473  41.638  47.496  1.00  0.00     0.278 HD
BRANCH  16  19
HETATM   19  C   UNL     1      26.633  39.878  46.914  1.00  0.00     0.271 C 
BRANCH  19  20
HETATM   20  C   UNL     1      27.334  39.079  47.974  1.00  0.00    -0.033 A 
HETATM   21  C   UNL     1      28.658  39.386  48.331  1.00  0.00     0.009 A 
HETATM   22  C   UNL     1      29.322  38.624  49.293  1.00  0.00     0.001 A 
HETATM   23  C   UNL     1      28.680  37.548  49.898  1.00  0.00     0.000 A 
HETATM   24  C   UNL     1      27.371  37.228  49.544  1.00  0.00     0.001 A 
HETATM   25  C   UNL     1      26.699  37.986  48.584  1.00  0.00     0.009 A 
ENDBRANCH  19  20
ENDBRANCH  16  19
ENDBRANCH  15  16
ENDBRANCH  12  15
ENDBRANCH   2  11
BRANCH   1  26
HETATM   26  C   UNL     1      25.657  44.235  52.265  1.00  0.00     0.259 C 
HETATM   27  N   UNL     1      25.852  45.134  51.241  1.00  0.00    -0.323 N 
HETATM   28  H   UNL     1      26.812  45.329  50.994  1.00  0.00     0.169 HD
HETATM   29  O   UNL     1      24.617  44.077  52.902  1.00  0.00    -0.267 OA
BRANCH  27  30
HETATM   30  C   UNL     1      24.890  45.854  50.510  1.00  0.00     0.035 A 
HETATM   31  C   UNL     1      23.939  45.271  49.676  1.00  0.00     0.032 A 
HETATM   32  C   UNL     1      23.064  46.079  48.937  1.00  0.00     0.039 A 
HETATM   33  C   UNL     1      23.129  47.472  49.017  1.00  0.00     0.068 A 
HETATM   34  C   UNL     1      24.065  48.056  49.866  1.00  0.00     0.039 A 
HETATM   35  C   UNL     1      24.941  47.251  50.604  1.00  0.00     0.032 A 
BRANCH  33  36
HETATM   36  O   UNL     1      22.239  48.139  48.223  1.00  0.00    -0.352 OA
BRANCH  36  37
HETATM   37  C   UNL     1      21.162  48.810  48.880  1.00  0.00     0.171 C 
HETATM   38  C   UNL     1      21.346  50.304  48.688  1.00  0.00     0.034 C 
ENDBRANCH  36  37
ENDBRANCH  33  36
ENDBRANCH  27  30
ENDBRANCH   1  26
TORSDOF 9
ENDMDL
MODEL 6
REMARK VINA RESULT:      -7.9      2.478      8.192
REMARK  9 active torsions:
REMARK  status: ('A' for Active; 'I' for Inactive)
REMARK    1  A    between atoms: C_2  and  O_3 
REMARK    2  A    between atoms: O_3  and  C_4 
REMARK    3  A    between atoms: C_7  and  N_8 
REMARK       I    between atoms: N_8  and  C_9 
REMARK    4  A    between atoms: C_9  and  C_10 
REMARK    5  A    between atoms: C_11  and  N_12 
REMARK       I    between atoms: N_12  and  C_13 
REMARK    6  A    between atoms: C_13  and  C_14 
REMARK    7  A    between atoms: C_14  and  N_15 
REMARK    8  A    between atoms: N_15  and  C_18 
REMARK    9  A    between atoms: C_18  and  C_19 
ROOT
HETATM    1  C   UNL     1      27.054  44.150  52.997  1.00  0.00     0.073 A 
HETATM    2  C   UNL     1      27.051  42.890  52.404  1.00  0.00     0.093 A 
HETATM    3  S   UNL     1      28.155  41.825  53.125  1.00  0.00    -0.075 SA
HETATM    4  C   UNL     1      28.768  43.034  54.140  1.00  0.00    -0.008 A 
HETATM    5  C   UNL     1      28.131  44.250  53.966  1.00  0.00    -0.026 A 
HETATM    6  C   UNL     1      28.595  45.470  54.718  1.00  0.00     0.041 C 
HETATM    7  C   UNL     1      30.017  45.300  55.273  1.00  0.00     0.009 C 
HETATM    8  C   UNL     1      30.164  43.955  56.011  1.00  0.00    -0.014 C 
HETATM    9  C   UNL     1      31.534  43.847  56.677  1.00  0.00     0.010 C 
HETATM   10  C   UNL     1      29.934  42.771  55.048  1.00  0.00     0.051 C 
ENDROOT
BRANCH   2  11
HETATM   11  N   UNL     1      26.250  42.496  51.338  1.00  0.00    -0.319 N 
HETATM   12  C   UNL     1      26.396  42.859  50.018  1.00  0.00     0.248 C 
HETATM   13  O   UNL     1      27.280  43.537  49.498  1.00  0.00    -0.271 OA
HETATM   14  H   UNL     1      25.435  41.951  51.633  1.00  0.00     0.169 HD
BRANCH  12  15
HETATM   15  C   UNL     1      25.289  42.328  49.104  1.00  0.00     0.335 C 
BRANCH  15  16
HETATM   16  N   UNL     1      24.700  43.456  48.294  1.00  0.00    -0.063 N 
HETATM   17  H   UNL     1      24.516  44.289  48.864  1.00  0.00     0.278 HD
HETATM   18  H   UNL     1      25.424  43.723  47.605  1.00  0.00     0.278 HD
BRANCH  16  19
HETATM   19  C   UNL     1      23.490  43.100  47.503  1.00  0.00     0.271 C 
BRANCH  19  20
HETATM   20  C   UNL     1      22.471  44.200  47.564  1.00  0.00    -0.033 A 
HETATM   21  C   UNL     1      22.388  45.145  46.528  1.00  0.00     0.009 A 
HETATM   22  C   UNL     1      21.463  46.188  46.598  1.00  0.00     0.001 A 
HETATM   23  C   UNL     1      20.623  46.303  47.702  1.00  0.00     0.000 A 
HETATM   24  C   UNL     1      20.704  45.378  48.741  1.00  0.00     0.001 A 
HETATM   25  C   UNL     1      21.626  44.332  48.676  1.00  0.00     0.009 A 
ENDBRANCH  19  20
ENDBRANCH  16  19
ENDBRANCH  15  16
ENDBRANCH  12  15
ENDBRANCH   2  11
BRANCH   1  26
HETATM   26  C   UNL     1      26.099  45.193  52.576  1.00  0.00     0.259 C 
HETATM   27  N   UNL     1      26.453  45.832  51.410  1.00  0.00    -0.323 N 
HETATM   28  H   UNL     1      27.390  45.661  51.073  1.00  0.00     0.169 HD
HETATM   29  O   UNL     1      25.144  45.476  53.297  1.00  0.00    -0.267 OA
BRANCH  27  30
HETATM   30  C   UNL     1      25.694  46.730  50.636  1.00  0.00     0.035 A 
HETATM   31  C   UNL     1      24.357  46.539  50.298  1.00  0.00     0.032 A 
HETATM   32  C   UNL     1      23.705  47.459  49.466  1.00  0.00     0.039 A 
HETATM   33  C   UNL     1      24.378  48.574  48.959  1.00  0.00     0.068 A 
HETATM   34  C   UNL     1      25.709  48.776  49.312  1.00  0.00     0.039 A 
HETATM   35  C   UNL     1      26.362  47.858  50.142  1.00  0.00     0.032 A 
BRANCH  33  36
HETATM   36  O   UNL     1      23.634  49.374  48.138  1.00  0.00    -0.352 OA
BRANCH  36  37
HETATM   37  C   UNL     1      23.449  50.730  48.548  1.00  0.00     0.171 C 
HETATM   38  C   UNL     1      22.005  51.114  48.282  1.00  0.00     0.034 C 
ENDBRANCH  36  37
ENDBRANCH  33  36
ENDBRANCH  27  30
ENDBRANCH   1  26
TORSDOF 9
ENDMDL
MODEL 7
REMARK VINA RESULT:      -7.8      1.887      2.872
REMARK  9 active torsions:
REMARK  status: ('A' for Active; 'I' for Inactive)
REMARK    1  A    between atoms: C_2  and  O_3 
REMARK    2  A    between atoms: O_3  and  C_4 
REMARK    3  A    between atoms: C_7  and  N_8 
REMARK       I    between atoms: N_8  and  C_9 
REMARK    4  A    between atoms: C_9  and  C_10 
REMARK    5  A    between atoms: C_11  and  N_12 
REMARK       I    between atoms: N_12  and  C_13 
REMARK    6  A    between atoms: C_13  and  C_14 
REMARK    7  A    between atoms: C_14  and  N_15 
REMARK    8  A    between atoms: N_15  and  C_18 
REMARK    9  A    between atoms: C_18  and  C_19 
ROOT
HETATM    1  C   UNL     1      22.590  48.047  48.570  1.00  0.00     0.073 A 
HETATM    2  C   UNL     1      21.947  47.115  47.759  1.00  0.00     0.093 A 
HETATM    3  S   UNL     1      20.507  47.711  47.092  1.00  0.00    -0.075 SA
HETATM    4  C   UNL     1      20.618  49.158  47.967  1.00  0.00    -0.008 A 
HETATM    5  C   UNL     1      21.754  49.220  48.753  1.00  0.00    -0.026 A 
HETATM    6  C   UNL     1      21.985  50.391  49.670  1.00  0.00     0.041 C 
HETATM    7  C   UNL     1      20.693  51.179  49.937  1.00  0.00     0.009 C 
HETATM    8  C   UNL     1      19.953  51.487  48.621  1.00  0.00    -0.014 C 
HETATM    9  C   UNL     1      18.743  52.384  48.875  1.00  0.00     0.010 C 
HETATM   10  C   UNL     1      19.524  50.185  47.914  1.00  0.00     0.051 C 
ENDROOT
BRANCH   2  11
HETATM   11  N   UNL     1      22.394  45.826  47.490  1.00  0.00    -0.319 N 
HETATM   12  C   UNL     1      21.875  44.652  47.988  1.00  0.00     0.248 C 
HETATM   13  O   UNL     1      20.889  44.487  48.704  1.00  0.00    -0.271 OA
HETATM   14  H   UNL     1      23.250  45.811  46.929  1.00  0.00     0.169 HD
BRANCH  12  15
HETATM   15  C   UNL     1      22.656  43.404  47.571  1.00  0.00     0.335 C 
BRANCH  15  16
HETATM   16  N   UNL     1      23.911  43.277  48.400  1.00  0.00    -0.063 N 
HETATM   17  H   UNL     1      24.761  43.326  47.828  1.00  0.00     0.278 HD
HETATM   18  H   UNL     1      23.926  44.102  49.024  1.00  0.00     0.278 HD
BRANCH  16  19
HETATM   19  C   UNL     1      23.960  42.085  49.291  1.00  0.00     0.271 C 
BRANCH  19  20
HETATM   20  C   UNL     1      25.369  41.591  49.440  1.00  0.00    -0.033 A 
HETATM   21  C   UNL     1      25.849  41.193  50.699  1.00  0.00     0.009 A 
HETATM   22  C   UNL     1      27.169  40.764  50.846  1.00  0.00     0.001 A 
HETATM   23  C   UNL     1      28.021  40.736  49.745  1.00  0.00     0.000 A 
HETATM   24  C   UNL     1      27.558  41.137  48.494  1.00  0.00     0.001 A 
HETATM   25  C   UNL     1      26.239  41.566  48.340  1.00  0.00     0.009 A 
ENDBRANCH  19  20
ENDBRANCH  16  19
ENDBRANCH  15  16
ENDBRANCH  12  15
ENDBRANCH   2  11
BRANCH   1  26
HETATM   26  C   UNL     1      23.907  47.756  49.170  1.00  0.00     0.259 C 
HETATM   27  N   UNL     1      23.927  46.613  49.937  1.00  0.00    -0.323 N 
HETATM   28  H   UNL     1      23.029  46.208  50.159  1.00  0.00     0.169 HD
HETATM   29  O   UNL     1      24.833  48.552  49.030  1.00  0.00    -0.267 OA
BRANCH  27  30
HETATM   30  C   UNL     1      25.036  45.949  50.492  1.00  0.00     0.035 A 
HETATM   31  C   UNL     1      26.105  45.452  49.752  1.00  0.00     0.032 A 
HETATM   32  C   UNL     1      27.133  44.745  50.391  1.00  0.00     0.039 A 
HETATM   33  C   UNL     1      27.104  44.522  51.770  1.00  0.00     0.068 A 
HETATM   34  C   UNL     1      26.046  45.035  52.514  1.00  0.00     0.039 A 
HETATM   35  C   UNL     1      25.018  45.740  51.878  1.00  0.00     0.032 A 
BRANCH  33  36
HETATM   36  O   UNL     1      28.152  43.794  52.260  1.00  0.00    -0.352 OA
BRANCH  36  37
HETATM   37  C   UNL     1      27.990  43.217  53.557  1.00  0.00     0.171 C 
HETATM   38  C   UNL     1      29.130  43.697  54.436  1.00  0.00     0.034 C 
ENDBRANCH  36  37
ENDBRANCH  33  36
ENDBRANCH  27  30
ENDBRANCH   1  26
TORSDOF 9
ENDMDL
MODEL 8
REMARK VINA RESULT:      -7.6      3.463      9.262
REMARK  9 active torsions:
REMARK  status: ('A' for Active; 'I' for Inactive)
REMARK    1  A    between atoms: C_2  and  O_3 
REMARK    2  A    between atoms: O_3  and  C_4 
REMARK    3  A    between atoms: C_7  and  N_8 
REMARK       I    between atoms: N_8  and  C_9 
REMARK    4  A    between atoms: C_9  and  C_10 
REMARK    5  A    between atoms: C_11  and  N_12 
REMARK       I    between atoms: N_12  and  C_13 
REMARK    6  A    between atoms: C_13  and  C_14 
REMARK    7  A    between atoms: C_14  and  N_15 
REMARK    8  A    between atoms: N_15  and  C_18 
REMARK    9  A    between atoms: C_18  and  C_19 
ROOT
HETATM    1  C   UNL     1      27.141  43.176  52.057  1.00  0.00     0.073 A 
HETATM    2  C   UNL     1      26.289  44.275  52.123  1.00  0.00     0.093 A 
HETATM    3  S   UNL     1      26.816  45.447  53.229  1.00  0.00    -0.075 SA
HETATM    4  C   UNL     1      28.100  44.476  53.755  1.00  0.00    -0.008 A 
HETATM    5  C   UNL     1      28.162  43.266  53.086  1.00  0.00    -0.026 A 
HETATM    6  C   UNL     1      29.184  42.231  53.474  1.00  0.00     0.041 C 
HETATM    7  C   UNL     1      29.762  42.485  54.875  1.00  0.00     0.009 C 
HETATM    8  C   UNL     1      30.195  43.956  55.033  1.00  0.00    -0.014 C 
HETATM    9  C   UNL     1      30.891  44.175  56.375  1.00  0.00     0.010 C 
HETATM   10  C   UNL     1      28.987  44.905  54.887  1.00  0.00     0.051 C 
ENDROOT
BRANCH   2  11
HETATM   11  N   UNL     1      25.123  44.444  51.384  1.00  0.00    -0.319 N 
HETATM   12  C   UNL     1      25.018  44.974  50.118  1.00  0.00     0.248 C 
HETATM   13  O   UNL     1      25.913  45.342  49.359  1.00  0.00    -0.271 OA
HETATM   14  H   UNL     1      24.279  44.213  51.915  1.00  0.00     0.169 HD
BRANCH  12  15
HETATM   15  C   UNL     1      23.577  45.109  49.621  1.00  0.00     0.335 C 
BRANCH  15  16
HETATM   16  N   UNL     1      23.197  46.565  49.521  1.00  0.00    -0.063 N 
HETATM   17  H   UNL     1      22.614  46.870  50.307  1.00  0.00     0.278 HD
HETATM   18  H   UNL     1      24.083  47.097  49.586  1.00  0.00     0.278 HD
BRANCH  16  19
HETATM   19  C   UNL     1      22.570  46.967  48.232  1.00  0.00     0.271 C 
BRANCH  19  20
HETATM   20  C   UNL     1      22.236  48.430  48.235  1.00  0.00    -0.033 A 
HETATM   21  C   UNL     1      23.258  49.388  48.336  1.00  0.00     0.009 A 
HETATM   22  C   UNL     1      22.948  50.748  48.372  1.00  0.00     0.001 A 
HETATM   23  C   UNL     1      21.621  51.163  48.318  1.00  0.00     0.000 A 
HETATM   24  C   UNL     1      20.598  50.222  48.228  1.00  0.00     0.001 A 
HETATM   25  C   UNL     1      20.901  48.860  48.190  1.00  0.00     0.009 A 
ENDBRANCH  19  20
ENDBRANCH  16  19
ENDBRANCH  15  16
ENDBRANCH  12  15
ENDBRANCH   2  11
BRANCH   1  26
HETATM   26  C   UNL     1      26.909  42.088  51.087  1.00  0.00     0.259 C 
HETATM   27  N   UNL     1      28.039  41.710  50.398  1.00  0.00    -0.323 N 
HETATM   28  H   UNL     1      28.841  42.318  50.485  1.00  0.00     0.169 HD
HETATM   29  O   UNL     1      25.770  41.668  50.898  1.00  0.00    -0.267 OA
BRANCH  27  30
HETATM   30  C   UNL     1      28.219  40.602  49.549  1.00  0.00     0.035 A 
HETATM   31  C   UNL     1      27.953  40.608  48.183  1.00  0.00     0.032 A 
HETATM   32  C   UNL     1      28.100  39.433  47.433  1.00  0.00     0.039 A 
HETATM   33  C   UNL     1      28.509  38.241  48.036  1.00  0.00     0.068 A 
HETATM   34  C   UNL     1      28.795  38.238  49.398  1.00  0.00     0.039 A 
HETATM   35  C   UNL     1      28.648  39.410  50.149  1.00  0.00     0.032 A 
BRANCH  33  36
HETATM   36  O   UNL     1      28.584  37.165  47.197  1.00  0.00    -0.352 OA
BRANCH  36  37
HETATM   37  C   UNL     1      27.364  36.727  46.595  1.00  0.00     0.171 C 
HETATM   38  C   UNL     1      26.545  36.007  47.650  1.00  0.00     0.034 C 
ENDBRANCH  36  37
ENDBRANCH  33  36
ENDBRANCH  27  30
ENDBRANCH   1  26
TORSDOF 9
ENDMDL
MODEL 9
REMARK VINA RESULT:      -7.6      2.619      7.392
REMARK  9 active torsions:
REMARK  status: ('A' for Active; 'I' for Inactive)
REMARK    1  A    between atoms: C_2  and  O_3 
REMARK    2  A    between atoms: O_3  and  C_4 
REMARK    3  A    between atoms: C_7  and  N_8 
REMARK       I    between atoms: N_8  and  C_9 
REMARK    4  A    between atoms: C_9  and  C_10 
REMARK    5  A    between atoms: C_11  and  N_12 
REMARK       I    between atoms: N_12  and  C_13 
REMARK    6  A    between atoms: C_13  and  C_14 
REMARK    7  A    between atoms: C_14  and  N_15 
REMARK    8  A    between atoms: N_15  and  C_18 
REMARK    9  A    between atoms: C_18  and  C_19 
ROOT
HETATM    1  C   UNL     1      25.214  42.935  50.434  1.00  0.00     0.073 A 
HETATM    2  C   UNL     1      26.131  42.561  51.414  1.00  0.00     0.093 A 
HETATM    3  S   UNL     1      26.995  41.162  51.002  1.00  0.00    -0.075 SA
HETATM    4  C   UNL     1      26.087  40.931  49.591  1.00  0.00    -0.008 A 
HETATM    5  C   UNL     1      25.137  41.918  49.400  1.00  0.00    -0.026 A 
HETATM    6  C   UNL     1      24.174  41.839  48.246  1.00  0.00     0.041 C 
HETATM    7  C   UNL     1      24.089  40.420  47.661  1.00  0.00     0.009 C 
HETATM    8  C   UNL     1      25.496  39.843  47.408  1.00  0.00    -0.014 C 
HETATM    9  C   UNL     1      25.409  38.491  46.704  1.00  0.00     0.010 C 
HETATM   10  C   UNL     1      26.284  39.718  48.729  1.00  0.00     0.051 C 
ENDROOT
BRANCH   2  11
HETATM   11  N   UNL     1      26.353  43.227  52.614  1.00  0.00    -0.319 N 
HETATM   12  C   UNL     1      27.545  43.754  53.057  1.00  0.00     0.248 C 
HETATM   13  O   UNL     1      28.628  43.808  52.476  1.00  0.00    -0.271 OA
HETATM   14  H   UNL     1      25.535  43.223  53.229  1.00  0.00     0.169 HD
BRANCH  12  15
HETATM   15  C   UNL     1      27.476  44.343  54.468  1.00  0.00     0.335 C 
BRANCH  15  16
HETATM   16  N   UNL     1      28.161  45.687  54.502  1.00  0.00    -0.063 N 
HETATM   17  H   UNL     1      28.965  45.731  53.866  1.00  0.00     0.278 HD
HETATM   18  H   UNL     1      27.468  46.370  54.149  1.00  0.00     0.278 HD
BRANCH  16  19
HETATM   19  C   UNL     1      28.553  46.161  55.858  1.00  0.00     0.271 C 
BRANCH  19  20
HETATM   20  C   UNL     1      29.651  45.309  56.422  1.00  0.00    -0.033 A 
HETATM   21  C   UNL     1      30.132  45.543  57.721  1.00  0.00     0.009 A 
HETATM   22  C   UNL     1      31.175  44.774  58.236  1.00  0.00     0.001 A 
HETATM   23  C   UNL     1      31.754  43.773  57.460  1.00  0.00     0.000 A 
HETATM   24  C   UNL     1      31.292  43.538  56.167  1.00  0.00     0.001 A 
HETATM   25  C   UNL     1      30.247  44.303  55.646  1.00  0.00     0.009 A 
ENDBRANCH  19  20
ENDBRANCH  16  19
ENDBRANCH  15  16
ENDBRANCH  12  15
ENDBRANCH   2  11
BRANCH   1  26
HETATM   26  C   UNL     1      24.429  44.178  50.559  1.00  0.00     0.259 C 
HETATM   27  N   UNL     1      24.622  45.063  49.522  1.00  0.00    -0.323 N 
HETATM   28  H   UNL     1      25.394  44.864  48.902  1.00  0.00     0.169 HD
HETATM   29  O   UNL     1      23.755  44.379  51.567  1.00  0.00    -0.267 OA
BRANCH  27  30
HETATM   30  C   UNL     1      23.909  46.240  49.229  1.00  0.00     0.035 A 
HETATM   31  C   UNL     1      22.712  46.276  48.518  1.00  0.00     0.032 A 
HETATM   32  C   UNL     1      22.111  47.506  48.218  1.00  0.00     0.039 A 
HETATM   33  C   UNL     1      22.695  48.710  48.618  1.00  0.00     0.068 A 
HETATM   34  C   UNL     1      23.881  48.675  49.346  1.00  0.00     0.039 A 
HETATM   35  C   UNL     1      24.484  47.448  49.646  1.00  0.00     0.032 A 
BRANCH  33  36
HETATM   36  O   UNL     1      22.021  49.836  48.236  1.00  0.00    -0.352 OA
BRANCH  36  37
HETATM   37  C   UNL     1      21.823  50.842  49.231  1.00  0.00     0.171 C 
HETATM   38  C   UNL     1      20.348  51.201  49.256  1.00  0.00     0.034 C 
ENDBRANCH  36  37
ENDBRANCH  33  36
ENDBRANCH  27  30
ENDBRANCH   1  26
TORSDOF 9
ENDMDL
MODEL 10
REMARK VINA RESULT:      -7.5      2.580      9.345
REMARK  9 active torsions:
REMARK  status: ('A' for Active; 'I' for Inactive)
REMARK    1  A    between atoms: C_2  and  O_3 
REMARK    2  A    between atoms: O_3  and  C_4 
REMARK    3  A    between atoms: C_7  and  N_8 
REMARK       I    between atoms: N_8  and  C_9 
REMARK    4  A    between atoms: C_9  and  C_10 
REMARK    5  A    between atoms: C_11  and  N_12 
REMARK       I    between atoms: N_12  and  C_13 
REMARK    6  A    between atoms: C_13  and  C_14 
REMARK    7  A    between atoms: C_14  and  N_15 
REMARK    8  A    between atoms: N_15  and  C_18 
REMARK    9  A    between atoms: C_18  and  C_19 
ROOT
HETATM    1  C   UNL     1      27.127  44.437  51.850  1.00  0.00     0.073 A 
HETATM    2  C   UNL     1      26.495  45.592  52.303  1.00  0.00     0.093 A 
HETATM    3  S   UNL     1      27.182  46.197  53.731  1.00  0.00    -0.075 SA
HETATM    4  C   UNL     1      28.233  44.876  53.868  1.00  0.00    -0.008 A 
HETATM    5  C   UNL     1      28.097  43.976  52.827  1.00  0.00    -0.026 A 
HETATM    6  C   UNL     1      28.886  42.693  52.819  1.00  0.00     0.041 C 
HETATM    7  C   UNL     1      29.435  42.344  54.211  1.00  0.00     0.009 C 
HETATM    8  C   UNL     1      30.131  43.561  54.851  1.00  0.00    -0.014 C 
HETATM    9  C   UNL     1      30.791  43.176  56.173  1.00  0.00     0.010 C 
HETATM   10  C   UNL     1      29.132  44.718  55.061  1.00  0.00     0.051 C 
ENDROOT
BRANCH   2  11
HETATM   11  N   UNL     1      25.418  46.223  51.690  1.00  0.00    -0.319 N 
HETATM   12  C   UNL     1      25.474  47.146  50.670  1.00  0.00     0.248 C 
HETATM   13  O   UNL     1      26.456  47.553  50.051  1.00  0.00    -0.271 OA
HETATM   14  H   UNL     1      24.523  46.006  52.137  1.00  0.00     0.169 HD
BRANCH  12  15
HETATM   15  C   UNL     1      24.110  47.721  50.280  1.00  0.00     0.335 C 
BRANCH  15  16
HETATM   16  N   UNL     1      24.153  48.241  48.864  1.00  0.00    -0.063 N 
HETATM   17  H   UNL     1      25.011  47.965  48.374  1.00  0.00     0.278 HD
HETATM   18  H   UNL     1      23.369  47.783  48.368  1.00  0.00     0.278 HD
BRANCH  16  19
HETATM   19  C   UNL     1      23.930  49.706  48.723  1.00  0.00     0.271 C 
BRANCH  19  20
HETATM   20  C   UNL     1      22.494  49.997  48.399  1.00  0.00    -0.033 A 
HETATM   21  C   UNL     1      21.914  51.216  48.788  1.00  0.00     0.009 A 
HETATM   22  C   UNL     1      20.570  51.475  48.517  1.00  0.00     0.001 A 
HETATM   23  C   UNL     1      19.792  50.521  47.867  1.00  0.00     0.000 A 
HETATM   24  C   UNL     1      20.353  49.305  47.487  1.00  0.00     0.001 A 
HETATM   25  C   UNL     1      21.697  49.039  47.753  1.00  0.00     0.009 A 
ENDBRANCH  19  20
ENDBRANCH  16  19
ENDBRANCH  15  16
ENDBRANCH  12  15
ENDBRANCH   2  11
BRANCH   1  26
HETATM   26  C   UNL     1      26.740  43.807  50.573  1.00  0.00     0.259 C 
HETATM   27  N   UNL     1      25.942  42.695  50.722  1.00  0.00    -0.323 N 
HETATM   28  H   UNL     1      25.862  42.325  51.659  1.00  0.00     0.169 HD
HETATM   29  O   UNL     1      27.198  44.234  49.515  1.00  0.00    -0.267 OA
BRANCH  27  30
HETATM   30  C   UNL     1      25.250  41.973  49.733  1.00  0.00     0.035 A 
HETATM   31  C   UNL     1      25.824  40.986  48.935  1.00  0.00     0.032 A 
HETATM   32  C   UNL     1      25.068  40.369  47.929  1.00  0.00     0.039 A 
HETATM   33  C   UNL     1      23.737  40.731  47.705  1.00  0.00     0.068 A 
HETATM   34  C   UNL     1      23.156  41.703  48.514  1.00  0.00     0.039 A 
HETATM   35  C   UNL     1      23.910  42.321  49.518  1.00  0.00     0.032 A 
BRANCH  33  36
HETATM   36  O   UNL     1      23.125  40.072  46.675  1.00  0.00    -0.352 OA
BRANCH  36  37
HETATM   37  C   UNL     1      21.875  39.443  46.961  1.00  0.00     0.171 C 
HETATM   38  C   UNL     1      21.994  37.971  46.611  1.00  0.00     0.034 C 
ENDBRANCH  36  37
ENDBRANCH  33  36
ENDBRANCH  27  30
ENDBRANCH   1  26
TORSDOF 9
ENDMDL
