MODEL 1
REMARK VINA RESULT:     -10.1      0.000      0.000
REMARK  8 active torsions:
REMARK  status: ('A' for Active; 'I' for Inactive)
REMARK    1  A    between atoms: N_9  and  N_10 
REMARK    2  A    between atoms: C_11  and  C_12 
REMARK    3  A    between atoms: C_14  and  O_15 
REMARK    4  A    between atoms: C_19  and  N_20 
REMARK    5  A    between atoms: C_21  and  C_22 
REMARK       I    between atoms: C_22  and  N_23 
REMARK    6  A    between atoms: N_23  and  C_24 
REMARK    7  A    between atoms: C_24  and  C_25 
REMARK    8  A    between atoms: C_25  and  C_26 
ROOT
HETATM    1  C   UNL     1      27.463  40.320  49.186  1.00  0.00     0.002 A 
HETATM    2  C   UNL     1      26.807  41.553  49.176  1.00  0.00     0.034 A 
HETATM    3  C   UNL     1      26.909  42.441  50.240  1.00  0.00     0.086 A 
HETATM    4  C   UNL     1      27.701  42.073  51.360  1.00  0.00     0.088 A 
HETATM    5  N   UNL     1      27.864  42.866  52.427  1.00  0.00    -0.225 NA
HETATM    6  C   UNL     1      27.217  44.050  52.313  1.00  0.00     0.183 A 
HETATM    7  C   UNL     1      26.444  44.439  51.229  1.00  0.00     0.125 A 
HETATM    8  N   UNL     1      26.256  43.617  50.160  1.00  0.00    -0.242 NA
HETATM    9  N   UNL     1      27.196  45.073  53.239  1.00  0.00    -0.197 N 
HETATM   10  C   UNL     1      26.435  46.121  52.722  1.00  0.00     0.143 A 
HETATM   11  C   UNL     1      25.918  45.730  51.492  1.00  0.00     0.110 A 
HETATM   12  C   UNL     1      28.345  40.843  51.359  1.00  0.00     0.034 A 
HETATM   13  C   UNL     1      28.234  39.963  50.283  1.00  0.00     0.002 A 
ENDROOT
BRANCH  11  14
HETATM   14  C   UNL     1      24.944  46.491  50.721  1.00  0.00     0.257 C 
HETATM   15  N   UNL     1      24.296  45.772  49.740  1.00  0.00    -0.356 N 
HETATM   16  H   UNL     1      24.566  44.800  49.604  1.00  0.00     0.162 HD
HETATM   17  O   UNL     1      24.643  47.651  50.996  1.00  0.00    -0.267 OA
BRANCH  15  18
HETATM   18  C   UNL     1      23.021  46.223  49.222  1.00  0.00     0.127 C 
BRANCH  18  19
HETATM   19  C   UNL     1      23.141  47.391  48.234  1.00  0.00     0.053 C 
BRANCH  19  20
HETATM   20  C   UNL     1      22.422  48.696  48.553  1.00  0.00    -0.082 C 
HETATM   21  C   UNL     1      23.153  49.936  48.072  1.00  0.00     0.034 C 
HETATM   22  C   UNL     1      22.614  51.243  48.660  1.00  0.00     0.005 C 
HETATM   23  C   UNL     1      21.092  51.266  48.630  1.00  0.00     0.004 C 
HETATM   24  C   UNL     1      20.520  50.099  49.432  1.00  0.00     0.027 C 
HETATM   25  C   UNL     1      21.244  48.803  49.199  1.00  0.00    -0.024 C 
ENDBRANCH  19  20
ENDBRANCH  18  19
ENDBRANCH  15  18
ENDBRANCH  11  14
BRANCH  10  26
HETATM   26  N   UNL     1      26.211  47.269  53.423  1.00  0.00    -0.383 N 
HETATM   27  H   UNL     1      25.349  47.789  53.262  1.00  0.00     0.157 HD
HETATM   28  H   UNL     1      27.016  47.889  53.571  1.00  0.00     0.157 HD
ENDBRANCH  10  26
BRANCH   9  29
HETATM   29  N   UNL     1      27.692  44.962  54.511  1.00  0.00    -0.176 NA
HETATM   30  C   UNL     1      28.964  45.159  54.620  1.00  0.00     0.150 C 
BRANCH  30  31
HETATM   31  C   UNL     1      29.611  45.132  55.948  1.00  0.00    -0.014 A 
HETATM   32  C   UNL     1      30.646  44.226  56.207  1.00  0.00     0.049 A 
HETATM   33  C   UNL     1      31.231  44.206  57.468  1.00  0.00     0.066 A 
HETATM   34  C   UNL     1      30.805  45.077  58.464  1.00  0.00     0.036 A 
HETATM   35  C   UNL     1      29.773  45.983  58.201  1.00  0.00     0.004 A 
HETATM   36  C   UNL     1      29.170  46.010  56.942  1.00  0.00     0.013 A 
BRANCH  33  37
HETATM   37  O   UNL     1      32.235  43.335  57.769  1.00  0.00    -0.361 OA
HETATM   38  H   UNL     1      33.086  43.789  57.646  1.00  0.00     0.217 HD
ENDBRANCH  33  37
ENDBRANCH  30  31
ENDBRANCH   9  29
TORSDOF 8
ENDMDL
MODEL 2
REMARK VINA RESULT:     -10.1      2.452      5.966
REMARK  8 active torsions:
REMARK  status: ('A' for Active; 'I' for Inactive)
REMARK    1  A    between atoms: N_9  and  N_10 
REMARK    2  A    between atoms: C_11  and  C_12 
REMARK    3  A    between atoms: C_14  and  O_15 
REMARK    4  A    between atoms: C_19  and  N_20 
REMARK    5  A    between atoms: C_21  and  C_22 
REMARK       I    between atoms: C_22  and  N_23 
REMARK    6  A    between atoms: N_23  and  C_24 
REMARK    7  A    between atoms: C_24  and  C_25 
REMARK    8  A    between atoms: C_25  and  C_26 
ROOT
HETATM    1  C   UNL     1      27.453  47.534  55.323  1.00  0.00     0.002 A 
HETATM    2  C   UNL     1      26.645  47.852  54.230  1.00  0.00     0.034 A 
HETATM    3  C   UNL     1      26.307  46.902  53.273  1.00  0.00     0.086 A 
HETATM    4  C   UNL     1      26.805  45.580  53.422  1.00  0.00     0.088 A 
HETATM    5  N   UNL     1      26.528  44.597  52.556  1.00  0.00    -0.225 NA
HETATM    6  C   UNL     1      25.715  44.991  51.547  1.00  0.00     0.183 A 
HETATM    7  C   UNL     1      25.207  46.271  51.382  1.00  0.00     0.125 A 
HETATM    8  N   UNL     1      25.517  47.275  52.248  1.00  0.00    -0.242 NA
HETATM    9  N   UNL     1      25.249  44.211  50.507  1.00  0.00    -0.197 N 
HETATM   10  C   UNL     1      24.421  44.995  49.704  1.00  0.00     0.143 A 
HETATM   11  C   UNL     1      24.417  46.293  50.203  1.00  0.00     0.110 A 
HETATM   12  C   UNL     1      27.612  45.278  54.511  1.00  0.00     0.034 A 
HETATM   13  C   UNL     1      27.940  46.243  55.464  1.00  0.00     0.002 A 
ENDROOT
BRANCH  11  14
HETATM   14  C   UNL     1      23.799  47.434  49.543  1.00  0.00     0.257 C 
HETATM   15  N   UNL     1      24.649  48.491  49.300  1.00  0.00    -0.356 N 
HETATM   16  H   UNL     1      25.611  48.415  49.627  1.00  0.00     0.162 HD
HETATM   17  O   UNL     1      22.640  47.413  49.132  1.00  0.00    -0.267 OA
BRANCH  15  18
HETATM   18  C   UNL     1      24.334  49.467  48.278  1.00  0.00     0.127 C 
BRANCH  18  19
HETATM   19  C   UNL     1      23.731  50.764  48.835  1.00  0.00     0.053 C 
BRANCH  19  20
HETATM   20  C   UNL     1      22.215  50.887  48.925  1.00  0.00    -0.082 C 
HETATM   21  C   UNL     1      21.691  51.020  50.343  1.00  0.00     0.034 C 
HETATM   22  C   UNL     1      20.178  50.822  50.468  1.00  0.00     0.005 C 
HETATM   23  C   UNL     1      19.438  51.571  49.368  1.00  0.00     0.004 C 
HETATM   24  C   UNL     1      19.881  51.082  47.991  1.00  0.00     0.027 C 
HETATM   25  C   UNL     1      21.366  50.883  47.878  1.00  0.00    -0.024 C 
ENDBRANCH  19  20
ENDBRANCH  18  19
ENDBRANCH  15  18
ENDBRANCH  11  14
BRANCH  10  26
HETATM   26  N   UNL     1      23.829  44.505  48.578  1.00  0.00    -0.383 N 
HETATM   27  H   UNL     1      23.761  43.496  48.453  1.00  0.00     0.157 HD
HETATM   28  H   UNL     1      24.027  44.993  47.698  1.00  0.00     0.157 HD
ENDBRANCH  10  26
BRANCH   9  29
HETATM   29  N   UNL     1      25.699  42.945  50.242  1.00  0.00    -0.176 NA
HETATM   30  C   UNL     1      26.796  42.887  49.562  1.00  0.00     0.150 C 
BRANCH  30  31
HETATM   31  C   UNL     1      27.420  41.581  49.267  1.00  0.00    -0.014 A 
HETATM   32  C   UNL     1      27.909  40.785  50.310  1.00  0.00     0.049 A 
HETATM   33  C   UNL     1      28.507  39.566  50.011  1.00  0.00     0.066 A 
HETATM   34  C   UNL     1      28.616  39.131  48.695  1.00  0.00     0.036 A 
HETATM   35  C   UNL     1      28.124  39.927  47.657  1.00  0.00     0.004 A 
HETATM   36  C   UNL     1      27.528  41.157  47.940  1.00  0.00     0.013 A 
BRANCH  33  37
HETATM   37  O   UNL     1      29.005  38.762  50.992  1.00  0.00    -0.361 OA
HETATM   38  H   UNL     1      28.264  38.427  51.525  1.00  0.00     0.217 HD
ENDBRANCH  33  37
ENDBRANCH  30  31
ENDBRANCH   9  29
TORSDOF 8
ENDMDL
MODEL 3
REMARK VINA RESULT:     -10.1      1.911      2.764
REMARK  8 active torsions:
REMARK  status: ('A' for Active; 'I' for Inactive)
REMARK    1  A    between atoms: N_9  and  N_10 
REMARK    2  A    between atoms: C_11  and  C_12 
REMARK    3  A    between atoms: C_14  and  O_15 
REMARK    4  A    between atoms: C_19  and  N_20 
REMARK    5  A    between atoms: C_21  and  C_22 
REMARK       I    between atoms: C_22  and  N_23 
REMARK    6  A    between atoms: N_23  and  C_24 
REMARK    7  A    between atoms: C_24  and  C_25 
REMARK    8  A    between atoms: C_25  and  C_26 
ROOT
HETATM    1  C   UNL     1      27.673  38.832  48.750  1.00  0.00     0.002 A 
HETATM    2  C   UNL     1      26.836  39.928  48.967  1.00  0.00     0.034 A 
HETATM    3  C   UNL     1      27.008  40.771  50.058  1.00  0.00     0.086 A 
HETATM    4  C   UNL     1      28.064  40.499  50.969  1.00  0.00     0.088 A 
HETATM    5  N   UNL     1      28.312  41.260  52.043  1.00  0.00    -0.225 NA
HETATM    6  C   UNL     1      27.470  42.314  52.153  1.00  0.00     0.183 A 
HETATM    7  C   UNL     1      26.437  42.609  51.276  1.00  0.00     0.125 A 
HETATM    8  N   UNL     1      26.169  41.816  50.202  1.00  0.00    -0.242 NA
HETATM    9  N   UNL     1      27.473  43.275  53.144  1.00  0.00    -0.197 N 
HETATM   10  C   UNL     1      26.461  44.194  52.871  1.00  0.00     0.143 A 
HETATM   11  C   UNL     1      25.772  43.774  51.738  1.00  0.00     0.110 A 
HETATM   12  C   UNL     1      28.887  39.403  50.744  1.00  0.00     0.034 A 
HETATM   13  C   UNL     1      28.702  38.567  49.643  1.00  0.00     0.002 A 
ENDROOT
BRANCH  11  14
HETATM   14  C   UNL     1      24.549  44.385  51.236  1.00  0.00     0.257 C 
HETATM   15  N   UNL     1      24.712  45.641  50.693  1.00  0.00    -0.356 N 
HETATM   16  H   UNL     1      25.643  46.054  50.717  1.00  0.00     0.162 HD
HETATM   17  O   UNL     1      23.477  43.784  51.197  1.00  0.00    -0.267 OA
BRANCH  15  18
HETATM   18  C   UNL     1      23.737  46.171  49.763  1.00  0.00     0.127 C 
BRANCH  18  19
HETATM   19  C   UNL     1      23.752  47.702  49.667  1.00  0.00     0.053 C 
BRANCH  19  20
HETATM   20  C   UNL     1      25.048  48.398  49.268  1.00  0.00    -0.082 C 
HETATM   21  C   UNL     1      24.842  49.672  48.470  1.00  0.00     0.034 C 
HETATM   22  C   UNL     1      26.114  50.197  47.797  1.00  0.00     0.005 C 
HETATM   23  C   UNL     1      27.297  50.146  48.755  1.00  0.00     0.004 C 
HETATM   24  C   UNL     1      27.549  48.715  49.224  1.00  0.00     0.027 C 
HETATM   25  C   UNL     1      26.290  47.969  49.565  1.00  0.00    -0.024 C 
ENDBRANCH  19  20
ENDBRANCH  18  19
ENDBRANCH  15  18
ENDBRANCH  11  14
BRANCH  10  26
HETATM   26  N   UNL     1      26.201  45.252  53.692  1.00  0.00    -0.383 N 
HETATM   27  H   UNL     1      25.277  45.679  53.673  1.00  0.00     0.157 HD
HETATM   28  H   UNL     1      26.947  45.947  53.806  1.00  0.00     0.157 HD
ENDBRANCH  10  26
BRANCH   9  29
HETATM   29  N   UNL     1      28.232  43.196  54.281  1.00  0.00    -0.176 NA
HETATM   30  C   UNL     1      29.156  44.094  54.384  1.00  0.00     0.150 C 
BRANCH  30  31
HETATM   31  C   UNL     1      30.000  44.157  55.595  1.00  0.00    -0.014 A 
HETATM   32  C   UNL     1      29.898  45.250  56.465  1.00  0.00     0.049 A 
HETATM   33  C   UNL     1      30.712  45.299  57.590  1.00  0.00     0.066 A 
HETATM   34  C   UNL     1      31.614  44.277  57.862  1.00  0.00     0.036 A 
HETATM   35  C   UNL     1      31.710  43.186  56.994  1.00  0.00     0.004 A 
HETATM   36  C   UNL     1      30.905  43.126  55.854  1.00  0.00     0.013 A 
BRANCH  33  37
HETATM   37  O   UNL     1      30.655  46.347  58.461  1.00  0.00    -0.361 OA
HETATM   38  H   UNL     1      31.527  46.778  58.484  1.00  0.00     0.217 HD
ENDBRANCH  33  37
ENDBRANCH  30  31
ENDBRANCH   9  29
TORSDOF 8
ENDMDL
MODEL 4
REMARK VINA RESULT:      -9.9      2.236      8.956
REMARK  8 active torsions:
REMARK  status: ('A' for Active; 'I' for Inactive)
REMARK    1  A    between atoms: N_9  and  N_10 
REMARK    2  A    between atoms: C_11  and  C_12 
REMARK    3  A    between atoms: C_14  and  O_15 
REMARK    4  A    between atoms: C_19  and  N_20 
REMARK    5  A    between atoms: C_21  and  C_22 
REMARK       I    between atoms: C_22  and  N_23 
REMARK    6  A    between atoms: N_23  and  C_24 
REMARK    7  A    between atoms: C_24  and  C_25 
REMARK    8  A    between atoms: C_25  and  C_26 
ROOT
HETATM    1  C   UNL     1      24.235  40.880  47.852  1.00  0.00     0.002 A 
HETATM    2  C   UNL     1      24.731  41.162  49.126  1.00  0.00     0.034 A 
HETATM    3  C   UNL     1      24.792  42.462  49.614  1.00  0.00     0.086 A 
HETATM    4  C   UNL     1      24.337  43.522  48.784  1.00  0.00     0.088 A 
HETATM    5  N   UNL     1      24.349  44.804  49.170  1.00  0.00    -0.225 NA
HETATM    6  C   UNL     1      24.818  44.975  50.428  1.00  0.00     0.183 A 
HETATM    7  C   UNL     1      25.260  43.961  51.263  1.00  0.00     0.125 A 
HETATM    8  N   UNL     1      25.275  42.661  50.855  1.00  0.00    -0.242 NA
HETATM    9  N   UNL     1      24.949  46.171  51.106  1.00  0.00    -0.197 N 
HETATM   10  C   UNL     1      25.444  45.903  52.382  1.00  0.00     0.143 A 
HETATM   11  C   UNL     1      25.690  44.538  52.486  1.00  0.00     0.110 A 
HETATM   12  C   UNL     1      23.849  43.228  47.517  1.00  0.00     0.034 A 
HETATM   13  C   UNL     1      23.793  41.918  47.044  1.00  0.00     0.002 A 
ENDROOT
BRANCH  11  14
HETATM   14  C   UNL     1      26.362  43.899  53.609  1.00  0.00     0.257 C 
HETATM   15  N   UNL     1      27.204  42.864  53.265  1.00  0.00    -0.356 N 
HETATM   16  H   UNL     1      27.264  42.605  52.282  1.00  0.00     0.162 HD
HETATM   17  O   UNL     1      26.272  44.320  54.760  1.00  0.00    -0.267 OA
BRANCH  15  18
HETATM   18  C   UNL     1      28.262  42.449  54.162  1.00  0.00     0.127 C 
BRANCH  18  19
HETATM   19  C   UNL     1      29.520  43.325  54.071  1.00  0.00     0.053 C 
BRANCH  19  20
HETATM   20  C   UNL     1      30.127  43.870  55.358  1.00  0.00    -0.082 C 
HETATM   21  C   UNL     1      29.548  45.202  55.796  1.00  0.00     0.034 C 
HETATM   22  C   UNL     1      30.360  45.904  56.888  1.00  0.00     0.005 C 
HETATM   23  C   UNL     1      30.773  44.922  57.976  1.00  0.00     0.004 C 
HETATM   24  C   UNL     1      31.618  43.793  57.389  1.00  0.00     0.027 C 
HETATM   25  C   UNL     1      31.092  43.270  56.083  1.00  0.00    -0.024 C 
ENDBRANCH  19  20
ENDBRANCH  18  19
ENDBRANCH  15  18
ENDBRANCH  11  14
BRANCH  10  26
HETATM   26  N   UNL     1      25.704  46.894  53.282  1.00  0.00    -0.383 N 
HETATM   27  H   UNL     1      26.538  47.467  53.162  1.00  0.00     0.157 HD
HETATM   28  H   UNL     1      25.513  46.689  54.269  1.00  0.00     0.157 HD
ENDBRANCH  10  26
BRANCH   9  29
HETATM   29  N   UNL     1      24.788  47.400  50.524  1.00  0.00    -0.176 NA
HETATM   30  C   UNL     1      23.697  47.545  49.848  1.00  0.00     0.150 C 
BRANCH  30  31
HETATM   31  C   UNL     1      23.374  48.846  49.226  1.00  0.00    -0.014 A 
HETATM   32  C   UNL     1      22.114  49.425  49.424  1.00  0.00     0.049 A 
HETATM   33  C   UNL     1      21.824  50.642  48.818  1.00  0.00     0.066 A 
HETATM   34  C   UNL     1      22.769  51.287  48.029  1.00  0.00     0.036 A 
HETATM   35  C   UNL     1      24.026  50.708  47.836  1.00  0.00     0.004 A 
HETATM   36  C   UNL     1      24.331  49.482  48.432  1.00  0.00     0.013 A 
BRANCH  33  37
HETATM   37  O   UNL     1      20.609  51.239  48.975  1.00  0.00    -0.361 OA
HETATM   38  H   UNL     1      20.187  51.316  48.102  1.00  0.00     0.217 HD
ENDBRANCH  33  37
ENDBRANCH  30  31
ENDBRANCH   9  29
TORSDOF 8
ENDMDL
MODEL 5
REMARK VINA RESULT:      -9.9      2.522      4.782
REMARK  8 active torsions:
REMARK  status: ('A' for Active; 'I' for Inactive)
REMARK    1  A    between atoms: N_9  and  N_10 
REMARK    2  A    between atoms: C_11  and  C_12 
REMARK    3  A    between atoms: C_14  and  O_15 
REMARK    4  A    between atoms: C_19  and  N_20 
REMARK    5  A    between atoms: C_21  and  C_22 
REMARK       I    between atoms: C_22  and  N_23 
REMARK    6  A    between atoms: N_23  and  C_24 
REMARK    7  A    between atoms: C_24  and  C_25 
REMARK    8  A    between atoms: C_25  and  C_26 
ROOT
HETATM    1  C   UNL     1      25.600  50.328  48.099  1.00  0.00     0.002 A 
HETATM    2  C   UNL     1      24.674  49.290  48.214  1.00  0.00     0.034 A 
HETATM    3  C   UNL     1      24.970  48.122  48.907  1.00  0.00     0.086 A 
HETATM    4  C   UNL     1      26.252  47.993  49.506  1.00  0.00     0.088 A 
HETATM    5  N   UNL     1      26.625  46.910  50.199  1.00  0.00    -0.225 NA
HETATM    6  C   UNL     1      25.652  45.972  50.282  1.00  0.00     0.183 A 
HETATM    7  C   UNL     1      24.390  46.074  49.716  1.00  0.00     0.125 A 
HETATM    8  N   UNL     1      24.026  47.165  48.986  1.00  0.00    -0.242 NA
HETATM    9  N   UNL     1      25.730  44.755  50.929  1.00  0.00    -0.197 N 
HETATM   10  C   UNL     1      24.503  44.105  50.797  1.00  0.00     0.143 A 
HETATM   11  C   UNL     1      23.669  44.887  50.005  1.00  0.00     0.110 A 
HETATM   12  C   UNL     1      27.166  49.031  49.379  1.00  0.00     0.034 A 
HETATM   13  C   UNL     1      26.852  50.197  48.682  1.00  0.00     0.002 A 
ENDROOT
BRANCH  11  14
HETATM   14  C   UNL     1      22.365  44.470  49.510  1.00  0.00     0.257 C 
HETATM   15  N   UNL     1      21.486  45.502  49.257  1.00  0.00    -0.356 N 
HETATM   16  H   UNL     1      21.792  46.450  49.467  1.00  0.00     0.162 HD
HETATM   17  O   UNL     1      22.105  43.301  49.231  1.00  0.00    -0.267 OA
BRANCH  15  18
HETATM   18  C   UNL     1      20.369  45.311  48.356  1.00  0.00     0.127 C 
BRANCH  18  19
HETATM   19  C   UNL     1      19.775  46.625  47.831  1.00  0.00     0.053 C 
BRANCH  19  20
HETATM   20  C   UNL     1      19.802  47.852  48.734  1.00  0.00    -0.082 C 
HETATM   21  C   UNL     1      20.852  48.878  48.348  1.00  0.00     0.034 C 
HETATM   22  C   UNL     1      21.103  49.944  49.419  1.00  0.00     0.005 C 
HETATM   23  C   UNL     1      19.790  50.459  49.993  1.00  0.00     0.004 C 
HETATM   24  C   UNL     1      18.992  49.317  50.619  1.00  0.00     0.027 C 
HETATM   25  C   UNL     1      18.995  48.063  49.792  1.00  0.00    -0.024 C 
ENDBRANCH  19  20
ENDBRANCH  18  19
ENDBRANCH  15  18
ENDBRANCH  11  14
BRANCH  10  26
HETATM   26  N   UNL     1      24.281  42.863  51.314  1.00  0.00    -0.383 N 
HETATM   27  H   UNL     1      23.338  42.606  51.600  1.00  0.00     0.157 HD
HETATM   28  H   UNL     1      24.995  42.489  51.949  1.00  0.00     0.157 HD
ENDBRANCH  10  26
BRANCH   9  29
HETATM   29  N   UNL     1      26.889  44.234  51.437  1.00  0.00    -0.176 NA
HETATM   30  C   UNL     1      27.202  44.648  52.621  1.00  0.00     0.150 C 
BRANCH  30  31
HETATM   31  C   UNL     1      28.395  44.110  53.307  1.00  0.00    -0.014 A 
HETATM   32  C   UNL     1      28.757  44.597  54.569  1.00  0.00     0.049 A 
HETATM   33  C   UNL     1      29.892  44.090  55.191  1.00  0.00     0.066 A 
HETATM   34  C   UNL     1      30.660  43.106  54.579  1.00  0.00     0.036 A 
HETATM   35  C   UNL     1      30.293  42.620  53.321  1.00  0.00     0.004 A 
HETATM   36  C   UNL     1      29.160  43.125  52.679  1.00  0.00     0.013 A 
BRANCH  33  37
HETATM   37  O   UNL     1      30.289  44.539  56.415  1.00  0.00    -0.361 OA
HETATM   38  H   UNL     1      29.500  44.790  56.925  1.00  0.00     0.217 HD
ENDBRANCH  33  37
ENDBRANCH  30  31
ENDBRANCH   9  29
TORSDOF 8
ENDMDL
MODEL 6
REMARK VINA RESULT:      -9.7      3.399      6.810
REMARK  8 active torsions:
REMARK  status: ('A' for Active; 'I' for Inactive)
REMARK    1  A    between atoms: N_9  and  N_10 
REMARK    2  A    between atoms: C_11  and  C_12 
REMARK    3  A    between atoms: C_14  and  O_15 
REMARK    4  A    between atoms: C_19  and  N_20 
REMARK    5  A    between atoms: C_21  and  C_22 
REMARK       I    between atoms: C_22  and  N_23 
REMARK    6  A    between atoms: N_23  and  C_24 
REMARK    7  A    between atoms: C_24  and  C_25 
REMARK    8  A    between atoms: C_25  and  C_26 
ROOT
HETATM    1  C   UNL     1      24.830  46.639  49.793  1.00  0.00     0.002 A 
HETATM    2  C   UNL     1      25.377  45.415  49.400  1.00  0.00     0.034 A 
HETATM    3  C   UNL     1      26.100  44.623  50.284  1.00  0.00     0.086 A 
HETATM    4  C   UNL     1      26.281  45.081  51.616  1.00  0.00     0.088 A 
HETATM    5  N   UNL     1      26.954  44.383  52.540  1.00  0.00    -0.225 NA
HETATM    6  C   UNL     1      27.420  43.200  52.076  1.00  0.00     0.183 A 
HETATM    7  C   UNL     1      27.251  42.724  50.785  1.00  0.00     0.125 A 
HETATM    8  N   UNL     1      26.592  43.450  49.840  1.00  0.00    -0.242 NA
HETATM    9  N   UNL     1      28.144  42.261  52.784  1.00  0.00    -0.197 N 
HETATM   10  C   UNL     1      28.403  41.178  51.944  1.00  0.00     0.143 A 
HETATM   11  C   UNL     1      27.897  41.464  50.681  1.00  0.00     0.110 A 
HETATM   12  C   UNL     1      25.735  46.302  51.993  1.00  0.00     0.034 A 
HETATM   13  C   UNL     1      25.012  47.084  51.094  1.00  0.00     0.002 A 
ENDROOT
BRANCH  11  14
HETATM   14  C   UNL     1      28.114  40.647  49.496  1.00  0.00     0.257 C 
HETATM   15  N   UNL     1      27.559  41.149  48.338  1.00  0.00    -0.356 N 
HETATM   16  H   UNL     1      27.020  42.011  48.403  1.00  0.00     0.162 HD
HETATM   17  O   UNL     1      28.831  39.648  49.503  1.00  0.00    -0.267 OA
BRANCH  15  18
HETATM   18  C   UNL     1      28.057  40.732  47.044  1.00  0.00     0.127 C 
BRANCH  18  19
HETATM   19  C   UNL     1      27.042  40.922  45.908  1.00  0.00     0.053 C 
BRANCH  19  20
HETATM   20  C   UNL     1      27.560  41.102  44.486  1.00  0.00    -0.082 C 
HETATM   21  C   UNL     1      28.822  40.314  44.187  1.00  0.00     0.034 C 
HETATM   22  C   UNL     1      29.522  40.731  42.890  1.00  0.00     0.005 C 
HETATM   23  C   UNL     1      28.515  40.907  41.761  1.00  0.00     0.004 C 
HETATM   24  C   UNL     1      27.483  41.973  42.122  1.00  0.00     0.027 C 
HETATM   25  C   UNL     1      26.994  41.874  43.539  1.00  0.00    -0.024 C 
ENDBRANCH  19  20
ENDBRANCH  18  19
ENDBRANCH  15  18
ENDBRANCH  11  14
BRANCH  10  26
HETATM   26  N   UNL     1      29.126  40.098  52.357  1.00  0.00    -0.383 N 
HETATM   27  H   UNL     1      28.832  39.166  52.069  1.00  0.00     0.157 HD
HETATM   28  H   UNL     1      29.478  40.114  53.320  1.00  0.00     0.157 HD
ENDBRANCH  10  26
BRANCH   9  29
HETATM   29  N   UNL     1      28.660  42.479  54.033  1.00  0.00    -0.176 NA
HETATM   30  C   UNL     1      29.582  43.383  54.093  1.00  0.00     0.150 C 
BRANCH  30  31
HETATM   31  C   UNL     1      30.173  43.758  55.394  1.00  0.00    -0.014 A 
HETATM   32  C   UNL     1      29.814  44.966  56.006  1.00  0.00     0.049 A 
HETATM   33  C   UNL     1      30.393  45.308  57.222  1.00  0.00     0.066 A 
HETATM   34  C   UNL     1      31.313  44.465  57.835  1.00  0.00     0.036 A 
HETATM   35  C   UNL     1      31.667  43.260  57.223  1.00  0.00     0.004 A 
HETATM   36  C   UNL     1      31.100  42.905  55.997  1.00  0.00     0.013 A 
BRANCH  33  37
HETATM   37  O   UNL     1      30.081  46.476  57.851  1.00  0.00    -0.361 OA
HETATM   38  H   UNL     1      29.185  46.744  57.583  1.00  0.00     0.217 HD
ENDBRANCH  33  37
ENDBRANCH  30  31
ENDBRANCH   9  29
TORSDOF 8
ENDMDL
MODEL 7
REMARK VINA RESULT:      -9.6      3.249      7.242
REMARK  8 active torsions:
REMARK  status: ('A' for Active; 'I' for Inactive)
REMARK    1  A    between atoms: N_9  and  N_10 
REMARK    2  A    between atoms: C_11  and  C_12 
REMARK    3  A    between atoms: C_14  and  O_15 
REMARK    4  A    between atoms: C_19  and  N_20 
REMARK    5  A    between atoms: C_21  and  C_22 
REMARK       I    between atoms: C_22  and  N_23 
REMARK    6  A    between atoms: N_23  and  C_24 
REMARK    7  A    between atoms: C_24  and  C_25 
REMARK    8  A    between atoms: C_25  and  C_26 
ROOT
HETATM    1  C   UNL     1      24.468  46.542  49.483  1.00  0.00     0.002 A 
HETATM    2  C   UNL     1      24.978  45.274  49.198  1.00  0.00     0.034 A 
HETATM    3  C   UNL     1      25.697  44.549  50.141  1.00  0.00     0.086 A 
HETATM    4  C   UNL     1      25.913  45.125  51.422  1.00  0.00     0.088 A 
HETATM    5  N   UNL     1      26.586  44.499  52.396  1.00  0.00    -0.225 NA
HETATM    6  C   UNL     1      27.014  43.266  52.037  1.00  0.00     0.183 A 
HETATM    7  C   UNL     1      26.811  42.675  50.799  1.00  0.00     0.125 A 
HETATM    8  N   UNL     1      26.152  43.328  49.802  1.00  0.00    -0.242 NA
HETATM    9  N   UNL     1      27.728  42.379  52.818  1.00  0.00    -0.197 N 
HETATM   10  C   UNL     1      27.945  41.216  52.080  1.00  0.00     0.143 A 
HETATM   11  C   UNL     1      27.424  41.395  50.803  1.00  0.00     0.110 A 
HETATM   12  C   UNL     1      25.404  46.389  51.691  1.00  0.00     0.034 A 
HETATM   13  C   UNL     1      24.683  47.103  50.734  1.00  0.00     0.002 A 
ENDROOT
BRANCH  11  14
HETATM   14  C   UNL     1      27.600  40.466  49.697  1.00  0.00     0.257 C 
HETATM   15  N   UNL     1      27.671  41.056  48.453  1.00  0.00    -0.356 N 
HETATM   16  H   UNL     1      27.560  42.067  48.398  1.00  0.00     0.162 HD
HETATM   17  O   UNL     1      27.783  39.262  49.866  1.00  0.00    -0.267 OA
BRANCH  15  18
HETATM   18  C   UNL     1      28.290  40.359  47.345  1.00  0.00     0.127 C 
BRANCH  18  19
HETATM   19  C   UNL     1      28.073  41.050  45.991  1.00  0.00     0.053 C 
BRANCH  19  20
HETATM   20  C   UNL     1      28.552  40.347  44.726  1.00  0.00    -0.082 C 
HETATM   21  C   UNL     1      28.339  38.845  44.739  1.00  0.00     0.034 C 
HETATM   22  C   UNL     1      29.095  38.101  43.634  1.00  0.00     0.005 C 
HETATM   23  C   UNL     1      28.959  38.822  42.300  1.00  0.00     0.004 C 
HETATM   24  C   UNL     1      29.511  40.242  42.397  1.00  0.00     0.027 C 
HETATM   25  C   UNL     1      29.119  40.950  43.663  1.00  0.00    -0.024 C 
ENDBRANCH  19  20
ENDBRANCH  18  19
ENDBRANCH  15  18
ENDBRANCH  11  14
BRANCH  10  26
HETATM   26  N   UNL     1      28.649  40.160  52.580  1.00  0.00    -0.383 N 
HETATM   27  H   UNL     1      28.893  39.389  51.961  1.00  0.00     0.157 HD
HETATM   28  H   UNL     1      28.398  39.838  53.522  1.00  0.00     0.157 HD
ENDBRANCH  10  26
BRANCH   9  29
HETATM   29  N   UNL     1      28.272  42.699  54.034  1.00  0.00    -0.176 NA
HETATM   30  C   UNL     1      29.250  43.542  53.989  1.00  0.00     0.150 C 
BRANCH  30  31
HETATM   31  C   UNL     1      29.879  44.019  55.238  1.00  0.00    -0.014 A 
HETATM   32  C   UNL     1      30.886  43.262  55.850  1.00  0.00     0.049 A 
HETATM   33  C   UNL     1      31.455  43.720  57.033  1.00  0.00     0.066 A 
HETATM   34  C   UNL     1      31.041  44.917  57.605  1.00  0.00     0.036 A 
HETATM   35  C   UNL     1      30.038  45.672  56.989  1.00  0.00     0.004 A 
HETATM   36  C   UNL     1      29.451  45.222  55.805  1.00  0.00     0.013 A 
BRANCH  33  37
HETATM   37  O   UNL     1      32.431  43.013  57.669  1.00  0.00    -0.361 OA
HETATM   38  H   UNL     1      32.348  42.076  57.420  1.00  0.00     0.217 HD
ENDBRANCH  33  37
ENDBRANCH  30  31
ENDBRANCH   9  29
TORSDOF 8
ENDMDL
MODEL 8
REMARK VINA RESULT:      -9.6      3.158      5.505
REMARK  8 active torsions:
REMARK  status: ('A' for Active; 'I' for Inactive)
REMARK    1  A    between atoms: N_9  and  N_10 
REMARK    2  A    between atoms: C_11  and  C_12 
REMARK    3  A    between atoms: C_14  and  O_15 
REMARK    4  A    between atoms: C_19  and  N_20 
REMARK    5  A    between atoms: C_21  and  C_22 
REMARK       I    between atoms: C_22  and  N_23 
REMARK    6  A    between atoms: N_23  and  C_24 
REMARK    7  A    between atoms: C_24  and  C_25 
REMARK    8  A    between atoms: C_25  and  C_26 
ROOT
HETATM    1  C   UNL     1      25.682  50.457  48.294  1.00  0.00     0.002 A 
HETATM    2  C   UNL     1      24.568  49.616  48.261  1.00  0.00     0.034 A 
HETATM    3  C   UNL     1      24.623  48.313  48.741  1.00  0.00     0.086 A 
HETATM    4  C   UNL     1      25.850  47.837  49.275  1.00  0.00     0.088 A 
HETATM    5  N   UNL     1      25.997  46.600  49.768  1.00  0.00    -0.225 NA
HETATM    6  C   UNL     1      24.858  45.871  49.720  1.00  0.00     0.183 A 
HETATM    7  C   UNL     1      23.645  46.312  49.214  1.00  0.00     0.125 A 
HETATM    8  N   UNL     1      23.508  47.560  48.686  1.00  0.00    -0.242 NA
HETATM    9  N   UNL     1      24.689  44.571  50.154  1.00  0.00    -0.197 N 
HETATM   10  C   UNL     1      23.359  44.205  49.948  1.00  0.00     0.143 A 
HETATM   11  C   UNL     1      22.701  45.257  49.321  1.00  0.00     0.110 A 
HETATM   12  C   UNL     1      26.952  48.682  49.298  1.00  0.00     0.034 A 
HETATM   13  C   UNL     1      26.880  49.987  48.814  1.00  0.00     0.002 A 
ENDROOT
BRANCH  11  14
HETATM   14  C   UNL     1      21.344  45.194  48.798  1.00  0.00     0.257 C 
HETATM   15  N   UNL     1      20.578  46.314  49.041  1.00  0.00    -0.356 N 
HETATM   16  H   UNL     1      20.994  47.067  49.587  1.00  0.00     0.162 HD
HETATM   17  O   UNL     1      20.946  44.264  48.099  1.00  0.00    -0.267 OA
BRANCH  15  18
HETATM   18  C   UNL     1      19.418  46.602  48.223  1.00  0.00     0.127 C 
BRANCH  18  19
HETATM   19  C   UNL     1      19.594  47.836  47.328  1.00  0.00     0.053 C 
BRANCH  19  20
HETATM   20  C   UNL     1      19.637  49.213  47.979  1.00  0.00    -0.082 C 
HETATM   21  C   UNL     1      20.865  50.027  47.618  1.00  0.00     0.034 C 
HETATM   22  C   UNL     1      21.077  51.259  48.504  1.00  0.00     0.005 C 
HETATM   23  C   UNL     1      19.770  52.010  48.714  1.00  0.00     0.004 C 
HETATM   24  C   UNL     1      18.731  51.107  49.375  1.00  0.00     0.027 C 
HETATM   25  C   UNL     1      18.701  49.716  48.808  1.00  0.00    -0.024 C 
ENDBRANCH  19  20
ENDBRANCH  18  19
ENDBRANCH  15  18
ENDBRANCH  11  14
BRANCH  10  26
HETATM   26  N   UNL     1      22.893  42.962  50.257  1.00  0.00    -0.383 N 
HETATM   27  H   UNL     1      23.544  42.261  50.609  1.00  0.00     0.157 HD
HETATM   28  H   UNL     1      22.192  42.557  49.626  1.00  0.00     0.157 HD
ENDBRANCH  10  26
BRANCH   9  29
HETATM   29  N   UNL     1      25.720  43.754  50.536  1.00  0.00    -0.176 NA
HETATM   30  C   UNL     1      26.068  43.858  51.776  1.00  0.00     0.150 C 
BRANCH  30  31
HETATM   31  C   UNL     1      27.123  42.985  52.330  1.00  0.00    -0.014 A 
HETATM   32  C   UNL     1      27.514  41.832  51.638  1.00  0.00     0.049 A 
HETATM   33  C   UNL     1      28.497  41.014  52.183  1.00  0.00     0.066 A 
HETATM   34  C   UNL     1      29.096  41.333  53.396  1.00  0.00     0.036 A 
HETATM   35  C   UNL     1      28.706  42.486  54.082  1.00  0.00     0.004 A 
HETATM   36  C   UNL     1      27.714  43.314  53.552  1.00  0.00     0.013 A 
BRANCH  33  37
HETATM   37  O   UNL     1      28.903  39.877  51.550  1.00  0.00    -0.361 OA
HETATM   38  H   UNL     1      29.666  39.511  52.031  1.00  0.00     0.217 HD
ENDBRANCH  33  37
ENDBRANCH  30  31
ENDBRANCH   9  29
TORSDOF 8
ENDMDL
MODEL 9
REMARK VINA RESULT:      -9.4      2.338      3.756
REMARK  8 active torsions:
REMARK  status: ('A' for Active; 'I' for Inactive)
REMARK    1  A    between atoms: N_9  and  N_10 
REMARK    2  A    between atoms: C_11  and  C_12 
REMARK    3  A    between atoms: C_14  and  O_15 
REMARK    4  A    between atoms: C_19  and  N_20 
REMARK    5  A    between atoms: C_21  and  C_22 
REMARK       I    between atoms: C_22  and  N_23 
REMARK    6  A    between atoms: N_23  and  C_24 
REMARK    7  A    between atoms: C_24  and  C_25 
REMARK    8  A    between atoms: C_25  and  C_26 
ROOT
HETATM    1  C   UNL     1      22.485  41.298  47.219  1.00  0.00     0.002 A 
HETATM    2  C   UNL     1      22.393  42.661  47.506  1.00  0.00     0.034 A 
HETATM    3  C   UNL     1      23.398  43.330  48.194  1.00  0.00     0.086 A 
HETATM    4  C   UNL     1      24.541  42.597  48.611  1.00  0.00     0.088 A 
HETATM    5  N   UNL     1      25.562  43.157  49.272  1.00  0.00    -0.225 NA
HETATM    6  C   UNL     1      25.398  44.485  49.477  1.00  0.00     0.183 A 
HETATM    7  C   UNL     1      24.298  45.228  49.074  1.00  0.00     0.125 A 
HETATM    8  N   UNL     1      23.248  44.648  48.429  1.00  0.00    -0.242 NA
HETATM    9  N   UNL     1      26.273  45.337  50.121  1.00  0.00    -0.197 N 
HETATM   10  C   UNL     1      25.736  46.624  50.094  1.00  0.00     0.143 A 
HETATM   11  C   UNL     1      24.486  46.572  49.488  1.00  0.00     0.110 A 
HETATM   12  C   UNL     1      24.618  41.241  48.323  1.00  0.00     0.034 A 
HETATM   13  C   UNL     1      23.601  40.584  47.630  1.00  0.00     0.002 A 
ENDROOT
BRANCH  11  14
HETATM   14  C   UNL     1      23.549  47.685  49.420  1.00  0.00     0.257 C 
HETATM   15  N   UNL     1      22.349  47.393  48.810  1.00  0.00    -0.356 N 
HETATM   16  H   UNL     1      22.223  46.457  48.427  1.00  0.00     0.162 HD
HETATM   17  O   UNL     1      23.766  48.766  49.963  1.00  0.00    -0.267 OA
BRANCH  15  18
HETATM   18  C   UNL     1      21.178  48.206  49.066  1.00  0.00     0.127 C 
BRANCH  18  19
HETATM   19  C   UNL     1      20.598  48.859  47.804  1.00  0.00     0.053 C 
BRANCH  19  20
HETATM   20  C   UNL     1      19.762  50.124  47.953  1.00  0.00    -0.082 C 
HETATM   21  C   UNL     1      19.903  50.799  49.305  1.00  0.00     0.034 C 
HETATM   22  C   UNL     1      18.842  51.870  49.578  1.00  0.00     0.005 C 
HETATM   23  C   UNL     1      18.643  52.762  48.361  1.00  0.00     0.004 C 
HETATM   24  C   UNL     1      18.202  51.936  47.154  1.00  0.00     0.027 C 
HETATM   25  C   UNL     1      18.955  50.644  47.008  1.00  0.00    -0.024 C 
ENDBRANCH  19  20
ENDBRANCH  18  19
ENDBRANCH  15  18
ENDBRANCH  11  14
BRANCH  10  26
HETATM   26  N   UNL     1      26.366  47.684  50.677  1.00  0.00    -0.383 N 
HETATM   27  H   UNL     1      27.381  47.753  50.616  1.00  0.00     0.157 HD
HETATM   28  H   UNL     1      26.010  47.994  51.588  1.00  0.00     0.157 HD
ENDBRANCH  10  26
BRANCH   9  29
HETATM   29  N   UNL     1      27.374  44.916  50.817  1.00  0.00    -0.176 NA
HETATM   30  C   UNL     1      27.153  44.602  52.051  1.00  0.00     0.150 C 
BRANCH  30  31
HETATM   31  C   UNL     1      28.246  44.071  52.891  1.00  0.00    -0.014 A 
HETATM   32  C   UNL     1      28.514  44.645  54.141  1.00  0.00     0.049 A 
HETATM   33  C   UNL     1      29.557  44.141  54.909  1.00  0.00     0.066 A 
HETATM   34  C   UNL     1      30.326  43.076  54.455  1.00  0.00     0.036 A 
HETATM   35  C   UNL     1      30.054  42.503  53.209  1.00  0.00     0.004 A 
HETATM   36  C   UNL     1      29.015  43.003  52.421  1.00  0.00     0.013 A 
BRANCH  33  37
HETATM   37  O   UNL     1      29.860  44.673  56.126  1.00  0.00    -0.361 OA
HETATM   38  H   UNL     1      29.044  45.023  56.524  1.00  0.00     0.217 HD
ENDBRANCH  33  37
ENDBRANCH  30  31
ENDBRANCH   9  29
TORSDOF 8
ENDMDL
MODEL 10
REMARK VINA RESULT:      -9.2      2.718      6.064
REMARK  8 active torsions:
REMARK  status: ('A' for Active; 'I' for Inactive)
REMARK    1  A    between atoms: N_9  and  N_10 
REMARK    2  A    between atoms: C_11  and  C_12 
REMARK    3  A    between atoms: C_14  and  O_15 
REMARK    4  A    between atoms: C_19  and  N_20 
REMARK    5  A    between atoms: C_21  and  C_22 
REMARK       I    between atoms: C_22  and  N_23 
REMARK    6  A    between atoms: N_23  and  C_24 
REMARK    7  A    between atoms: C_24  and  C_25 
REMARK    8  A    between atoms: C_25  and  C_26 
ROOT
HETATM    1  C   UNL     1      24.469  46.803  49.571  1.00  0.00     0.002 A 
HETATM    2  C   UNL     1      25.040  45.588  49.189  1.00  0.00     0.034 A 
HETATM    3  C   UNL     1      25.778  44.817  50.080  1.00  0.00     0.086 A 
HETATM    4  C   UNL     1      25.950  45.290  51.408  1.00  0.00     0.088 A 
HETATM    5  N   UNL     1      26.638  44.614  52.337  1.00  0.00    -0.225 NA
HETATM    6  C   UNL     1      27.127  43.436  51.883  1.00  0.00     0.183 A 
HETATM    7  C   UNL     1      26.968  42.946  50.596  1.00  0.00     0.125 A 
HETATM    8  N   UNL     1      26.294  43.651  49.646  1.00  0.00    -0.242 NA
HETATM    9  N   UNL     1      27.870  42.519  52.599  1.00  0.00    -0.197 N 
HETATM   10  C   UNL     1      28.151  41.434  51.769  1.00  0.00     0.143 A 
HETATM   11  C   UNL     1      27.639  41.699  50.503  1.00  0.00     0.110 A 
HETATM   12  C   UNL     1      25.380  46.503  51.774  1.00  0.00     0.034 A 
HETATM   13  C   UNL     1      24.641  47.263  50.869  1.00  0.00     0.002 A 
ENDROOT
BRANCH  11  14
HETATM   14  C   UNL     1      27.873  40.876  49.325  1.00  0.00     0.257 C 
HETATM   15  N   UNL     1      27.351  41.383  48.154  1.00  0.00    -0.356 N 
HETATM   16  H   UNL     1      26.823  42.252  48.204  1.00  0.00     0.162 HD
HETATM   17  O   UNL     1      28.575  39.867  49.350  1.00  0.00    -0.267 OA
BRANCH  15  18
HETATM   18  C   UNL     1      27.873  40.956  46.872  1.00  0.00     0.127 C 
BRANCH  18  19
HETATM   19  C   UNL     1      26.922  40.031  46.102  1.00  0.00     0.053 C 
BRANCH  19  20
HETATM   20  C   UNL     1      25.425  40.314  46.153  1.00  0.00    -0.082 C 
HETATM   21  C   UNL     1      24.634  39.299  46.958  1.00  0.00     0.034 C 
HETATM   22  C   UNL     1      23.119  39.387  46.753  1.00  0.00     0.005 C 
HETATM   23  C   UNL     1      22.649  40.835  46.783  1.00  0.00     0.004 C 
HETATM   24  C   UNL     1      23.337  41.648  45.689  1.00  0.00     0.027 C 
HETATM   25  C   UNL     1      24.804  41.351  45.559  1.00  0.00    -0.024 C 
ENDBRANCH  19  20
ENDBRANCH  18  19
ENDBRANCH  15  18
ENDBRANCH  11  14
BRANCH  10  26
HETATM   26  N   UNL     1      28.895  40.372  52.190  1.00  0.00    -0.383 N 
HETATM   27  H   UNL     1      28.848  40.091  53.168  1.00  0.00     0.157 HD
HETATM   28  H   UNL     1      29.842  40.286  51.807  1.00  0.00     0.157 HD
ENDBRANCH  10  26
BRANCH   9  29
HETATM   29  N   UNL     1      28.382  42.757  53.847  1.00  0.00    -0.176 NA
HETATM   30  C   UNL     1      29.305  43.661  53.894  1.00  0.00     0.150 C 
BRANCH  30  31
HETATM   31  C   UNL     1      29.891  44.058  55.191  1.00  0.00    -0.014 A 
HETATM   32  C   UNL     1      30.881  43.265  55.785  1.00  0.00     0.049 A 
HETATM   33  C   UNL     1      31.409  43.647  57.013  1.00  0.00     0.066 A 
HETATM   34  C   UNL     1      30.972  44.804  57.647  1.00  0.00     0.036 A 
HETATM   35  C   UNL     1      29.986  45.595  57.049  1.00  0.00     0.004 A 
HETATM   36  C   UNL     1      29.440  45.220  55.820  1.00  0.00     0.013 A 
BRANCH  33  37
HETATM   37  O   UNL     1      32.367  42.903  57.634  1.00  0.00    -0.361 OA
HETATM   38  H   UNL     1      31.936  42.325  58.287  1.00  0.00     0.217 HD
ENDBRANCH  33  37
ENDBRANCH  30  31
ENDBRANCH   9  29
TORSDOF 8
ENDMDL
