MODEL 1
REMARK VINA RESULT:      -9.0      0.000      0.000
REMARK  5 active torsions:
REMARK  status: ('A' for Active; 'I' for Inactive)
REMARK    1  A    between atoms: C_6  and  N_7 
REMARK       I    between atoms: N_7  and  C_8 
REMARK    2  A    between atoms: C_8  and  C_9 
REMARK    3  A    between atoms: C_9  and  O_10 
REMARK    4  A    between atoms: O_10  and  C_11 
REMARK    5  A    between atoms: C_18  and  C_19 
ROOT
HETATM    1  C   UNL     1      26.543  43.683  49.600  1.00  0.00     0.073 C 
HETATM    2  C   UNL     1      26.537  44.355  50.923  1.00  0.00     0.065 A 
HETATM    3  N   UNL     1      27.100  43.754  51.980  1.00  0.00    -0.177 NA
HETATM    4  N   UNL     1      26.958  44.646  52.976  1.00  0.00    -0.262 N 
HETATM    5  H   UNL     1      27.307  44.396  53.898  1.00  0.00     0.191 HD
HETATM    6  C   UNL     1      26.314  45.796  52.602  1.00  0.00     0.137 A 
HETATM    7  C   UNL     1      26.019  45.634  51.262  1.00  0.00     0.046 A 
ENDROOT
BRANCH   6   8
HETATM    8  N   UNL     1      25.989  46.840  53.444  1.00  0.00    -0.309 N 
HETATM    9  C   UNL     1      26.550  47.158  54.652  1.00  0.00     0.247 C 
HETATM   10  O   UNL     1      25.985  47.981  55.377  1.00  0.00    -0.271 OA
HETATM   11  H   UNL     1      25.271  47.489  53.140  1.00  0.00     0.170 HD
BRANCH   9  12
HETATM   12  C   UNL     1      27.943  46.637  54.987  1.00  0.00     0.278 C 
BRANCH  12  13
HETATM   13  O   UNL     1      28.256  46.726  56.373  1.00  0.00    -0.342 OA
BRANCH  13  14
HETATM   14  C   UNL     1      29.281  45.868  56.684  1.00  0.00     0.069 A 
HETATM   15  C   UNL     1      29.712  44.995  55.689  1.00  0.00     0.037 A 
HETATM   16  C   UNL     1      30.726  44.077  55.967  1.00  0.00     0.003 A 
HETATM   17  C   UNL     1      31.315  44.047  57.232  1.00  0.00     0.000 A 
HETATM   18  C   UNL     1      30.907  44.949  58.214  1.00  0.00     0.003 A 
HETATM   19  C   UNL     1      29.897  45.870  57.938  1.00  0.00     0.037 A 
ENDBRANCH  13  14
ENDBRANCH  12  13
ENDBRANCH   9  12
ENDBRANCH   6   8
BRANCH   7  20
HETATM   20  C   UNL     1      25.526  46.703  50.418  1.00  0.00    -0.020 A 
HETATM   21  C   UNL     1      26.436  47.653  49.931  1.00  0.00     0.014 A 
HETATM   22  C   UNL     1      25.984  48.754  49.202  1.00  0.00     0.020 A 
HETATM   23  C   UNL     1      24.621  48.901  48.956  1.00  0.00     0.011 A 
HETATM   24 BR   UNL     1      24.003  50.411  48.002  1.00  0.00    -0.051 Br
HETATM   25  C   UNL     1      23.708  47.951  49.418  1.00  0.00     0.020 A 
HETATM   26  C   UNL     1      24.162  46.848  50.148  1.00  0.00     0.014 A 
ENDBRANCH   7  20
TORSDOF 5
ENDMDL
MODEL 2
REMARK VINA RESULT:      -8.4      2.735      3.981
REMARK  5 active torsions:
REMARK  status: ('A' for Active; 'I' for Inactive)
REMARK    1  A    between atoms: C_6  and  N_7 
REMARK       I    between atoms: N_7  and  C_8 
REMARK    2  A    between atoms: C_8  and  C_9 
REMARK    3  A    between atoms: C_9  and  O_10 
REMARK    4  A    between atoms: O_10  and  C_11 
REMARK    5  A    between atoms: C_18  and  C_19 
ROOT
HETATM    1  C   UNL     1      25.362  47.548  50.247  1.00  0.00     0.073 C 
HETATM    2  C   UNL     1      25.585  46.829  51.526  1.00  0.00     0.065 A 
HETATM    3  N   UNL     1      25.579  47.504  52.683  1.00  0.00    -0.177 NA
HETATM    4  N   UNL     1      25.758  46.554  53.616  1.00  0.00    -0.262 N 
HETATM    5  H   UNL     1      25.803  46.839  54.591  1.00  0.00     0.191 HD
HETATM    6  C   UNL     1      25.892  45.290  53.103  1.00  0.00     0.137 A 
HETATM    7  C   UNL     1      25.789  45.438  51.732  1.00  0.00     0.046 A 
ENDROOT
BRANCH   6   8
HETATM    8  N   UNL     1      26.146  44.151  53.838  1.00  0.00    -0.309 N 
HETATM    9  C   UNL     1      27.350  43.531  54.048  1.00  0.00     0.247 C 
HETATM   10  O   UNL     1      27.363  42.398  54.534  1.00  0.00    -0.271 OA
HETATM   11  H   UNL     1      25.369  43.715  54.322  1.00  0.00     0.170 HD
BRANCH   9  12
HETATM   12  C   UNL     1      28.639  44.323  53.856  1.00  0.00     0.278 C 
BRANCH  12  13
HETATM   13  O   UNL     1      29.801  43.606  54.260  1.00  0.00    -0.342 OA
BRANCH  13  14
HETATM   14  C   UNL     1      30.213  44.032  55.499  1.00  0.00     0.069 A 
HETATM   15  C   UNL     1      29.692  45.234  55.972  1.00  0.00     0.037 A 
HETATM   16  C   UNL     1      30.107  45.728  57.209  1.00  0.00     0.003 A 
HETATM   17  C   UNL     1      31.028  45.012  57.974  1.00  0.00     0.000 A 
HETATM   18  C   UNL     1      31.518  43.790  57.515  1.00  0.00     0.003 A 
HETATM   19  C   UNL     1      31.102  43.291  56.281  1.00  0.00     0.037 A 
ENDBRANCH  13  14
ENDBRANCH  12  13
ENDBRANCH   9  12
ENDBRANCH   6   8
BRANCH   7  20
HETATM   20  C   UNL     1      25.662  44.322  50.817  1.00  0.00    -0.020 A 
HETATM   21  C   UNL     1      26.826  43.763  50.268  1.00  0.00     0.014 A 
HETATM   22  C   UNL     1      26.740  42.757  49.305  1.00  0.00     0.020 A 
HETATM   23  C   UNL     1      25.487  42.306  48.895  1.00  0.00     0.011 A 
HETATM   24 BR   UNL     1      25.367  40.970  47.562  1.00  0.00    -0.051 Br
HETATM   25  C   UNL     1      24.323  42.841  49.448  1.00  0.00     0.020 A 
HETATM   26  C   UNL     1      24.411  43.849  50.414  1.00  0.00     0.014 A 
ENDBRANCH   7  20
TORSDOF 5
ENDMDL
MODEL 3
REMARK VINA RESULT:      -8.3     13.189     14.593
REMARK  5 active torsions:
REMARK  status: ('A' for Active; 'I' for Inactive)
REMARK    1  A    between atoms: C_6  and  N_7 
REMARK       I    between atoms: N_7  and  C_8 
REMARK    2  A    between atoms: C_8  and  C_9 
REMARK    3  A    between atoms: C_9  and  O_10 
REMARK    4  A    between atoms: O_10  and  C_11 
REMARK    5  A    between atoms: C_18  and  C_19 
ROOT
HETATM    1  C   UNL     1      25.538  47.528  40.493  1.00  0.00     0.073 C 
HETATM    2  C   UNL     1      25.893  48.710  39.668  1.00  0.00     0.065 A 
HETATM    3  N   UNL     1      24.926  49.487  39.163  1.00  0.00    -0.177 NA
HETATM    4  N   UNL     1      25.593  50.466  38.527  1.00  0.00    -0.262 N 
HETATM    5  H   UNL     1      25.054  51.181  38.046  1.00  0.00     0.191 HD
HETATM    6  C   UNL     1      26.956  50.341  38.593  1.00  0.00     0.137 A 
HETATM    7  C   UNL     1      27.185  49.194  39.330  1.00  0.00     0.046 A 
ENDROOT
BRANCH   6   8
HETATM    8  N   UNL     1      27.866  51.174  37.975  1.00  0.00    -0.309 N 
HETATM    9  C   UNL     1      28.437  52.317  38.469  1.00  0.00     0.247 C 
HETATM   10  O   UNL     1      29.049  53.062  37.699  1.00  0.00    -0.271 OA
HETATM   11  H   UNL     1      28.197  50.914  37.053  1.00  0.00     0.170 HD
BRANCH   9  12
HETATM   12  C   UNL     1      28.467  52.544  39.976  1.00  0.00     0.278 C 
BRANCH  12  13
HETATM   13  O   UNL     1      29.458  53.482  40.381  1.00  0.00    -0.342 OA
BRANCH  13  14
HETATM   14  C   UNL     1      30.516  52.832  40.968  1.00  0.00     0.069 A 
HETATM   15  C   UNL     1      30.466  52.639  42.346  1.00  0.00     0.037 A 
HETATM   16  C   UNL     1      31.533  52.016  42.995  1.00  0.00     0.003 A 
HETATM   17  C   UNL     1      32.636  51.575  42.263  1.00  0.00     0.000 A 
HETATM   18  C   UNL     1      32.664  51.735  40.878  1.00  0.00     0.003 A 
HETATM   19  C   UNL     1      31.598  52.353  40.225  1.00  0.00     0.037 A 
ENDBRANCH  13  14
ENDBRANCH  12  13
ENDBRANCH   9  12
ENDBRANCH   6   8
BRANCH   7  20
HETATM   20  C   UNL     1      28.493  48.809  39.819  1.00  0.00    -0.020 A 
HETATM   21  C   UNL     1      28.832  49.106  41.148  1.00  0.00     0.014 A 
HETATM   22  C   UNL     1      30.117  48.843  41.624  1.00  0.00     0.020 A 
HETATM   23  C   UNL     1      31.062  48.277  40.771  1.00  0.00     0.011 A 
HETATM   24 BR   UNL     1      32.815  47.957  41.403  1.00  0.00    -0.051 Br
HETATM   25  C   UNL     1      30.730  47.959  39.453  1.00  0.00     0.020 A 
HETATM   26  C   UNL     1      29.442  48.222  38.978  1.00  0.00     0.014 A 
ENDBRANCH   7  20
TORSDOF 5
ENDMDL
MODEL 4
REMARK VINA RESULT:      -8.2      3.397      7.444
REMARK  5 active torsions:
REMARK  status: ('A' for Active; 'I' for Inactive)
REMARK    1  A    between atoms: C_6  and  N_7 
REMARK       I    between atoms: N_7  and  C_8 
REMARK    2  A    between atoms: C_8  and  C_9 
REMARK    3  A    between atoms: C_9  and  O_10 
REMARK    4  A    between atoms: O_10  and  C_11 
REMARK    5  A    between atoms: C_18  and  C_19 
ROOT
HETATM    1  C   UNL     1      27.600  41.140  51.127  1.00  0.00     0.073 C 
HETATM    2  C   UNL     1      26.687  42.259  51.469  1.00  0.00     0.065 A 
HETATM    3  N   UNL     1      25.459  42.306  50.936  1.00  0.00    -0.177 NA
HETATM    4  N   UNL     1      24.905  43.399  51.488  1.00  0.00    -0.262 N 
HETATM    5  H   UNL     1      23.958  43.648  51.215  1.00  0.00     0.191 HD
HETATM    6  C   UNL     1      25.736  44.066  52.350  1.00  0.00     0.137 A 
HETATM    7  C   UNL     1      26.916  43.346  52.355  1.00  0.00     0.046 A 
ENDROOT
BRANCH   6   8
HETATM    8  N   UNL     1      25.435  45.246  52.999  1.00  0.00    -0.309 N 
HETATM    9  C   UNL     1      25.739  46.524  52.612  1.00  0.00     0.247 C 
HETATM   10  O   UNL     1      25.600  47.444  53.423  1.00  0.00    -0.271 OA
HETATM   11  H   UNL     1      24.892  45.193  53.853  1.00  0.00     0.170 HD
BRANCH   9  12
HETATM   12  C   UNL     1      26.057  46.805  51.148  1.00  0.00     0.278 C 
BRANCH  12  13
HETATM   13  O   UNL     1      24.895  47.030  50.356  1.00  0.00    -0.342 OA
BRANCH  13  14
HETATM   14  C   UNL     1      25.086  48.112  49.532  1.00  0.00     0.069 A 
HETATM   15  C   UNL     1      23.953  48.720  48.998  1.00  0.00     0.037 A 
HETATM   16  C   UNL     1      24.095  49.800  48.126  1.00  0.00     0.003 A 
HETATM   17  C   UNL     1      25.366  50.276  47.803  1.00  0.00     0.000 A 
HETATM   18  C   UNL     1      26.497  49.689  48.370  1.00  0.00     0.003 A 
HETATM   19  C   UNL     1      26.358  48.613  49.246  1.00  0.00     0.037 A 
ENDBRANCH  13  14
ENDBRANCH  12  13
ENDBRANCH   9  12
ENDBRANCH   6   8
BRANCH   7  20
HETATM   20  C   UNL     1      27.992  43.584  53.295  1.00  0.00    -0.020 A 
HETATM   21  C   UNL     1      29.222  42.942  53.089  1.00  0.00     0.014 A 
HETATM   22  C   UNL     1      30.248  43.065  54.027  1.00  0.00     0.020 A 
HETATM   23  C   UNL     1      30.042  43.835  55.171  1.00  0.00     0.011 A 
HETATM   24 BR   UNL     1      31.416  43.970  56.463  1.00  0.00    -0.051 Br
HETATM   25  C   UNL     1      28.829  44.493  55.376  1.00  0.00     0.020 A 
HETATM   26  C   UNL     1      27.803  44.370  54.435  1.00  0.00     0.014 A 
ENDBRANCH   7  20
TORSDOF 5
ENDMDL
MODEL 5
REMARK VINA RESULT:      -8.1     12.628     14.264
REMARK  5 active torsions:
REMARK  status: ('A' for Active; 'I' for Inactive)
REMARK    1  A    between atoms: C_6  and  N_7 
REMARK       I    between atoms: N_7  and  C_8 
REMARK    2  A    between atoms: C_8  and  C_9 
REMARK    3  A    between atoms: C_9  and  O_10 
REMARK    4  A    between atoms: O_10  and  C_11 
REMARK    5  A    between atoms: C_18  and  C_19 
ROOT
HETATM    1  C   UNL     1      27.091  50.086  37.878  1.00  0.00     0.073 C 
HETATM    2  C   UNL     1      28.508  49.836  38.239  1.00  0.00     0.065 A 
HETATM    3  N   UNL     1      29.430  50.783  38.022  1.00  0.00    -0.177 NA
HETATM    4  N   UNL     1      30.566  50.249  38.502  1.00  0.00    -0.262 N 
HETATM    5  H   UNL     1      31.421  50.795  38.430  1.00  0.00     0.191 HD
HETATM    6  C   UNL     1      30.414  48.986  39.010  1.00  0.00     0.137 A 
HETATM    7  C   UNL     1      29.075  48.684  38.847  1.00  0.00     0.046 A 
ENDROOT
BRANCH   6   8
HETATM    8  N   UNL     1      31.429  48.195  39.506  1.00  0.00    -0.309 N 
HETATM    9  C   UNL     1      31.905  48.135  40.789  1.00  0.00     0.247 C 
HETATM   10  O   UNL     1      32.967  47.546  41.007  1.00  0.00    -0.271 OA
HETATM   11  H   UNL     1      31.876  47.543  38.870  1.00  0.00     0.170 HD
BRANCH   9  12
HETATM   12  C   UNL     1      31.024  48.625  41.934  1.00  0.00     0.278 C 
BRANCH  12  13
HETATM   13  O   UNL     1      31.472  49.854  42.496  1.00  0.00    -0.342 OA
BRANCH  13  14
HETATM   14  C   UNL     1      30.785  50.906  41.943  1.00  0.00     0.069 A 
HETATM   15  C   UNL     1      31.532  51.968  41.439  1.00  0.00     0.037 A 
HETATM   16  C   UNL     1      30.880  53.077  40.901  1.00  0.00     0.003 A 
HETATM   17  C   UNL     1      29.486  53.114  40.852  1.00  0.00     0.000 A 
HETATM   18  C   UNL     1      28.742  52.032  41.322  1.00  0.00     0.003 A 
HETATM   19  C   UNL     1      29.390  50.920  41.857  1.00  0.00     0.037 A 
ENDBRANCH  13  14
ENDBRANCH  12  13
ENDBRANCH   9  12
ENDBRANCH   6   8
BRANCH   7  20
HETATM   20  C   UNL     1      28.440  47.526  39.443  1.00  0.00    -0.020 A 
HETATM   21  C   UNL     1      27.690  47.696  40.617  1.00  0.00     0.014 A 
HETATM   22  C   UNL     1      27.151  46.590  41.276  1.00  0.00     0.020 A 
HETATM   23  C   UNL     1      27.358  45.314  40.756  1.00  0.00     0.011 A 
HETATM   24 BR   UNL     1      26.662  43.812  41.669  1.00  0.00    -0.051 Br
HETATM   25  C   UNL     1      28.086  45.135  39.579  1.00  0.00     0.020 A 
HETATM   26  C   UNL     1      28.625  46.244  38.919  1.00  0.00     0.014 A 
ENDBRANCH   7  20
TORSDOF 5
ENDMDL
MODEL 6
REMARK VINA RESULT:      -8.1      2.801      4.364
REMARK  5 active torsions:
REMARK  status: ('A' for Active; 'I' for Inactive)
REMARK    1  A    between atoms: C_6  and  N_7 
REMARK       I    between atoms: N_7  and  C_8 
REMARK    2  A    between atoms: C_8  and  C_9 
REMARK    3  A    between atoms: C_9  and  O_10 
REMARK    4  A    between atoms: O_10  and  C_11 
REMARK    5  A    between atoms: C_18  and  C_19 
ROOT
HETATM    1  C   UNL     1      26.141  50.104  48.045  1.00  0.00     0.073 C 
HETATM    2  C   UNL     1      25.958  48.966  48.980  1.00  0.00     0.065 A 
HETATM    3  N   UNL     1      27.008  48.478  49.653  1.00  0.00    -0.177 NA
HETATM    4  N   UNL     1      26.482  47.511  50.423  1.00  0.00    -0.262 N 
HETATM    5  H   UNL     1      27.108  46.980  51.024  1.00  0.00     0.191 HD
HETATM    6  C   UNL     1      25.131  47.348  50.263  1.00  0.00     0.137 A 
HETATM    7  C   UNL     1      24.757  48.285  49.318  1.00  0.00     0.046 A 
ENDROOT
BRANCH   6   8
HETATM    8  N   UNL     1      24.361  46.388  50.887  1.00  0.00    -0.309 N 
HETATM    9  C   UNL     1      24.735  45.130  51.281  1.00  0.00     0.247 C 
HETATM   10  O   UNL     1      23.863  44.322  51.611  1.00  0.00    -0.271 OA
HETATM   11  H   UNL     1      23.406  46.627  51.126  1.00  0.00     0.170 HD
BRANCH   9  12
HETATM   12  C   UNL     1      26.214  44.821  51.484  1.00  0.00     0.278 C 
BRANCH  12  13
HETATM   13  O   UNL     1      26.713  45.273  52.739  1.00  0.00    -0.342 OA
BRANCH  13  14
HETATM   14  C   UNL     1      27.801  44.524  53.113  1.00  0.00     0.069 A 
HETATM   15  C   UNL     1      28.266  44.674  54.417  1.00  0.00     0.037 A 
HETATM   16  C   UNL     1      29.392  43.963  54.835  1.00  0.00     0.003 A 
HETATM   17  C   UNL     1      30.037  43.093  53.955  1.00  0.00     0.000 A 
HETATM   18  C   UNL     1      29.545  42.917  52.662  1.00  0.00     0.003 A 
HETATM   19  C   UNL     1      28.418  43.622  52.243  1.00  0.00     0.037 A 
ENDBRANCH  13  14
ENDBRANCH  12  13
ENDBRANCH   9  12
ENDBRANCH   6   8
BRANCH   7  20
HETATM   20  C   UNL     1      23.378  48.599  49.008  1.00  0.00    -0.020 A 
HETATM   21  C   UNL     1      22.623  47.674  48.272  1.00  0.00     0.014 A 
HETATM   22  C   UNL     1      21.325  47.985  47.866  1.00  0.00     0.020 A 
HETATM   23  C   UNL     1      20.780  49.223  48.202  1.00  0.00     0.011 A 
HETATM   24 BR   UNL     1      19.036  49.662  47.619  1.00  0.00    -0.051 Br
HETATM   25  C   UNL     1      21.515  50.144  48.950  1.00  0.00     0.020 A 
HETATM   26  C   UNL     1      22.815  49.830  49.357  1.00  0.00     0.014 A 
ENDBRANCH   7  20
TORSDOF 5
ENDMDL
MODEL 7
REMARK VINA RESULT:      -8.0     12.497     14.825
REMARK  5 active torsions:
REMARK  status: ('A' for Active; 'I' for Inactive)
REMARK    1  A    between atoms: C_6  and  N_7 
REMARK       I    between atoms: N_7  and  C_8 
REMARK    2  A    between atoms: C_8  and  C_9 
REMARK    3  A    between atoms: C_9  and  O_10 
REMARK    4  A    between atoms: O_10  and  C_11 
REMARK    5  A    between atoms: C_18  and  C_19 
ROOT
HETATM    1  C   UNL     1      35.819  51.290  39.136  1.00  0.00     0.073 C 
HETATM    2  C   UNL     1      35.427  51.522  40.548  1.00  0.00     0.065 A 
HETATM    3  N   UNL     1      36.099  52.410  41.291  1.00  0.00    -0.177 NA
HETATM    4  N   UNL     1      35.458  52.398  42.473  1.00  0.00    -0.262 N 
HETATM    5  H   UNL     1      35.809  52.998  43.216  1.00  0.00     0.191 HD
HETATM    6  C   UNL     1      34.403  51.526  42.523  1.00  0.00     0.137 A 
HETATM    7  C   UNL     1      34.360  50.930  41.276  1.00  0.00     0.046 A 
ENDROOT
BRANCH   6   8
HETATM    8  N   UNL     1      33.622  51.278  43.633  1.00  0.00    -0.309 N 
HETATM    9  C   UNL     1      32.418  51.842  43.962  1.00  0.00     0.247 C 
HETATM   10  O   UNL     1      31.971  51.679  45.100  1.00  0.00    -0.271 OA
HETATM   11  H   UNL     1      33.938  50.570  44.287  1.00  0.00     0.170 HD
BRANCH   9  12
HETATM   12  C   UNL     1      31.575  52.490  42.869  1.00  0.00     0.278 C 
BRANCH  12  13
HETATM   13  O   UNL     1      30.182  52.234  43.011  1.00  0.00    -0.342 OA
BRANCH  13  14
HETATM   14  C   UNL     1      29.583  52.174  41.777  1.00  0.00     0.069 A 
HETATM   15  C   UNL     1      29.949  53.134  40.837  1.00  0.00     0.037 A 
HETATM   16  C   UNL     1      29.341  53.138  39.581  1.00  0.00     0.003 A 
HETATM   17  C   UNL     1      28.383  52.174  39.264  1.00  0.00     0.000 A 
HETATM   18  C   UNL     1      28.048  51.190  40.195  1.00  0.00     0.003 A 
HETATM   19  C   UNL     1      28.656  51.181  41.449  1.00  0.00     0.037 A 
ENDBRANCH  13  14
ENDBRANCH  12  13
ENDBRANCH   9  12
ENDBRANCH   6   8
BRANCH   7  20
HETATM   20  C   UNL     1      33.264  50.096  40.828  1.00  0.00    -0.020 A 
HETATM   21  C   UNL     1      33.171  48.783  41.316  1.00  0.00     0.014 A 
HETATM   22  C   UNL     1      32.190  47.918  40.830  1.00  0.00     0.020 A 
HETATM   23  C   UNL     1      31.298  48.368  39.858  1.00  0.00     0.011 A 
HETATM   24 BR   UNL     1      29.994  47.185  39.170  1.00  0.00    -0.051 Br
HETATM   25  C   UNL     1      31.369  49.678  39.380  1.00  0.00     0.020 A 
HETATM   26  C   UNL     1      32.351  50.545  39.869  1.00  0.00     0.014 A 
ENDBRANCH   7  20
TORSDOF 5
ENDMDL
MODEL 8
REMARK VINA RESULT:      -8.0     12.454     14.898
REMARK  5 active torsions:
REMARK  status: ('A' for Active; 'I' for Inactive)
REMARK    1  A    between atoms: C_6  and  N_7 
REMARK       I    between atoms: N_7  and  C_8 
REMARK    2  A    between atoms: C_8  and  C_9 
REMARK    3  A    between atoms: C_9  and  O_10 
REMARK    4  A    between atoms: O_10  and  C_11 
REMARK    5  A    between atoms: C_18  and  C_19 
ROOT
HETATM    1  C   UNL     1      31.573  48.066  42.999  1.00  0.00     0.073 C 
HETATM    2  C   UNL     1      30.897  49.305  42.539  1.00  0.00     0.065 A 
HETATM    3  N   UNL     1      29.602  49.273  42.198  1.00  0.00    -0.177 NA
HETATM    4  N   UNL     1      29.315  50.548  41.886  1.00  0.00    -0.262 N 
HETATM    5  H   UNL     1      28.371  50.767  41.577  1.00  0.00     0.191 HD
HETATM    6  C   UNL     1      30.381  51.401  42.002  1.00  0.00     0.137 A 
HETATM    7  C   UNL     1      31.437  50.614  42.423  1.00  0.00     0.046 A 
ENDROOT
BRANCH   6   8
HETATM    8  N   UNL     1      30.370  52.743  41.684  1.00  0.00    -0.309 N 
HETATM    9  C   UNL     1      31.070  53.384  40.696  1.00  0.00     0.247 C 
HETATM   10  O   UNL     1      31.121  54.617  40.701  1.00  0.00    -0.271 OA
HETATM   11  H   UNL     1      29.750  53.350  42.209  1.00  0.00     0.170 HD
BRANCH   9  12
HETATM   12  C   UNL     1      31.605  52.577  39.518  1.00  0.00     0.278 C 
BRANCH  12  13
HETATM   13  O   UNL     1      30.605  52.268  38.552  1.00  0.00    -0.342 OA
BRANCH  13  14
HETATM   14  C   UNL     1      30.296  50.931  38.601  1.00  0.00     0.069 A 
HETATM   15  C   UNL     1      28.961  50.574  38.432  1.00  0.00     0.037 A 
HETATM   16  C   UNL     1      28.590  49.231  38.510  1.00  0.00     0.003 A 
HETATM   17  C   UNL     1      29.555  48.251  38.741  1.00  0.00     0.000 A 
HETATM   18  C   UNL     1      30.897  48.609  38.872  1.00  0.00     0.003 A 
HETATM   19  C   UNL     1      31.272  49.949  38.789  1.00  0.00     0.037 A 
ENDBRANCH  13  14
ENDBRANCH  12  13
ENDBRANCH   9  12
ENDBRANCH   6   8
BRANCH   7  20
HETATM   20  C   UNL     1      32.703  51.153  42.874  1.00  0.00    -0.020 A 
HETATM   21  C   UNL     1      33.842  50.963  42.076  1.00  0.00     0.014 A 
HETATM   22  C   UNL     1      35.096  51.377  42.526  1.00  0.00     0.020 A 
HETATM   23  C   UNL     1      35.210  51.987  43.773  1.00  0.00     0.011 A 
HETATM   24 BR   UNL     1      36.914  52.513  44.401  1.00  0.00    -0.051 Br
HETATM   25  C   UNL     1      34.082  52.199  44.567  1.00  0.00     0.020 A 
HETATM   26  C   UNL     1      32.826  51.785  44.115  1.00  0.00     0.014 A 
ENDBRANCH   7  20
TORSDOF 5
ENDMDL
MODEL 9
REMARK VINA RESULT:      -7.9      8.331     10.776
REMARK  5 active torsions:
REMARK  status: ('A' for Active; 'I' for Inactive)
REMARK    1  A    between atoms: C_6  and  N_7 
REMARK       I    between atoms: N_7  and  C_8 
REMARK    2  A    between atoms: C_8  and  C_9 
REMARK    3  A    between atoms: C_9  and  O_10 
REMARK    4  A    between atoms: O_10  and  C_11 
REMARK    5  A    between atoms: C_18  and  C_19 
ROOT
HETATM    1  C   UNL     1      18.067  51.628  49.903  1.00  0.00     0.073 C 
HETATM    2  C   UNL     1      18.305  50.164  49.969  1.00  0.00     0.065 A 
HETATM    3  N   UNL     1      18.904  49.633  51.042  1.00  0.00    -0.177 NA
HETATM    4  N   UNL     1      18.912  48.313  50.792  1.00  0.00    -0.262 N 
HETATM    5  H   UNL     1      19.340  47.696  51.477  1.00  0.00     0.191 HD
HETATM    6  C   UNL     1      18.350  47.973  49.589  1.00  0.00     0.137 A 
HETATM    7  C   UNL     1      17.946  49.168  49.022  1.00  0.00     0.046 A 
ENDROOT
BRANCH   6   8
HETATM    8  N   UNL     1      18.287  46.698  49.067  1.00  0.00    -0.309 N 
HETATM    9  C   UNL     1      19.173  46.087  48.219  1.00  0.00     0.247 C 
HETATM   10  O   UNL     1      18.846  45.033  47.668  1.00  0.00    -0.271 OA
HETATM   11  H   UNL     1      17.518  46.104  49.356  1.00  0.00     0.170 HD
BRANCH   9  12
HETATM   12  C   UNL     1      20.600  46.617  48.125  1.00  0.00     0.278 C 
BRANCH  12  13
HETATM   13  O   UNL     1      20.732  47.712  47.225  1.00  0.00    -0.342 OA
BRANCH  13  14
HETATM   14  C   UNL     1      21.380  48.755  47.840  1.00  0.00     0.069 A 
HETATM   15  C   UNL     1      22.390  48.440  48.745  1.00  0.00     0.037 A 
HETATM   16  C   UNL     1      23.053  49.463  49.423  1.00  0.00     0.003 A 
HETATM   17  C   UNL     1      22.716  50.795  49.183  1.00  0.00     0.000 A 
HETATM   18  C   UNL     1      21.731  51.108  48.247  1.00  0.00     0.003 A 
HETATM   19  C   UNL     1      21.069  50.089  47.564  1.00  0.00     0.037 A 
ENDBRANCH  13  14
ENDBRANCH  12  13
ENDBRANCH   9  12
ENDBRANCH   6   8
BRANCH   7  20
HETATM   20  C   UNL     1      17.112  49.248  47.841  1.00  0.00    -0.020 A 
HETATM   21  C   UNL     1      15.730  49.045  47.975  1.00  0.00     0.014 A 
HETATM   22  C   UNL     1      14.909  49.013  46.847  1.00  0.00     0.020 A 
HETATM   23  C   UNL     1      15.471  49.189  45.584  1.00  0.00     0.011 A 
HETATM   24 BR   UNL     1      14.366  49.106  44.052  1.00  0.00    -0.051 Br
HETATM   25  C   UNL     1      16.842  49.412  45.441  1.00  0.00     0.020 A 
HETATM   26  C   UNL     1      17.663  49.445  46.571  1.00  0.00     0.014 A 
ENDBRANCH   7  20
TORSDOF 5
ENDMDL
MODEL 10
REMARK VINA RESULT:      -7.9      7.571      9.761
REMARK  5 active torsions:
REMARK  status: ('A' for Active; 'I' for Inactive)
REMARK    1  A    between atoms: C_6  and  N_7 
REMARK       I    between atoms: N_7  and  C_8 
REMARK    2  A    between atoms: C_8  and  C_9 
REMARK    3  A    between atoms: C_9  and  O_10 
REMARK    4  A    between atoms: O_10  and  C_11 
REMARK    5  A    between atoms: C_18  and  C_19 
ROOT
HETATM    1  C   UNL     1      19.529  46.713  45.297  1.00  0.00     0.073 C 
HETATM    2  C   UNL     1      18.859  47.079  46.570  1.00  0.00     0.065 A 
HETATM    3  N   UNL     1      17.576  47.465  46.562  1.00  0.00    -0.177 NA
HETATM    4  N   UNL     1      17.289  47.667  47.860  1.00  0.00    -0.262 N 
HETATM    5  H   UNL     1      16.354  47.985  48.101  1.00  0.00     0.191 HD
HETATM    6  C   UNL     1      18.344  47.436  48.704  1.00  0.00     0.137 A 
HETATM    7  C   UNL     1      19.391  47.055  47.887  1.00  0.00     0.046 A 
ENDROOT
BRANCH   6   8
HETATM    8  N   UNL     1      18.332  47.628  50.070  1.00  0.00    -0.309 N 
HETATM    9  C   UNL     1      18.512  48.797  50.761  1.00  0.00     0.247 C 
HETATM   10  O   UNL     1      18.702  48.750  51.979  1.00  0.00    -0.271 OA
HETATM   11  H   UNL     1      18.134  46.828  50.660  1.00  0.00     0.170 HD
BRANCH   9  12
HETATM   12  C   UNL     1      18.286  50.127  50.048  1.00  0.00     0.278 C 
BRANCH  12  13
HETATM   13  O   UNL     1      19.270  51.105  50.366  1.00  0.00    -0.342 OA
BRANCH  13  14
HETATM   14  C   UNL     1      20.371  50.949  49.560  1.00  0.00     0.069 A 
HETATM   15  C   UNL     1      21.621  50.954  50.173  1.00  0.00     0.037 A 
HETATM   16  C   UNL     1      22.773  50.836  49.394  1.00  0.00     0.003 A 
HETATM   17  C   UNL     1      22.670  50.697  48.009  1.00  0.00     0.000 A 
HETATM   18  C   UNL     1      21.414  50.654  47.404  1.00  0.00     0.003 A 
HETATM   19  C   UNL     1      20.261  50.767  48.180  1.00  0.00     0.037 A 
ENDBRANCH  13  14
ENDBRANCH  12  13
ENDBRANCH   9  12
ENDBRANCH   6   8
BRANCH   7  20
HETATM   20  C   UNL     1      20.637  46.513  48.388  1.00  0.00    -0.020 A 
HETATM   21  C   UNL     1      21.723  47.381  48.580  1.00  0.00     0.014 A 
HETATM   22  C   UNL     1      22.968  46.880  48.963  1.00  0.00     0.020 A 
HETATM   23  C   UNL     1      23.125  45.510  49.158  1.00  0.00     0.011 A 
HETATM   24 BR   UNL     1      24.821  44.825  49.639  1.00  0.00    -0.051 Br
HETATM   25  C   UNL     1      22.047  44.639  48.989  1.00  0.00     0.020 A 
HETATM   26  C   UNL     1      20.800  45.142  48.607  1.00  0.00     0.014 A 
ENDBRANCH   7  20
TORSDOF 5
ENDMDL
