MODEL 1
REMARK VINA RESULT:      -8.9      0.000      0.000
REMARK  7 active torsions:
REMARK  status: ('A' for Active; 'I' for Inactive)
REMARK    1  A    between atoms: C_3  and  C_4 
REMARK    2  A    between atoms: C_4  and  N_5 
REMARK    3  A    between atoms: C_4  and  C_9 
REMARK       I    between atoms: N_5  and  C_6 
REMARK       I    between atoms: C_6  and  N_7 
REMARK    4  A    between atoms: C_9  and  C_10 
REMARK       I    between atoms: C_10  and  N_11 
REMARK    5  A    between atoms: N_11  and  C_12 
REMARK    6  A    between atoms: C_12  and  C_13 
REMARK    7  A    between atoms: C_13  and  N_14 
ROOT
HETATM    1  C   UNL     1      28.178  47.077  54.983  1.00  0.00     0.132 C 
ENDROOT
BRANCH   1   2
HETATM    2  C   UNL     1      28.468  45.569  55.032  1.00  0.00     0.128 C 
BRANCH   2   3
HETATM    3  C   UNL     1      29.528  45.191  56.066  1.00  0.00    -0.029 A 
HETATM    4  C   UNL     1      30.440  44.130  55.860  1.00  0.00    -0.054 A 
HETATM    5  C   UNL     1      30.427  43.284  54.614  1.00  0.00     0.049 C 
HETATM    6  C   UNL     1      31.390  43.833  56.853  1.00  0.00     0.007 A 
HETATM    7  C   UNL     1      31.441  44.562  58.040  1.00  0.00     0.001 A 
HETATM    8  C   UNL     1      30.544  45.598  58.254  1.00  0.00     0.001 A 
HETATM    9  C   UNL     1      29.596  45.908  57.279  1.00  0.00     0.010 A 
ENDBRANCH   2   3
BRANCH   2  10
HETATM   10  N   UNL     1      27.282  44.732  55.188  1.00  0.00    -0.334 N 
HETATM   11  C   UNL     1      26.719  43.981  54.205  1.00  0.00     0.314 C 
HETATM   12  N   UNL     1      25.575  43.372  54.599  1.00  0.00    -0.352 N 
HETATM   13  O   UNL     1      27.184  43.801  53.090  1.00  0.00    -0.248 OA
HETATM   14  H   UNL     1      24.961  43.842  55.246  1.00  0.00     0.160 HD
HETATM   15  H   UNL     1      25.103  42.864  53.859  1.00  0.00     0.160 HD
HETATM   16  H   UNL     1      26.718  44.892  56.009  1.00  0.00     0.165 HD
ENDBRANCH   2  10
ENDBRANCH   1   2
BRANCH   1  17
HETATM   17  C   UNL     1      26.819  47.342  54.381  1.00  0.00     0.219 C 
HETATM   18  N   UNL     1      26.728  47.157  53.022  1.00  0.00    -0.359 N 
HETATM   19  H   UNL     1      27.517  46.675  52.594  1.00  0.00     0.162 HD
HETATM   20  O   UNL     1      25.872  47.761  55.042  1.00  0.00    -0.274 OA
BRANCH  18  21
HETATM   21  C   UNL     1      25.498  47.158  52.233  1.00  0.00     0.150 C 
BRANCH  21  22
HETATM   22  C   UNL     1      25.265  46.045  51.185  1.00  0.00     0.254 C 
BRANCH  22  23
HETATM   23  N   UNL     1      24.062  46.273  50.307  1.00  0.00    -0.065 N 
HETATM   24  H   UNL     1      23.259  46.065  50.930  1.00  0.00     0.280 HD
HETATM   25  C   UNL     1      23.887  47.691  49.814  1.00  0.00     0.274 C 
HETATM   26  C   UNL     1      22.748  47.806  48.855  1.00  0.00    -0.019 A 
HETATM   27  C   UNL     1      22.158  46.699  48.276  1.00  0.00    -0.008 A 
HETATM   28  C   UNL     1      22.131  49.012  48.399  1.00  0.00     0.017 A 
HETATM   29  S   UNL     1      20.890  47.096  47.218  1.00  0.00    -0.106 SA
HETATM   30  C   UNL     1      22.554  45.284  48.552  1.00  0.00     0.074 C 
HETATM   31  C   UNL     1      21.108  48.768  47.506  1.00  0.00     0.051 A 
HETATM   32  C   UNL     1      23.956  45.250  49.185  1.00  0.00     0.240 C 
ENDBRANCH  22  23
ENDBRANCH  21  22
ENDBRANCH  18  21
ENDBRANCH   1  17
TORSDOF 7
ENDMDL
MODEL 2
REMARK VINA RESULT:      -8.9      2.278      3.160
REMARK  7 active torsions:
REMARK  status: ('A' for Active; 'I' for Inactive)
REMARK    1  A    between atoms: C_3  and  C_4 
REMARK    2  A    between atoms: C_4  and  N_5 
REMARK    3  A    between atoms: C_4  and  C_9 
REMARK       I    between atoms: N_5  and  C_6 
REMARK       I    between atoms: C_6  and  N_7 
REMARK    4  A    between atoms: C_9  and  C_10 
REMARK       I    between atoms: C_10  and  N_11 
REMARK    5  A    between atoms: N_11  and  C_12 
REMARK    6  A    between atoms: C_12  and  C_13 
REMARK    7  A    between atoms: C_13  and  N_14 
ROOT
HETATM    1  C   UNL     1      26.863  43.262  54.367  1.00  0.00     0.132 C 
ENDROOT
BRANCH   1   2
HETATM    2  C   UNL     1      28.317  43.231  53.874  1.00  0.00     0.128 C 
BRANCH   2   3
HETATM    3  C   UNL     1      29.314  43.773  54.899  1.00  0.00    -0.029 A 
HETATM    4  C   UNL     1      29.272  45.110  55.358  1.00  0.00    -0.054 A 
HETATM    5  C   UNL     1      28.254  46.103  54.863  1.00  0.00     0.049 C 
HETATM    6  C   UNL     1      30.221  45.546  56.300  1.00  0.00     0.007 A 
HETATM    7  C   UNL     1      31.204  44.685  56.782  1.00  0.00     0.001 A 
HETATM    8  C   UNL     1      31.258  43.374  56.329  1.00  0.00     0.001 A 
HETATM    9  C   UNL     1      30.324  42.924  55.396  1.00  0.00     0.010 A 
ENDBRANCH   2   3
BRANCH   2  10
HETATM   10  N   UNL     1      28.757  41.932  53.373  1.00  0.00    -0.334 N 
HETATM   11  C   UNL     1      28.539  41.463  52.116  1.00  0.00     0.314 C 
HETATM   12  N   UNL     1      28.976  40.192  51.945  1.00  0.00    -0.352 N 
HETATM   13  O   UNL     1      28.053  42.098  51.192  1.00  0.00    -0.248 OA
HETATM   14  H   UNL     1      28.913  39.540  52.712  1.00  0.00     0.160 HD
HETATM   15  H   UNL     1      28.759  39.801  51.037  1.00  0.00     0.160 HD
HETATM   16  H   UNL     1      29.044  41.253  54.061  1.00  0.00     0.165 HD
ENDBRANCH   2  10
ENDBRANCH   1   2
BRANCH   1  17
HETATM   17  C   UNL     1      25.983  44.007  53.393  1.00  0.00     0.219 C 
HETATM   18  N   UNL     1      26.607  44.446  52.249  1.00  0.00    -0.359 N 
HETATM   19  H   UNL     1      27.534  44.058  52.082  1.00  0.00     0.162 HD
HETATM   20  O   UNL     1      24.805  44.269  53.629  1.00  0.00    -0.274 OA
BRANCH  18  21
HETATM   21  C   UNL     1      25.951  45.015  51.074  1.00  0.00     0.150 C 
BRANCH  21  22
HETATM   22  C   UNL     1      26.773  45.870  50.083  1.00  0.00     0.254 C 
BRANCH  22  23
HETATM   23  N   UNL     1      25.991  46.990  49.446  1.00  0.00    -0.065 N 
HETATM   24  H   UNL     1      26.066  46.795  48.429  1.00  0.00     0.280 HD
HETATM   25  C   UNL     1      24.519  47.020  49.786  1.00  0.00     0.274 C 
HETATM   26  C   UNL     1      23.845  48.225  49.217  1.00  0.00    -0.019 A 
HETATM   27  C   UNL     1      24.555  49.303  48.724  1.00  0.00    -0.008 A 
HETATM   28  C   UNL     1      22.437  48.448  49.110  1.00  0.00     0.017 A 
HETATM   29  S   UNL     1      23.559  50.548  48.140  1.00  0.00    -0.106 SA
HETATM   30  C   UNL     1      26.047  49.384  48.671  1.00  0.00     0.074 C 
HETATM   31  C   UNL     1      22.146  49.671  48.543  1.00  0.00     0.051 A 
HETATM   32  C   UNL     1      26.658  48.346  49.628  1.00  0.00     0.240 C 
ENDBRANCH  22  23
ENDBRANCH  21  22
ENDBRANCH  18  21
ENDBRANCH   1  17
TORSDOF 7
ENDMDL
MODEL 3
REMARK VINA RESULT:      -8.5      3.962     10.897
REMARK  7 active torsions:
REMARK  status: ('A' for Active; 'I' for Inactive)
REMARK    1  A    between atoms: C_3  and  C_4 
REMARK    2  A    between atoms: C_4  and  N_5 
REMARK    3  A    between atoms: C_4  and  C_9 
REMARK       I    between atoms: N_5  and  C_6 
REMARK       I    between atoms: C_6  and  N_7 
REMARK    4  A    between atoms: C_9  and  C_10 
REMARK       I    between atoms: C_10  and  N_11 
REMARK    5  A    between atoms: N_11  and  C_12 
REMARK    6  A    between atoms: C_12  and  C_13 
REMARK    7  A    between atoms: C_13  and  N_14 
ROOT
HETATM    1  C   UNL     1      21.533  48.414  48.234  1.00  0.00     0.132 C 
ENDROOT
BRANCH   1   2
HETATM    2  C   UNL     1      20.367  49.162  48.898  1.00  0.00     0.128 C 
BRANCH   2   3
HETATM    3  C   UNL     1      19.304  49.628  47.903  1.00  0.00    -0.029 A 
HETATM    4  C   UNL     1      19.035  50.997  47.671  1.00  0.00    -0.054 A 
HETATM    5  C   UNL     1      19.765  52.098  48.394  1.00  0.00     0.049 C 
HETATM    6  C   UNL     1      18.041  51.358  46.744  1.00  0.00     0.007 A 
HETATM    7  C   UNL     1      17.313  50.389  46.057  1.00  0.00     0.001 A 
HETATM    8  C   UNL     1      17.563  49.044  46.287  1.00  0.00     0.001 A 
HETATM    9  C   UNL     1      18.547  48.667  47.201  1.00  0.00     0.010 A 
ENDBRANCH   2   3
BRANCH   2  10
HETATM   10  N   UNL     1      19.747  48.448  50.011  1.00  0.00    -0.334 N 
HETATM   11  C   UNL     1      18.915  49.003  50.930  1.00  0.00     0.314 C 
HETATM   12  N   UNL     1      18.555  48.134  51.906  1.00  0.00    -0.352 N 
HETATM   13  O   UNL     1      18.470  50.141  50.896  1.00  0.00    -0.248 OA
HETATM   14  H   UNL     1      19.218  47.443  52.222  1.00  0.00     0.160 HD
HETATM   15  H   UNL     1      17.992  48.548  52.639  1.00  0.00     0.160 HD
HETATM   16  H   UNL     1      20.133  47.545  50.241  1.00  0.00     0.165 HD
ENDBRANCH   2  10
ENDBRANCH   1   2
BRANCH   1  17
HETATM   17  C   UNL     1      22.708  48.308  49.176  1.00  0.00     0.219 C 
HETATM   18  N   UNL     1      23.227  47.046  49.333  1.00  0.00    -0.359 N 
HETATM   19  H   UNL     1      22.905  46.354  48.658  1.00  0.00     0.162 HD
HETATM   20  O   UNL     1      23.133  49.268  49.816  1.00  0.00    -0.274 OA
BRANCH  18  21
HETATM   21  C   UNL     1      24.468  46.704  50.026  1.00  0.00     0.150 C 
BRANCH  21  22
HETATM   22  C   UNL     1      24.516  45.450  50.928  1.00  0.00     0.254 C 
BRANCH  22  23
HETATM   23  N   UNL     1      25.331  45.628  52.183  1.00  0.00    -0.065 N 
HETATM   24  H   UNL     1      24.681  45.346  52.941  1.00  0.00     0.280 HD
HETATM   25  C   UNL     1      26.549  44.740  52.289  1.00  0.00     0.274 C 
HETATM   26  C   UNL     1      27.365  45.063  53.496  1.00  0.00    -0.019 A 
HETATM   27  C   UNL     1      27.180  46.225  54.222  1.00  0.00    -0.008 A 
HETATM   28  C   UNL     1      28.419  44.274  54.054  1.00  0.00     0.017 A 
HETATM   29  S   UNL     1      28.237  46.361  55.544  1.00  0.00    -0.106 SA
HETATM   30  C   UNL     1      26.146  47.260  53.916  1.00  0.00     0.074 C 
HETATM   31  C   UNL     1      28.976  44.864  55.169  1.00  0.00     0.051 A 
HETATM   32  C   UNL     1      25.650  47.089  52.470  1.00  0.00     0.240 C 
ENDBRANCH  22  23
ENDBRANCH  21  22
ENDBRANCH  18  21
ENDBRANCH   1  17
TORSDOF 7
ENDMDL
MODEL 4
REMARK VINA RESULT:      -8.3      3.812     10.078
REMARK  7 active torsions:
REMARK  status: ('A' for Active; 'I' for Inactive)
REMARK    1  A    between atoms: C_3  and  C_4 
REMARK    2  A    between atoms: C_4  and  N_5 
REMARK    3  A    between atoms: C_4  and  C_9 
REMARK       I    between atoms: N_5  and  C_6 
REMARK       I    between atoms: C_6  and  N_7 
REMARK    4  A    between atoms: C_9  and  C_10 
REMARK       I    between atoms: C_10  and  N_11 
REMARK    5  A    between atoms: N_11  and  C_12 
REMARK    6  A    between atoms: C_12  and  C_13 
REMARK    7  A    between atoms: C_13  and  N_14 
ROOT
HETATM    1  C   UNL     1      22.117  48.160  48.203  1.00  0.00     0.132 C 
ENDROOT
BRANCH   1   2
HETATM    2  C   UNL     1      20.755  48.121  48.913  1.00  0.00     0.128 C 
BRANCH   2   3
HETATM    3  C   UNL     1      20.110  49.499  49.060  1.00  0.00    -0.029 A 
HETATM    4  C   UNL     1      19.148  49.779  50.058  1.00  0.00    -0.054 A 
HETATM    5  C   UNL     1      18.676  48.741  51.041  1.00  0.00     0.049 C 
HETATM    6  C   UNL     1      18.591  51.069  50.137  1.00  0.00     0.007 A 
HETATM    7  C   UNL     1      18.967  52.070  49.243  1.00  0.00     0.001 A 
HETATM    8  C   UNL     1      19.903  51.800  48.255  1.00  0.00     0.001 A 
HETATM    9  C   UNL     1      20.467  50.528  48.164  1.00  0.00     0.010 A 
ENDBRANCH   2   3
BRANCH   2  10
HETATM   10  N   UNL     1      19.805  47.170  48.343  1.00  0.00    -0.334 N 
HETATM   11  C   UNL     1      19.914  45.818  48.411  1.00  0.00     0.314 C 
HETATM   12  N   UNL     1      18.940  45.176  47.721  1.00  0.00    -0.352 N 
HETATM   13  O   UNL     1      20.749  45.201  49.055  1.00  0.00    -0.248 OA
HETATM   14  H   UNL     1      18.591  45.581  46.866  1.00  0.00     0.160 HD
HETATM   15  H   UNL     1      19.045  44.169  47.701  1.00  0.00     0.160 HD
HETATM   16  H   UNL     1      19.148  47.534  47.669  1.00  0.00     0.165 HD
ENDBRANCH   2  10
ENDBRANCH   1   2
BRANCH   1  17
HETATM   17  C   UNL     1      23.239  47.911  49.181  1.00  0.00     0.219 C 
HETATM   18  N   UNL     1      23.536  46.589  49.415  1.00  0.00    -0.359 N 
HETATM   19  H   UNL     1      23.114  45.926  48.767  1.00  0.00     0.162 HD
HETATM   20  O   UNL     1      23.807  48.819  49.784  1.00  0.00    -0.274 OA
BRANCH  18  21
HETATM   21  C   UNL     1      24.688  46.083  50.158  1.00  0.00     0.150 C 
BRANCH  21  22
HETATM   22  C   UNL     1      24.463  45.130  51.354  1.00  0.00     0.254 C 
BRANCH  22  23
HETATM   23  N   UNL     1      25.342  45.421  52.543  1.00  0.00    -0.065 N 
HETATM   24  H   UNL     1      24.748  45.166  53.356  1.00  0.00     0.280 HD
HETATM   25  C   UNL     1      26.598  44.586  52.632  1.00  0.00     0.274 C 
HETATM   26  C   UNL     1      27.470  45.018  53.765  1.00  0.00    -0.019 A 
HETATM   27  C   UNL     1      27.281  46.218  54.424  1.00  0.00    -0.008 A 
HETATM   28  C   UNL     1      28.585  44.307  54.308  1.00  0.00     0.017 A 
HETATM   29  S   UNL     1      28.406  46.480  55.669  1.00  0.00    -0.106 SA
HETATM   30  C   UNL     1      26.190  47.192  54.116  1.00  0.00     0.074 C 
HETATM   31  C   UNL     1      29.182  44.990  55.347  1.00  0.00     0.051 A 
HETATM   32  C   UNL     1      25.618  46.907  52.717  1.00  0.00     0.240 C 
ENDBRANCH  22  23
ENDBRANCH  21  22
ENDBRANCH  18  21
ENDBRANCH   1  17
TORSDOF 7
ENDMDL
MODEL 5
REMARK VINA RESULT:      -8.2      2.209      3.478
REMARK  7 active torsions:
REMARK  status: ('A' for Active; 'I' for Inactive)
REMARK    1  A    between atoms: C_3  and  C_4 
REMARK    2  A    between atoms: C_4  and  N_5 
REMARK    3  A    between atoms: C_4  and  C_9 
REMARK       I    between atoms: N_5  and  C_6 
REMARK       I    between atoms: C_6  and  N_7 
REMARK    4  A    between atoms: C_9  and  C_10 
REMARK       I    between atoms: C_10  and  N_11 
REMARK    5  A    between atoms: N_11  and  C_12 
REMARK    6  A    between atoms: C_12  and  C_13 
REMARK    7  A    between atoms: C_13  and  N_14 
ROOT
HETATM    1  C   UNL     1      25.523  44.641  53.200  1.00  0.00     0.132 C 
ENDROOT
BRANCH   1   2
HETATM    2  C   UNL     1      26.875  43.988  52.872  1.00  0.00     0.128 C 
BRANCH   2   3
HETATM    3  C   UNL     1      27.964  44.309  53.895  1.00  0.00    -0.029 A 
HETATM    4  C   UNL     1      28.046  45.564  54.542  1.00  0.00    -0.054 A 
HETATM    5  C   UNL     1      27.076  46.681  54.265  1.00  0.00     0.049 C 
HETATM    6  C   UNL     1      29.076  45.795  55.472  1.00  0.00     0.007 A 
HETATM    7  C   UNL     1      30.020  44.811  55.758  1.00  0.00     0.001 A 
HETATM    8  C   UNL     1      29.953  43.581  55.120  1.00  0.00     0.001 A 
HETATM    9  C   UNL     1      28.937  43.334  54.197  1.00  0.00     0.010 A 
ENDBRANCH   2   3
BRANCH   2  10
HETATM   10  N   UNL     1      26.807  42.549  52.633  1.00  0.00    -0.334 N 
HETATM   11  C   UNL     1      26.919  41.952  51.418  1.00  0.00     0.314 C 
HETATM   12  N   UNL     1      26.730  40.611  51.471  1.00  0.00    -0.352 N 
HETATM   13  O   UNL     1      27.209  42.512  50.371  1.00  0.00    -0.248 OA
HETATM   14  H   UNL     1      26.065  40.231  52.127  1.00  0.00     0.160 HD
HETATM   15  H   UNL     1      26.739  40.157  50.566  1.00  0.00     0.160 HD
HETATM   16  H   UNL     1      26.435  41.982  53.379  1.00  0.00     0.165 HD
ENDBRANCH   2  10
ENDBRANCH   1   2
BRANCH   1  17
HETATM   17  C   UNL     1      24.695  44.816  51.949  1.00  0.00     0.219 C 
HETATM   18  N   UNL     1      24.705  46.079  51.407  1.00  0.00    -0.359 N 
HETATM   19  H   UNL     1      25.414  46.709  51.779  1.00  0.00     0.162 HD
HETATM   20  O   UNL     1      24.003  43.915  51.481  1.00  0.00    -0.274 OA
BRANCH  18  21
HETATM   21  C   UNL     1      24.152  46.464  50.110  1.00  0.00     0.150 C 
BRANCH  21  22
HETATM   22  C   UNL     1      24.038  47.962  49.745  1.00  0.00     0.254 C 
BRANCH  22  23
HETATM   23  N   UNL     1      22.625  48.431  49.515  1.00  0.00    -0.065 N 
HETATM   24  H   UNL     1      22.181  48.343  50.449  1.00  0.00     0.280 HD
HETATM   25  C   UNL     1      22.490  49.876  49.093  1.00  0.00     0.274 C 
HETATM   26  C   UNL     1      21.076  50.226  48.768  1.00  0.00    -0.019 A 
HETATM   27  C   UNL     1      20.102  49.264  48.580  1.00  0.00    -0.008 A 
HETATM   28  C   UNL     1      20.536  51.539  48.593  1.00  0.00     0.017 A 
HETATM   29  S   UNL     1      18.578  49.918  48.214  1.00  0.00    -0.106 SA
HETATM   30  C   UNL     1      20.329  47.792  48.709  1.00  0.00     0.074 C 
HETATM   31  C   UNL     1      19.191  51.513  48.289  1.00  0.00     0.051 A 
HETATM   32  C   UNL     1      21.835  47.488  48.620  1.00  0.00     0.240 C 
ENDBRANCH  22  23
ENDBRANCH  21  22
ENDBRANCH  18  21
ENDBRANCH   1  17
TORSDOF 7
ENDMDL
MODEL 6
REMARK VINA RESULT:      -8.2      2.448      4.329
REMARK  7 active torsions:
REMARK  status: ('A' for Active; 'I' for Inactive)
REMARK    1  A    between atoms: C_3  and  C_4 
REMARK    2  A    between atoms: C_4  and  N_5 
REMARK    3  A    between atoms: C_4  and  C_9 
REMARK       I    between atoms: N_5  and  C_6 
REMARK       I    between atoms: C_6  and  N_7 
REMARK    4  A    between atoms: C_9  and  C_10 
REMARK       I    between atoms: C_10  and  N_11 
REMARK    5  A    between atoms: N_11  and  C_12 
REMARK    6  A    between atoms: C_12  and  C_13 
REMARK    7  A    between atoms: C_13  and  N_14 
ROOT
HETATM    1  C   UNL     1      25.326  43.619  51.920  1.00  0.00     0.132 C 
ENDROOT
BRANCH   1   2
HETATM    2  C   UNL     1      26.268  44.730  52.406  1.00  0.00     0.128 C 
BRANCH   2   3
HETATM    3  C   UNL     1      27.592  44.200  52.956  1.00  0.00    -0.029 A 
HETATM    4  C   UNL     1      28.143  44.663  54.174  1.00  0.00    -0.054 A 
HETATM    5  C   UNL     1      27.474  45.720  55.013  1.00  0.00     0.049 C 
HETATM    6  C   UNL     1      29.367  44.136  54.623  1.00  0.00     0.007 A 
HETATM    7  C   UNL     1      30.049  43.172  53.884  1.00  0.00     0.001 A 
HETATM    8  C   UNL     1      29.521  42.720  52.683  1.00  0.00     0.001 A 
HETATM    9  C   UNL     1      28.307  43.230  52.223  1.00  0.00     0.010 A 
ENDBRANCH   2   3
BRANCH   2  10
HETATM   10  N   UNL     1      26.508  45.788  51.428  1.00  0.00    -0.334 N 
HETATM   11  C   UNL     1      26.020  47.053  51.509  1.00  0.00     0.314 C 
HETATM   12  N   UNL     1      26.323  47.804  50.422  1.00  0.00    -0.352 N 
HETATM   13  O   UNL     1      25.415  47.525  52.459  1.00  0.00    -0.248 OA
HETATM   14  H   UNL     1      26.361  47.367  49.514  1.00  0.00     0.160 HD
HETATM   15  H   UNL     1      25.909  48.728  50.431  1.00  0.00     0.160 HD
HETATM   16  H   UNL     1      26.871  45.503  50.531  1.00  0.00     0.165 HD
ENDBRANCH   2  10
ENDBRANCH   1   2
BRANCH   1  17
HETATM   17  C   UNL     1      25.025  43.776  50.448  1.00  0.00     0.219 C 
HETATM   18  N   UNL     1      23.698  43.938  50.131  1.00  0.00    -0.359 N 
HETATM   19  H   UNL     1      23.082  44.134  50.918  1.00  0.00     0.162 HD
HETATM   20  O   UNL     1      25.894  43.696  49.582  1.00  0.00    -0.274 OA
BRANCH  18  21
HETATM   21  C   UNL     1      23.164  44.299  48.819  1.00  0.00     0.150 C 
BRANCH  21  22
HETATM   22  C   UNL     1      21.726  44.857  48.710  1.00  0.00     0.254 C 
BRANCH  22  23
HETATM   23  N   UNL     1      21.615  46.328  49.017  1.00  0.00    -0.065 N 
HETATM   24  H   UNL     1      21.543  46.359  50.052  1.00  0.00     0.280 HD
HETATM   25  C   UNL     1      22.818  47.157  48.632  1.00  0.00     0.274 C 
HETATM   26  C   UNL     1      22.580  48.614  48.856  1.00  0.00    -0.019 A 
HETATM   27  C   UNL     1      21.318  49.128  49.083  1.00  0.00    -0.008 A 
HETATM   28  C   UNL     1      23.563  49.653  48.856  1.00  0.00     0.017 A 
HETATM   29  S   UNL     1      21.312  50.812  49.301  1.00  0.00    -0.106 SA
HETATM   30  C   UNL     1      20.070  48.309  49.164  1.00  0.00     0.074 C 
HETATM   31  C   UNL     1      23.008  50.894  49.086  1.00  0.00     0.051 A 
HETATM   32  C   UNL     1      20.309  46.932  48.520  1.00  0.00     0.240 C 
ENDBRANCH  22  23
ENDBRANCH  21  22
ENDBRANCH  18  21
ENDBRANCH   1  17
TORSDOF 7
ENDMDL
MODEL 7
REMARK VINA RESULT:      -8.1      4.430     11.010
REMARK  7 active torsions:
REMARK  status: ('A' for Active; 'I' for Inactive)
REMARK    1  A    between atoms: C_3  and  C_4 
REMARK    2  A    between atoms: C_4  and  N_5 
REMARK    3  A    between atoms: C_4  and  C_9 
REMARK       I    between atoms: N_5  and  C_6 
REMARK       I    between atoms: C_6  and  N_7 
REMARK    4  A    between atoms: C_9  and  C_10 
REMARK       I    between atoms: C_10  and  N_11 
REMARK    5  A    between atoms: N_11  and  C_12 
REMARK    6  A    between atoms: C_12  and  C_13 
REMARK    7  A    between atoms: C_13  and  N_14 
ROOT
HETATM    1  C   UNL     1      21.825  50.566  48.163  1.00  0.00     0.132 C 
ENDROOT
BRANCH   1   2
HETATM    2  C   UNL     1      20.356  50.476  48.603  1.00  0.00     0.128 C 
BRANCH   2   3
HETATM    3  C   UNL     1      19.371  50.879  47.507  1.00  0.00    -0.029 A 
HETATM    4  C   UNL     1      18.422  51.913  47.687  1.00  0.00    -0.054 A 
HETATM    5  C   UNL     1      18.302  52.685  48.974  1.00  0.00     0.049 C 
HETATM    6  C   UNL     1      17.542  52.233  46.637  1.00  0.00     0.007 A 
HETATM    7  C   UNL     1      17.585  51.542  45.428  1.00  0.00     0.001 A 
HETATM    8  C   UNL     1      18.505  50.520  45.247  1.00  0.00     0.001 A 
HETATM    9  C   UNL     1      19.387  50.191  46.276  1.00  0.00     0.010 A 
ENDBRANCH   2   3
BRANCH   2  10
HETATM   10  N   UNL     1      19.978  49.190  49.182  1.00  0.00    -0.334 N 
HETATM   11  C   UNL     1      19.192  49.025  50.278  1.00  0.00     0.314 C 
HETATM   12  N   UNL     1      19.074  47.728  50.651  1.00  0.00    -0.352 N 
HETATM   13  O   UNL     1      18.594  49.913  50.867  1.00  0.00    -0.248 OA
HETATM   14  H   UNL     1      19.859  47.105  50.532  1.00  0.00     0.160 HD
HETATM   15  H   UNL     1      18.551  47.591  51.507  1.00  0.00     0.160 HD
HETATM   16  H   UNL     1      20.508  48.385  48.886  1.00  0.00     0.165 HD
ENDBRANCH   2  10
ENDBRANCH   1   2
BRANCH   1  17
HETATM   17  C   UNL     1      22.504  49.223  48.285  1.00  0.00     0.219 C 
HETATM   18  N   UNL     1      23.437  49.123  49.289  1.00  0.00    -0.359 N 
HETATM   19  H   UNL     1      23.434  49.884  49.966  1.00  0.00     0.162 HD
HETATM   20  O   UNL     1      22.294  48.300  47.501  1.00  0.00    -0.274 OA
BRANCH  18  21
HETATM   21  C   UNL     1      24.090  47.895  49.740  1.00  0.00     0.150 C 
BRANCH  21  22
HETATM   22  C   UNL     1      25.633  47.805  49.730  1.00  0.00     0.254 C 
BRANCH  22  23
HETATM   23  N   UNL     1      26.191  46.744  50.643  1.00  0.00    -0.065 N 
HETATM   24  H   UNL     1      27.142  47.092  50.873  1.00  0.00     0.280 HD
HETATM   25  C   UNL     1      25.454  46.571  51.951  1.00  0.00     0.274 C 
HETATM   26  C   UNL     1      25.991  45.424  52.740  1.00  0.00    -0.019 A 
HETATM   27  C   UNL     1      26.832  44.477  52.186  1.00  0.00    -0.008 A 
HETATM   28  C   UNL     1      25.726  45.129  54.114  1.00  0.00     0.017 A 
HETATM   29  S   UNL     1      27.298  43.272  53.287  1.00  0.00    -0.106 SA
HETATM   30  C   UNL     1      27.321  44.500  50.774  1.00  0.00     0.074 C 
HETATM   31  C   UNL     1      26.374  43.988  54.536  1.00  0.00     0.051 A 
HETATM   32  C   UNL     1      26.425  45.422  49.928  1.00  0.00     0.240 C 
ENDBRANCH  22  23
ENDBRANCH  21  22
ENDBRANCH  18  21
ENDBRANCH   1  17
TORSDOF 7
ENDMDL
MODEL 8
REMARK VINA RESULT:      -8.1      2.147      3.059
REMARK  7 active torsions:
REMARK  status: ('A' for Active; 'I' for Inactive)
REMARK    1  A    between atoms: C_3  and  C_4 
REMARK    2  A    between atoms: C_4  and  N_5 
REMARK    3  A    between atoms: C_4  and  C_9 
REMARK       I    between atoms: N_5  and  C_6 
REMARK       I    between atoms: C_6  and  N_7 
REMARK    4  A    between atoms: C_9  and  C_10 
REMARK       I    between atoms: C_10  and  N_11 
REMARK    5  A    between atoms: N_11  and  C_12 
REMARK    6  A    between atoms: C_12  and  C_13 
REMARK    7  A    between atoms: C_13  and  N_14 
ROOT
HETATM    1  C   UNL     1      26.122  44.846  52.733  1.00  0.00     0.132 C 
ENDROOT
BRANCH   1   2
HETATM    2  C   UNL     1      27.377  43.962  52.763  1.00  0.00     0.128 C 
BRANCH   2   3
HETATM    3  C   UNL     1      28.321  44.291  53.919  1.00  0.00    -0.029 A 
HETATM    4  C   UNL     1      29.584  43.670  54.064  1.00  0.00    -0.054 A 
HETATM    5  C   UNL     1      30.087  42.629  53.099  1.00  0.00     0.049 C 
HETATM    6  C   UNL     1      30.403  44.017  55.153  1.00  0.00     0.007 A 
HETATM    7  C   UNL     1      29.988  44.957  56.094  1.00  0.00     0.001 A 
HETATM    8  C   UNL     1      28.747  45.564  55.965  1.00  0.00     0.001 A 
HETATM    9  C   UNL     1      27.922  45.233  54.890  1.00  0.00     0.010 A 
ENDBRANCH   2   3
BRANCH   2  10
HETATM   10  N   UNL     1      27.106  42.527  52.718  1.00  0.00    -0.334 N 
HETATM   11  C   UNL     1      26.984  41.789  51.585  1.00  0.00     0.314 C 
HETATM   12  N   UNL     1      26.644  40.500  51.831  1.00  0.00    -0.352 N 
HETATM   13  O   UNL     1      27.198  42.184  50.449  1.00  0.00    -0.248 OA
HETATM   14  H   UNL     1      26.031  40.289  52.603  1.00  0.00     0.160 HD
HETATM   15  H   UNL     1      26.479  39.951  50.996  1.00  0.00     0.160 HD
HETATM   16  H   UNL     1      26.771  42.102  53.569  1.00  0.00     0.165 HD
ENDBRANCH   2  10
ENDBRANCH   1   2
BRANCH   1  17
HETATM   17  C   UNL     1      25.857  45.354  51.336  1.00  0.00     0.219 C 
HETATM   18  N   UNL     1      25.093  44.530  50.544  1.00  0.00    -0.359 N 
HETATM   19  H   UNL     1      24.623  43.769  51.031  1.00  0.00     0.162 HD
HETATM   20  O   UNL     1      26.343  46.397  50.907  1.00  0.00    -0.274 OA
BRANCH  18  21
HETATM   21  C   UNL     1      24.536  44.867  49.235  1.00  0.00     0.150 C 
BRANCH  21  22
HETATM   22  C   UNL     1      23.007  45.029  49.078  1.00  0.00     0.254 C 
BRANCH  22  23
HETATM   23  N   UNL     1      22.532  46.458  49.151  1.00  0.00    -0.065 N 
HETATM   24  H   UNL     1      22.280  46.582  50.151  1.00  0.00     0.280 HD
HETATM   25  C   UNL     1      23.576  47.499  48.823  1.00  0.00     0.274 C 
HETATM   26  C   UNL     1      22.996  48.875  48.799  1.00  0.00    -0.019 A 
HETATM   27  C   UNL     1      21.633  49.099  48.771  1.00  0.00    -0.008 A 
HETATM   28  C   UNL     1      23.717  50.109  48.787  1.00  0.00     0.017 A 
HETATM   29  S   UNL     1      21.228  50.748  48.741  1.00  0.00    -0.106 SA
HETATM   30  C   UNL     1      20.595  48.024  48.793  1.00  0.00     0.074 C 
HETATM   31  C   UNL     1      22.878  51.203  48.756  1.00  0.00     0.051 A 
HETATM   32  C   UNL     1      21.230  46.680  48.395  1.00  0.00     0.240 C 
ENDBRANCH  22  23
ENDBRANCH  21  22
ENDBRANCH  18  21
ENDBRANCH   1  17
TORSDOF 7
ENDMDL
MODEL 9
REMARK VINA RESULT:      -8.0      3.837     10.060
REMARK  7 active torsions:
REMARK  status: ('A' for Active; 'I' for Inactive)
REMARK    1  A    between atoms: C_3  and  C_4 
REMARK    2  A    between atoms: C_4  and  N_5 
REMARK    3  A    between atoms: C_4  and  C_9 
REMARK       I    between atoms: N_5  and  C_6 
REMARK       I    between atoms: C_6  and  N_7 
REMARK    4  A    between atoms: C_9  and  C_10 
REMARK       I    between atoms: C_10  and  N_11 
REMARK    5  A    between atoms: N_11  and  C_12 
REMARK    6  A    between atoms: C_12  and  C_13 
REMARK    7  A    between atoms: C_13  and  N_14 
ROOT
HETATM    1  C   UNL     1      22.384  48.632  48.215  1.00  0.00     0.132 C 
ENDROOT
BRANCH   1   2
HETATM    2  C   UNL     1      21.040  48.403  48.922  1.00  0.00     0.128 C 
BRANCH   2   3
HETATM    3  C   UNL     1      20.224  49.684  49.098  1.00  0.00    -0.029 A 
HETATM    4  C   UNL     1      19.155  49.777  50.019  1.00  0.00    -0.054 A 
HETATM    5  C   UNL     1      18.731  48.621  50.886  1.00  0.00     0.049 C 
HETATM    6  C   UNL     1      18.443  50.985  50.130  1.00  0.00     0.007 A 
HETATM    7  C   UNL     1      18.769  52.087  49.342  1.00  0.00     0.001 A 
HETATM    8  C   UNL     1      19.810  52.000  48.428  1.00  0.00     0.001 A 
HETATM    9  C   UNL     1      20.528  50.811  48.306  1.00  0.00     0.010 A 
ENDBRANCH   2   3
BRANCH   2  10
HETATM   10  N   UNL     1      20.218  47.352  48.330  1.00  0.00    -0.334 N 
HETATM   11  C   UNL     1      20.541  46.033  48.294  1.00  0.00     0.314 C 
HETATM   12  N   UNL     1      19.642  45.289  47.606  1.00  0.00    -0.352 N 
HETATM   13  O   UNL     1      21.500  45.517  48.850  1.00  0.00    -0.248 OA
HETATM   14  H   UNL     1      19.183  45.687  46.801  1.00  0.00     0.160 HD
HETATM   15  H   UNL     1      19.902  44.315  47.507  1.00  0.00     0.160 HD
HETATM   16  H   UNL     1      19.474  47.648  47.717  1.00  0.00     0.165 HD
ENDBRANCH   2  10
ENDBRANCH   1   2
BRANCH   1  17
HETATM   17  C   UNL     1      23.520  48.635  49.210  1.00  0.00     0.219 C 
HETATM   18  N   UNL     1      23.670  47.478  49.938  1.00  0.00    -0.359 N 
HETATM   19  H   UNL     1      23.138  46.678  49.600  1.00  0.00     0.162 HD
HETATM   20  O   UNL     1      24.223  49.622  49.411  1.00  0.00    -0.274 OA
BRANCH  18  21
HETATM   21  C   UNL     1      24.792  47.152  50.816  1.00  0.00     0.150 C 
BRANCH  21  22
HETATM   22  C   UNL     1      24.834  45.776  51.518  1.00  0.00     0.254 C 
BRANCH  22  23
HETATM   23  N   UNL     1      26.096  45.526  52.303  1.00  0.00    -0.065 N 
HETATM   24  H   UNL     1      26.844  45.909  51.693  1.00  0.00     0.280 HD
HETATM   25  C   UNL     1      26.184  46.254  53.624  1.00  0.00     0.274 C 
HETATM   26  C   UNL     1      27.403  45.859  54.392  1.00  0.00    -0.019 A 
HETATM   27  C   UNL     1      28.157  44.749  54.058  1.00  0.00    -0.008 A 
HETATM   28  C   UNL     1      27.946  46.520  55.537  1.00  0.00     0.017 A 
HETATM   29  S   UNL     1      29.486  44.512  55.088  1.00  0.00    -0.106 SA
HETATM   30  C   UNL     1      27.873  43.848  52.900  1.00  0.00     0.074 C 
HETATM   31  C   UNL     1      29.077  45.892  56.014  1.00  0.00     0.051 A 
HETATM   32  C   UNL     1      26.421  44.045  52.431  1.00  0.00     0.240 C 
ENDBRANCH  22  23
ENDBRANCH  21  22
ENDBRANCH  18  21
ENDBRANCH   1  17
TORSDOF 7
ENDMDL
MODEL 10
REMARK VINA RESULT:      -7.8      5.245      6.728
REMARK  7 active torsions:
REMARK  status: ('A' for Active; 'I' for Inactive)
REMARK    1  A    between atoms: C_3  and  C_4 
REMARK    2  A    between atoms: C_4  and  N_5 
REMARK    3  A    between atoms: C_4  and  C_9 
REMARK       I    between atoms: N_5  and  C_6 
REMARK       I    between atoms: C_6  and  N_7 
REMARK    4  A    between atoms: C_9  and  C_10 
REMARK       I    between atoms: C_10  and  N_11 
REMARK    5  A    between atoms: N_11  and  C_12 
REMARK    6  A    between atoms: C_12  and  C_13 
REMARK    7  A    between atoms: C_13  and  N_14 
ROOT
HETATM    1  C   UNL     1      27.578  41.803  53.703  1.00  0.00     0.132 C 
ENDROOT
BRANCH   1   2
HETATM    2  C   UNL     1      27.722  43.327  53.586  1.00  0.00     0.128 C 
BRANCH   2   3
HETATM    3  C   UNL     1      28.782  43.908  54.522  1.00  0.00    -0.029 A 
HETATM    4  C   UNL     1      28.652  45.188  55.108  1.00  0.00    -0.054 A 
HETATM    5  C   UNL     1      27.469  46.081  54.844  1.00  0.00     0.049 C 
HETATM    6  C   UNL     1      29.665  45.664  55.959  1.00  0.00     0.007 A 
HETATM    7  C   UNL     1      30.797  44.898  56.228  1.00  0.00     0.001 A 
HETATM    8  C   UNL     1      30.937  43.645  55.649  1.00  0.00     0.001 A 
HETATM    9  C   UNL     1      29.942  43.156  54.804  1.00  0.00     0.010 A 
ENDBRANCH   2   3
BRANCH   2  10
HETATM   10  N   UNL     1      27.926  43.811  52.223  1.00  0.00    -0.334 N 
HETATM   11  C   UNL     1      26.983  44.424  51.461  1.00  0.00     0.314 C 
HETATM   12  N   UNL     1      27.413  44.689  50.204  1.00  0.00    -0.352 N 
HETATM   13  O   UNL     1      25.873  44.767  51.839  1.00  0.00    -0.248 OA
HETATM   14  H   UNL     1      28.044  44.046  49.751  1.00  0.00     0.160 HD
HETATM   15  H   UNL     1      26.702  45.082  49.599  1.00  0.00     0.160 HD
HETATM   16  H   UNL     1      28.743  43.472  51.738  1.00  0.00     0.165 HD
ENDBRANCH   2  10
ENDBRANCH   1   2
BRANCH   1  17
HETATM   17  C   UNL     1      27.803  41.138  52.367  1.00  0.00     0.219 C 
HETATM   18  N   UNL     1      26.676  40.642  51.757  1.00  0.00    -0.359 N 
HETATM   19  H   UNL     1      25.792  40.942  52.162  1.00  0.00     0.162 HD
HETATM   20  O   UNL     1      28.923  40.986  51.883  1.00  0.00    -0.274 OA
BRANCH  18  21
HETATM   21  C   UNL     1      26.590  40.131  50.389  1.00  0.00     0.150 C 
BRANCH  21  22
HETATM   22  C   UNL     1      26.664  41.119  49.202  1.00  0.00     0.254 C 
BRANCH  22  23
HETATM   23  N   UNL     1      26.782  40.451  47.857  1.00  0.00    -0.065 N 
HETATM   24  H   UNL     1      25.853  40.609  47.421  1.00  0.00     0.280 HD
HETATM   25  C   UNL     1      27.814  41.051  46.931  1.00  0.00     0.274 C 
HETATM   26  C   UNL     1      27.954  40.261  45.672  1.00  0.00    -0.019 A 
HETATM   27  C   UNL     1      27.431  38.988  45.539  1.00  0.00    -0.008 A 
HETATM   28  C   UNL     1      28.626  40.665  44.476  1.00  0.00     0.017 A 
HETATM   29  S   UNL     1      27.730  38.300  44.016  1.00  0.00    -0.106 SA
HETATM   30  C   UNL     1      26.653  38.276  46.598  1.00  0.00     0.074 C 
HETATM   31  C   UNL     1      28.579  39.693  43.499  1.00  0.00     0.051 A 
HETATM   32  C   UNL     1      26.906  38.938  47.963  1.00  0.00     0.240 C 
ENDBRANCH  22  23
ENDBRANCH  21  22
ENDBRANCH  18  21
ENDBRANCH   1  17
TORSDOF 7
ENDMDL
