MODEL 1
REMARK VINA RESULT:      -9.3      0.000      0.000
REMARK  3 active torsions:
REMARK  status: ('A' for Active; 'I' for Inactive)
REMARK    1  A    between atoms: C_6  and  N_7 
REMARK       I    between atoms: N_7  and  C_8 
REMARK    2  A    between atoms: C_8  and  C_9 
REMARK    3  A    between atoms: C_9  and  C_10 
ROOT
HETATM    1  C   UNL     1      26.740  46.152  53.672  1.00  0.00     0.286 C 
HETATM    2  N   UNL     1      27.616  44.900  53.507  1.00  0.00    -0.056 N 
HETATM    3  H   UNL     1      26.979  44.087  53.384  1.00  0.00     0.278 HD
HETATM    4  H   UNL     1      28.168  44.971  52.644  1.00  0.00     0.278 HD
HETATM    5  C   UNL     1      28.476  44.534  54.688  1.00  0.00     0.209 C 
HETATM    6  C   UNL     1      29.110  45.801  55.291  1.00  0.00     0.115 C 
HETATM    7  N   UNL     1      28.070  46.725  55.705  1.00  0.00    -0.353 N 
HETATM    8  C   UNL     1      26.938  46.960  54.972  1.00  0.00     0.249 C 
HETATM    9  O   UNL     1      26.151  47.830  55.333  1.00  0.00    -0.271 OA
HETATM   10  C   UNL     1      29.529  43.521  54.251  1.00  0.00     0.035 C 
HETATM   11  C   UNL     1      30.439  43.157  55.423  1.00  0.00     0.002 C 
HETATM   12  C   UNL     1      31.066  44.395  56.061  1.00  0.00     0.002 C 
HETATM   13  C   UNL     1      30.018  45.430  56.466  1.00  0.00     0.027 C 
HETATM   14  H   UNL     1      28.217  47.357  56.490  1.00  0.00     0.163 HD
ENDROOT
BRANCH   1  15
HETATM   15  C   UNL     1      25.254  45.861  53.410  1.00  0.00     0.146 C 
BRANCH  15  16
HETATM   16  C   UNL     1      25.083  44.938  52.229  1.00  0.00     0.224 C 
HETATM   17  N   UNL     1      25.227  45.296  50.934  1.00  0.00    -0.327 N 
HETATM   18  H   UNL     1      25.300  44.480  50.333  1.00  0.00     0.169 HD
HETATM   19  O   UNL     1      24.914  43.734  52.484  1.00  0.00    -0.273 OA
BRANCH  17  20
HETATM   20  C   UNL     1      25.285  46.521  50.246  1.00  0.00     0.035 A 
HETATM   21  C   UNL     1      26.438  47.264  50.007  1.00  0.00     0.037 A 
HETATM   22  C   UNL     1      26.390  48.494  49.319  1.00  0.00    -0.054 A 
HETATM   23  C   UNL     1      25.155  48.992  48.869  1.00  0.00    -0.056 A 
HETATM   24  C   UNL     1      27.673  49.244  49.068  1.00  0.00     0.049 C 
HETATM   25  C   UNL     1      25.049  50.301  48.134  1.00  0.00     0.049 C 
HETATM   26  C   UNL     1      23.992  48.270  49.152  1.00  0.00     0.009 A 
HETATM   27  C   UNL     1      24.057  47.053  49.836  1.00  0.00     0.030 A 
ENDBRANCH  17  20
ENDBRANCH  15  16
ENDBRANCH   1  15
TORSDOF 3
ENDMDL
MODEL 2
REMARK VINA RESULT:      -9.0      2.240      7.652
REMARK  3 active torsions:
REMARK  status: ('A' for Active; 'I' for Inactive)
REMARK    1  A    between atoms: C_6  and  N_7 
REMARK       I    between atoms: N_7  and  C_8 
REMARK    2  A    between atoms: C_8  and  C_9 
REMARK    3  A    between atoms: C_9  and  C_10 
ROOT
HETATM    1  C   UNL     1      26.031  47.522  50.058  1.00  0.00     0.286 C 
HETATM    2  N   UNL     1      24.503  47.417  49.931  1.00  0.00    -0.056 N 
HETATM    3  H   UNL     1      24.278  46.441  49.655  1.00  0.00     0.278 HD
HETATM    4  H   UNL     1      24.066  47.568  50.848  1.00  0.00     0.278 HD
HETATM    5  C   UNL     1      23.868  48.270  48.865  1.00  0.00     0.209 C 
HETATM    6  C   UNL     1      24.514  49.668  48.855  1.00  0.00     0.115 C 
HETATM    7  N   UNL     1      25.939  49.553  48.610  1.00  0.00    -0.353 N 
HETATM    8  C   UNL     1      26.722  48.579  49.171  1.00  0.00     0.249 C 
HETATM    9  O   UNL     1      27.937  48.604  49.000  1.00  0.00    -0.271 OA
HETATM   10  C   UNL     1      22.363  48.337  49.102  1.00  0.00     0.035 C 
HETATM   11  C   UNL     1      21.695  49.226  48.054  1.00  0.00     0.002 C 
HETATM   12  C   UNL     1      22.329  50.615  48.001  1.00  0.00     0.002 C 
HETATM   13  C   UNL     1      23.843  50.553  47.800  1.00  0.00     0.027 C 
HETATM   14  H   UNL     1      26.447  50.293  48.128  1.00  0.00     0.163 HD
ENDROOT
BRANCH   1  15
HETATM   15  C   UNL     1      26.719  46.152  49.942  1.00  0.00     0.146 C 
BRANCH  15  16
HETATM   16  C   UNL     1      25.894  45.074  50.598  1.00  0.00     0.224 C 
HETATM   17  N   UNL     1      26.009  44.681  51.885  1.00  0.00    -0.327 N 
HETATM   18  H   UNL     1      25.210  44.121  52.172  1.00  0.00     0.169 HD
HETATM   19  O   UNL     1      24.961  44.601  49.927  1.00  0.00    -0.273 OA
BRANCH  17  20
HETATM   20  C   UNL     1      26.973  44.860  52.894  1.00  0.00     0.035 A 
HETATM   21  C   UNL     1      28.020  43.989  53.179  1.00  0.00     0.037 A 
HETATM   22  C   UNL     1      28.929  44.250  54.226  1.00  0.00    -0.054 A 
HETATM   23  C   UNL     1      28.775  45.409  55.007  1.00  0.00    -0.056 A 
HETATM   24  C   UNL     1      30.057  43.284  54.475  1.00  0.00     0.049 C 
HETATM   25  C   UNL     1      29.714  45.731  56.138  1.00  0.00     0.049 C 
HETATM   26  C   UNL     1      27.695  46.259  54.751  1.00  0.00     0.009 A 
HETATM   27  C   UNL     1      26.803  45.984  53.711  1.00  0.00     0.030 A 
ENDBRANCH  17  20
ENDBRANCH  15  16
ENDBRANCH   1  15
TORSDOF 3
ENDMDL
MODEL 3
REMARK VINA RESULT:      -8.7      2.386      7.820
REMARK  3 active torsions:
REMARK  status: ('A' for Active; 'I' for Inactive)
REMARK    1  A    between atoms: C_6  and  N_7 
REMARK       I    between atoms: N_7  and  C_8 
REMARK    2  A    between atoms: C_8  and  C_9 
REMARK    3  A    between atoms: C_9  and  C_10 
ROOT
HETATM    1  C   UNL     1      25.611  45.747  49.864  1.00  0.00     0.286 C 
HETATM    2  N   UNL     1      25.914  47.198  49.458  1.00  0.00    -0.056 N 
HETATM    3  H   UNL     1      26.581  47.585  50.156  1.00  0.00     0.278 HD
HETATM    4  H   UNL     1      26.400  47.213  48.553  1.00  0.00     0.278 HD
HETATM    5  C   UNL     1      24.747  48.148  49.479  1.00  0.00     0.209 C 
HETATM    6  C   UNL     1      23.500  47.464  48.889  1.00  0.00     0.115 C 
HETATM    7  N   UNL     1      23.181  46.273  49.653  1.00  0.00    -0.353 N 
HETATM    8  C   UNL     1      24.129  45.402  50.119  1.00  0.00     0.249 C 
HETATM    9  O   UNL     1      23.780  44.363  50.670  1.00  0.00    -0.271 OA
HETATM   10  C   UNL     1      25.116  49.418  48.720  1.00  0.00     0.035 C 
HETATM   11  C   UNL     1      23.936  50.389  48.695  1.00  0.00     0.002 C 
HETATM   12  C   UNL     1      22.674  49.733  48.136  1.00  0.00     0.002 C 
HETATM   13  C   UNL     1      22.320  48.440  48.870  1.00  0.00     0.027 C 
HETATM   14  H   UNL     1      22.218  45.953  49.742  1.00  0.00     0.163 HD
ENDROOT
BRANCH   1  15
HETATM   15  C   UNL     1      26.509  45.265  51.015  1.00  0.00     0.146 C 
BRANCH  15  16
HETATM   16  C   UNL     1      27.265  44.019  50.628  1.00  0.00     0.224 C 
HETATM   17  N   UNL     1      28.068  43.309  51.450  1.00  0.00    -0.327 N 
HETATM   18  H   UNL     1      28.280  42.396  51.058  1.00  0.00     0.169 HD
HETATM   19  O   UNL     1      27.030  43.553  49.501  1.00  0.00    -0.273 OA
BRANCH  17  20
HETATM   20  C   UNL     1      28.674  43.552  52.696  1.00  0.00     0.035 A 
HETATM   21  C   UNL     1      28.256  44.496  53.631  1.00  0.00     0.037 A 
HETATM   22  C   UNL     1      28.943  44.676  54.850  1.00  0.00    -0.054 A 
HETATM   23  C   UNL     1      30.078  43.896  55.130  1.00  0.00    -0.056 A 
HETATM   24  C   UNL     1      28.432  45.696  55.835  1.00  0.00     0.049 C 
HETATM   25  C   UNL     1      30.848  44.052  56.414  1.00  0.00     0.049 C 
HETATM   26  C   UNL     1      30.525  42.983  54.171  1.00  0.00     0.009 A 
HETATM   27  C   UNL     1      29.834  42.818  52.968  1.00  0.00     0.030 A 
ENDBRANCH  17  20
ENDBRANCH  15  16
ENDBRANCH   1  15
TORSDOF 3
ENDMDL
MODEL 4
REMARK VINA RESULT:      -8.7      1.858      7.695
REMARK  3 active torsions:
REMARK  status: ('A' for Active; 'I' for Inactive)
REMARK    1  A    between atoms: C_6  and  N_7 
REMARK       I    between atoms: N_7  and  C_8 
REMARK    2  A    between atoms: C_8  and  C_9 
REMARK    3  A    between atoms: C_9  and  C_10 
ROOT
HETATM    1  C   UNL     1      26.189  45.295  51.048  1.00  0.00     0.286 C 
HETATM    2  N   UNL     1      26.562  46.631  50.388  1.00  0.00    -0.056 N 
HETATM    3  H   UNL     1      27.173  47.148  51.053  1.00  0.00     0.278 HD
HETATM    4  H   UNL     1      27.127  46.460  49.547  1.00  0.00     0.278 HD
HETATM    5  C   UNL     1      25.421  47.573  50.108  1.00  0.00     0.209 C 
HETATM    6  C   UNL     1      24.216  46.790  49.554  1.00  0.00     0.115 C 
HETATM    7  N   UNL     1      23.800  45.781  50.510  1.00  0.00    -0.353 N 
HETATM    8  C   UNL     1      24.681  45.017  51.228  1.00  0.00     0.249 C 
HETATM    9  O   UNL     1      24.259  44.113  51.943  1.00  0.00    -0.271 OA
HETATM   10  C   UNL     1      25.888  48.660  49.147  1.00  0.00     0.035 C 
HETATM   11  C   UNL     1      24.739  49.612  48.817  1.00  0.00     0.002 C 
HETATM   12  C   UNL     1      23.516  48.864  48.287  1.00  0.00     0.002 C 
HETATM   13  C   UNL     1      23.067  47.749  49.230  1.00  0.00     0.027 C 
HETATM   14  H   UNL     1      22.826  45.491  50.572  1.00  0.00     0.163 HD
ENDROOT
BRANCH   1  15
HETATM   15  C   UNL     1      26.967  45.052  52.351  1.00  0.00     0.146 C 
BRANCH  15  16
HETATM   16  C   UNL     1      27.877  43.856  52.223  1.00  0.00     0.224 C 
HETATM   17  N   UNL     1      28.729  43.421  53.177  1.00  0.00    -0.327 N 
HETATM   18  H   UNL     1      29.061  42.482  52.974  1.00  0.00     0.169 HD
HETATM   19  O   UNL     1      27.737  43.156  51.206  1.00  0.00    -0.273 OA
BRANCH  17  20
HETATM   20  C   UNL     1      29.258  43.972  54.358  1.00  0.00     0.035 A 
HETATM   21  C   UNL     1      30.295  43.430  55.112  1.00  0.00     0.037 A 
HETATM   22  C   UNL     1      30.745  44.051  56.296  1.00  0.00    -0.054 A 
HETATM   23  C   UNL     1      30.133  45.238  56.735  1.00  0.00    -0.056 A 
HETATM   24  C   UNL     1      31.888  43.433  57.060  1.00  0.00     0.049 C 
HETATM   25  C   UNL     1      30.572  45.937  57.993  1.00  0.00     0.049 C 
HETATM   26  C   UNL     1      29.059  45.755  56.003  1.00  0.00     0.009 A 
HETATM   27  C   UNL     1      28.626  45.126  54.834  1.00  0.00     0.030 A 
ENDBRANCH  17  20
ENDBRANCH  15  16
ENDBRANCH   1  15
TORSDOF 3
ENDMDL
MODEL 5
REMARK VINA RESULT:      -8.7      2.168      7.729
REMARK  3 active torsions:
REMARK  status: ('A' for Active; 'I' for Inactive)
REMARK    1  A    between atoms: C_6  and  N_7 
REMARK       I    between atoms: N_7  and  C_8 
REMARK    2  A    between atoms: C_8  and  C_9 
REMARK    3  A    between atoms: C_9  and  C_10 
ROOT
HETATM    1  C   UNL     1      24.638  46.034  50.910  1.00  0.00     0.286 C 
HETATM    2  N   UNL     1      23.442  45.600  50.049  1.00  0.00    -0.056 N 
HETATM    3  H   UNL     1      23.686  44.690  49.610  1.00  0.00     0.278 HD
HETATM    4  H   UNL     1      22.626  45.425  50.648  1.00  0.00     0.278 HD
HETATM    5  C   UNL     1      23.098  46.500  48.891  1.00  0.00     0.209 C 
HETATM    6  C   UNL     1      23.198  47.974  49.322  1.00  0.00     0.115 C 
HETATM    7  N   UNL     1      24.540  48.263  49.791  1.00  0.00    -0.353 N 
HETATM    8  C   UNL     1      25.266  47.403  50.570  1.00  0.00     0.249 C 
HETATM    9  O   UNL     1      26.355  47.756  51.013  1.00  0.00    -0.271 OA
HETATM   10  C   UNL     1      21.708  46.148  48.373  1.00  0.00     0.035 C 
HETATM   11  C   UNL     1      21.319  47.069  47.218  1.00  0.00     0.002 C 
HETATM   12  C   UNL     1      21.430  48.543  47.605  1.00  0.00     0.002 C 
HETATM   13  C   UNL     1      22.810  48.893  48.160  1.00  0.00     0.027 C 
HETATM   14  H   UNL     1      24.940  49.194  49.685  1.00  0.00     0.163 HD
ENDROOT
BRANCH   1  15
HETATM   15  C   UNL     1      25.706  44.934  51.018  1.00  0.00     0.146 C 
BRANCH  15  16
HETATM   16  C   UNL     1      25.204  43.770  51.835  1.00  0.00     0.224 C 
HETATM   17  N   UNL     1      25.745  43.345  52.998  1.00  0.00    -0.327 N 
HETATM   18  H   UNL     1      25.117  42.712  53.486  1.00  0.00     0.169 HD
HETATM   19  O   UNL     1      24.142  43.245  51.462  1.00  0.00    -0.273 OA
BRANCH  17  20
HETATM   20  C   UNL     1      26.963  43.569  53.664  1.00  0.00     0.035 A 
HETATM   21  C   UNL     1      27.327  44.744  54.317  1.00  0.00     0.037 A 
HETATM   22  C   UNL     1      28.583  44.877  54.945  1.00  0.00    -0.054 A 
HETATM   23  C   UNL     1      29.496  43.809  54.906  1.00  0.00    -0.056 A 
HETATM   24  C   UNL     1      28.914  46.163  55.657  1.00  0.00     0.049 C 
HETATM   25  C   UNL     1      30.851  43.902  55.556  1.00  0.00     0.049 C 
HETATM   26  C   UNL     1      29.150  42.648  54.209  1.00  0.00     0.009 A 
HETATM   27  C   UNL     1      27.901  42.533  53.592  1.00  0.00     0.030 A 
ENDBRANCH  17  20
ENDBRANCH  15  16
ENDBRANCH   1  15
TORSDOF 3
ENDMDL
MODEL 6
REMARK VINA RESULT:      -8.5      2.116      6.931
REMARK  3 active torsions:
REMARK  status: ('A' for Active; 'I' for Inactive)
REMARK    1  A    between atoms: C_6  and  N_7 
REMARK       I    between atoms: N_7  and  C_8 
REMARK    2  A    between atoms: C_8  and  C_9 
REMARK    3  A    between atoms: C_9  and  C_10 
ROOT
HETATM    1  C   UNL     1      26.292  42.879  52.759  1.00  0.00     0.286 C 
HETATM    2  N   UNL     1      26.640  43.453  51.376  1.00  0.00    -0.056 N 
HETATM    3  H   UNL     1      27.608  43.149  51.146  1.00  0.00     0.278 HD
HETATM    4  H   UNL     1      26.028  43.040  50.662  1.00  0.00     0.278 HD
HETATM    5  C   UNL     1      26.678  44.955  51.273  1.00  0.00     0.209 C 
HETATM    6  C   UNL     1      25.495  45.566  52.047  1.00  0.00     0.115 C 
HETATM    7  N   UNL     1      25.556  45.164  53.440  1.00  0.00    -0.353 N 
HETATM    8  C   UNL     1      25.897  43.902  53.845  1.00  0.00     0.249 C 
HETATM    9  O   UNL     1      25.828  43.605  55.034  1.00  0.00    -0.271 OA
HETATM   10  C   UNL     1      26.671  45.361  49.804  1.00  0.00     0.035 C 
HETATM   11  C   UNL     1      26.674  46.883  49.669  1.00  0.00     0.002 C 
HETATM   12  C   UNL     1      25.525  47.524  50.447  1.00  0.00     0.002 C 
HETATM   13  C   UNL     1      25.506  47.091  51.912  1.00  0.00     0.027 C 
HETATM   14  H   UNL     1      25.193  45.771  54.174  1.00  0.00     0.163 HD
ENDROOT
BRANCH   1  15
HETATM   15  C   UNL     1      27.362  41.900  53.268  1.00  0.00     0.146 C 
BRANCH  15  16
HETATM   16  C   UNL     1      28.684  42.137  52.582  1.00  0.00     0.224 C 
HETATM   17  N   UNL     1      29.766  42.710  53.153  1.00  0.00    -0.327 N 
HETATM   18  H   UNL     1      30.602  42.556  52.595  1.00  0.00     0.169 HD
HETATM   19  O   UNL     1      28.814  41.659  51.443  1.00  0.00    -0.273 OA
BRANCH  17  20
HETATM   20  C   UNL     1      29.987  43.467  54.318  1.00  0.00     0.035 A 
HETATM   21  C   UNL     1      30.871  43.140  55.342  1.00  0.00     0.037 A 
HETATM   22  C   UNL     1      31.010  43.959  56.482  1.00  0.00    -0.054 A 
HETATM   23  C   UNL     1      30.237  45.127  56.598  1.00  0.00    -0.056 A 
HETATM   24  C   UNL     1      32.000  43.569  57.549  1.00  0.00     0.049 C 
HETATM   25  C   UNL     1      30.344  46.033  57.795  1.00  0.00     0.049 C 
HETATM   26  C   UNL     1      29.314  45.430  55.592  1.00  0.00     0.009 A 
HETATM   27  C   UNL     1      29.188  44.606  54.470  1.00  0.00     0.030 A 
ENDBRANCH  17  20
ENDBRANCH  15  16
ENDBRANCH   1  15
TORSDOF 3
ENDMDL
MODEL 7
REMARK VINA RESULT:      -8.3      4.058      7.801
REMARK  3 active torsions:
REMARK  status: ('A' for Active; 'I' for Inactive)
REMARK    1  A    between atoms: C_6  and  N_7 
REMARK       I    between atoms: N_7  and  C_8 
REMARK    2  A    between atoms: C_8  and  C_9 
REMARK    3  A    between atoms: C_9  and  C_10 
ROOT
HETATM    1  C   UNL     1      27.306  42.583  50.980  1.00  0.00     0.286 C 
HETATM    2  N   UNL     1      28.035  41.242  51.161  1.00  0.00    -0.056 N 
HETATM    3  H   UNL     1      28.938  41.439  51.637  1.00  0.00     0.278 HD
HETATM    4  H   UNL     1      27.498  40.636  51.794  1.00  0.00     0.278 HD
HETATM    5  C   UNL     1      28.420  40.522  49.896  1.00  0.00     0.209 C 
HETATM    6  C   UNL     1      27.272  40.603  48.873  1.00  0.00     0.115 C 
HETATM    7  N   UNL     1      26.969  41.991  48.578  1.00  0.00    -0.353 N 
HETATM    8  C   UNL     1      26.939  42.973  49.532  1.00  0.00     0.249 C 
HETATM    9  O   UNL     1      26.576  44.105  49.228  1.00  0.00    -0.271 OA
HETATM   10  C   UNL     1      28.789  39.081  50.228  1.00  0.00     0.035 C 
HETATM   11  C   UNL     1      29.152  38.315  48.956  1.00  0.00     0.002 C 
HETATM   12  C   UNL     1      28.043  38.396  47.909  1.00  0.00     0.002 C 
HETATM   13  C   UNL     1      27.643  39.838  47.600  1.00  0.00     0.027 C 
HETATM   14  H   UNL     1      26.612  42.264  47.665  1.00  0.00     0.163 HD
ENDROOT
BRANCH   1  15
HETATM   15  C   UNL     1      28.015  43.734  51.712  1.00  0.00     0.146 C 
BRANCH  15  16
HETATM   16  C   UNL     1      27.099  44.379  52.721  1.00  0.00     0.224 C 
HETATM   17  N   UNL     1      27.464  44.781  53.958  1.00  0.00    -0.327 N 
HETATM   18  H   UNL     1      26.763  45.392  54.369  1.00  0.00     0.169 HD
HETATM   19  O   UNL     1      25.954  44.664  52.332  1.00  0.00    -0.273 OA
BRANCH  17  20
HETATM   20  C   UNL     1      28.571  44.540  54.792  1.00  0.00     0.035 A 
HETATM   21  C   UNL     1      28.994  45.358  55.836  1.00  0.00     0.037 A 
HETATM   22  C   UNL     1      30.131  45.036  56.607  1.00  0.00    -0.054 A 
HETATM   23  C   UNL     1      30.861  43.871  56.316  1.00  0.00    -0.056 A 
HETATM   24  C   UNL     1      30.530  45.946  57.740  1.00  0.00     0.049 C 
HETATM   25  C   UNL     1      32.083  43.485  57.105  1.00  0.00     0.049 C 
HETATM   26  C   UNL     1      30.464  43.076  55.236  1.00  0.00     0.009 A 
HETATM   27  C   UNL     1      29.337  43.410  54.483  1.00  0.00     0.030 A 
ENDBRANCH  17  20
ENDBRANCH  15  16
ENDBRANCH   1  15
TORSDOF 3
ENDMDL
MODEL 8
REMARK VINA RESULT:      -8.1      2.306      4.170
REMARK  3 active torsions:
REMARK  status: ('A' for Active; 'I' for Inactive)
REMARK    1  A    between atoms: C_6  and  N_7 
REMARK       I    between atoms: N_7  and  C_8 
REMARK    2  A    between atoms: C_8  and  C_9 
REMARK    3  A    between atoms: C_9  and  C_10 
ROOT
HETATM    1  C   UNL     1      24.727  45.382  51.492  1.00  0.00     0.286 C 
HETATM    2  N   UNL     1      25.245  46.555  52.337  1.00  0.00    -0.056 N 
HETATM    3  H   UNL     1      25.442  47.344  51.690  1.00  0.00     0.278 HD
HETATM    4  H   UNL     1      24.507  46.879  52.974  1.00  0.00     0.278 HD
HETATM    5  C   UNL     1      26.544  46.325  53.063  1.00  0.00     0.209 C 
HETATM    6  C   UNL     1      26.562  44.912  53.676  1.00  0.00     0.115 C 
HETATM    7  N   UNL     1      26.397  43.919  52.632  1.00  0.00    -0.353 N 
HETATM    8  C   UNL     1      25.525  44.064  51.586  1.00  0.00     0.249 C 
HETATM    9  O   UNL     1      25.364  43.139  50.796  1.00  0.00    -0.271 OA
HETATM   10  C   UNL     1      26.731  47.409  54.120  1.00  0.00     0.035 C 
HETATM   11  C   UNL     1      28.027  47.180  54.897  1.00  0.00     0.002 C 
HETATM   12  C   UNL     1      28.088  45.777  55.498  1.00  0.00     0.002 C 
HETATM   13  C   UNL     1      27.864  44.688  54.450  1.00  0.00     0.027 C 
HETATM   14  H   UNL     1      26.816  42.995  52.720  1.00  0.00     0.163 HD
ENDROOT
BRANCH   1  15
HETATM   15  C   UNL     1      24.474  45.785  50.030  1.00  0.00     0.146 C 
BRANCH  15  16
HETATM   16  C   UNL     1      25.475  46.816  49.572  1.00  0.00     0.224 C 
HETATM   17  N   UNL     1      25.196  48.117  49.332  1.00  0.00    -0.327 N 
HETATM   18  H   UNL     1      26.048  48.669  49.266  1.00  0.00     0.169 HD
HETATM   19  O   UNL     1      26.663  46.459  49.531  1.00  0.00    -0.273 OA
BRANCH  17  20
HETATM   20  C   UNL     1      24.017  48.859  49.145  1.00  0.00     0.035 A 
HETATM   21  C   UNL     1      22.721  48.378  49.307  1.00  0.00     0.037 A 
HETATM   22  C   UNL     1      21.598  49.200  49.078  1.00  0.00    -0.054 A 
HETATM   23  C   UNL     1      21.783  50.532  48.669  1.00  0.00    -0.056 A 
HETATM   24  C   UNL     1      20.218  48.633  49.293  1.00  0.00     0.049 C 
HETATM   25  C   UNL     1      20.618  51.449  48.408  1.00  0.00     0.049 C 
HETATM   26  C   UNL     1      23.083  51.000  48.459  1.00  0.00     0.009 A 
HETATM   27  C   UNL     1      24.184  50.172  48.689  1.00  0.00     0.030 A 
ENDBRANCH  17  20
ENDBRANCH  15  16
ENDBRANCH   1  15
TORSDOF 3
ENDMDL
MODEL 9
REMARK VINA RESULT:      -8.0      4.764      8.108
REMARK  3 active torsions:
REMARK  status: ('A' for Active; 'I' for Inactive)
REMARK    1  A    between atoms: C_6  and  N_7 
REMARK       I    between atoms: N_7  and  C_8 
REMARK    2  A    between atoms: C_8  and  C_9 
REMARK    3  A    between atoms: C_9  and  C_10 
ROOT
HETATM    1  C   UNL     1      27.960  41.537  50.781  1.00  0.00     0.286 C 
HETATM    2  N   UNL     1      27.248  41.468  49.421  1.00  0.00    -0.056 N 
HETATM    3  H   UNL     1      26.240  41.665  49.585  1.00  0.00     0.278 HD
HETATM    4  H   UNL     1      27.594  42.216  48.807  1.00  0.00     0.278 HD
HETATM    5  C   UNL     1      27.266  40.130  48.731  1.00  0.00     0.209 C 
HETATM    6  C   UNL     1      28.659  39.488  48.866  1.00  0.00     0.115 C 
HETATM    7  N   UNL     1      28.995  39.325  50.268  1.00  0.00    -0.353 N 
HETATM    8  C   UNL     1      28.720  40.268  51.221  1.00  0.00     0.249 C 
HETATM    9  O   UNL     1      29.123  40.107  52.369  1.00  0.00    -0.271 OA
HETATM   10  C   UNL     1      26.857  40.308  47.273  1.00  0.00     0.035 C 
HETATM   11  C   UNL     1      26.901  38.969  46.538  1.00  0.00     0.002 C 
HETATM   12  C   UNL     1      28.264  38.292  46.672  1.00  0.00     0.002 C 
HETATM   13  C   UNL     1      28.695  38.145  48.130  1.00  0.00     0.027 C 
HETATM   14  H   UNL     1      29.594  38.560  50.575  1.00  0.00     0.163 HD
ENDROOT
BRANCH   1  15
HETATM   15  C   UNL     1      27.037  42.057  51.895  1.00  0.00     0.146 C 
BRANCH  15  16
HETATM   16  C   UNL     1      26.927  43.560  51.849  1.00  0.00     0.224 C 
HETATM   17  N   UNL     1      27.709  44.419  52.540  1.00  0.00    -0.327 N 
HETATM   18  H   UNL     1      27.619  45.367  52.183  1.00  0.00     0.169 HD
HETATM   19  O   UNL     1      26.132  44.036  51.021  1.00  0.00    -0.273 OA
BRANCH  17  20
HETATM   20  C   UNL     1      28.594  44.298  53.626  1.00  0.00     0.035 A 
HETATM   21  C   UNL     1      28.621  45.125  54.746  1.00  0.00     0.037 A 
HETATM   22  C   UNL     1      29.561  44.932  55.779  1.00  0.00    -0.054 A 
HETATM   23  C   UNL     1      30.499  43.890  55.680  1.00  0.00    -0.056 A 
HETATM   24  C   UNL     1      29.530  45.844  56.979  1.00  0.00     0.049 C 
HETATM   25  C   UNL     1      31.526  43.644  56.753  1.00  0.00     0.049 C 
HETATM   26  C   UNL     1      30.503  43.090  54.533  1.00  0.00     0.009 A 
HETATM   27  C   UNL     1      29.565  43.296  53.519  1.00  0.00     0.030 A 
ENDBRANCH  17  20
ENDBRANCH  15  16
ENDBRANCH   1  15
TORSDOF 3
ENDMDL
MODEL 10
REMARK VINA RESULT:      -7.9     12.409     13.742
REMARK  3 active torsions:
REMARK  status: ('A' for Active; 'I' for Inactive)
REMARK    1  A    between atoms: C_6  and  N_7 
REMARK       I    between atoms: N_7  and  C_8 
REMARK    2  A    between atoms: C_8  and  C_9 
REMARK    3  A    between atoms: C_9  and  C_10 
ROOT
HETATM    1  C   UNL     1      32.911  50.273  42.144  1.00  0.00     0.286 C 
HETATM    2  N   UNL     1      34.247  50.040  41.423  1.00  0.00    -0.056 N 
HETATM    3  H   UNL     1      34.375  49.012  41.327  1.00  0.00     0.278 HD
HETATM    4  H   UNL     1      34.201  50.418  40.469  1.00  0.00     0.278 HD
HETATM    5  C   UNL     1      35.481  50.511  42.147  1.00  0.00     0.209 C 
HETATM    6  C   UNL     1      35.221  51.886  42.790  1.00  0.00     0.115 C 
HETATM    7  N   UNL     1      34.108  51.797  43.716  1.00  0.00    -0.353 N 
HETATM    8  C   UNL     1      32.973  51.076  43.461  1.00  0.00     0.249 C 
HETATM    9  O   UNL     1      32.030  51.128  44.245  1.00  0.00    -0.271 OA
HETATM   10  C   UNL     1      36.655  50.546  41.176  1.00  0.00     0.035 C 
HETATM   11  C   UNL     1      37.914  51.054  41.876  1.00  0.00     0.002 C 
HETATM   12  C   UNL     1      37.684  52.407  42.546  1.00  0.00     0.002 C 
HETATM   13  C   UNL     1      36.485  52.387  43.493  1.00  0.00     0.027 C 
HETATM   14  H   UNL     1      34.063  52.399  44.536  1.00  0.00     0.163 HD
ENDROOT
BRANCH   1  15
HETATM   15  C   UNL     1      32.106  48.974  42.312  1.00  0.00     0.146 C 
BRANCH  15  16
HETATM   16  C   UNL     1      32.341  48.038  41.154  1.00  0.00     0.224 C 
HETATM   17  N   UNL     1      31.734  48.122  39.949  1.00  0.00    -0.327 N 
HETATM   18  H   UNL     1      32.208  47.547  39.258  1.00  0.00     0.169 HD
HETATM   19  O   UNL     1      33.249  47.201  41.290  1.00  0.00    -0.273 OA
BRANCH  17  20
HETATM   20  C   UNL     1      30.610  48.805  39.452  1.00  0.00     0.035 A 
HETATM   21  C   UNL     1      30.609  50.098  38.936  1.00  0.00     0.037 A 
HETATM   22  C   UNL     1      29.421  50.704  38.475  1.00  0.00    -0.054 A 
HETATM   23  C   UNL     1      28.208  49.998  38.545  1.00  0.00    -0.056 A 
HETATM   24  C   UNL     1      29.483  52.097  37.904  1.00  0.00     0.049 C 
HETATM   25  C   UNL     1      26.913  50.601  38.071  1.00  0.00     0.049 C 
HETATM   26  C   UNL     1      28.201  48.718  39.108  1.00  0.00     0.009 A 
HETATM   27  C   UNL     1      29.387  48.134  39.561  1.00  0.00     0.030 A 
ENDBRANCH  17  20
ENDBRANCH  15  16
ENDBRANCH   1  15
TORSDOF 3
ENDMDL
