MODEL 1
REMARK VINA RESULT:      -9.5      0.000      0.000
REMARK  5 active torsions:
REMARK  status: ('A' for Active; 'I' for Inactive)
REMARK    1  A    between atoms: C_2  and  C_3 
REMARK    2  A    between atoms: C_2  and  C_9 
REMARK    3  A    between atoms: C_9  and  C_10 
REMARK       I    between atoms: C_10  and  N_11 
REMARK    4  A    between atoms: N_11  and  C_12 
REMARK    5  A    between atoms: C_19  and  C_20 
REMARK       I    between atoms: C_20  and  N_21 
ROOT
HETATM    1  C   UNL     1      25.806  47.464  50.467  1.00  0.00     0.035 A 
HETATM    2  C   UNL     1      24.500  47.644  49.989  1.00  0.00     0.046 A 
HETATM    3  C   UNL     1      24.248  48.621  49.001  1.00  0.00     0.030 A 
HETATM    4  C   UNL     1      25.307  49.388  48.530  1.00  0.00     0.063 A 
HETATM    5  N   UNL     1      24.757  50.238  47.611  1.00  0.00    -0.277 N 
HETATM    6  H   UNL     1      25.237  50.948  47.069  1.00  0.00     0.189 HD
HETATM    7  N   UNL     1      23.436  50.085  47.429  1.00  0.00    -0.168 NA
HETATM    8  C   UNL     1      23.106  49.083  48.277  1.00  0.00     0.156 A 
HETATM    9  C   UNL     1      26.619  49.231  48.977  1.00  0.00     0.034 A 
HETATM   10  C   UNL     1      26.846  48.248  49.949  1.00  0.00     0.032 A 
ENDROOT
BRANCH   1  11
HETATM   11  N   UNL     1      26.158  46.498  51.436  1.00  0.00    -0.327 N 
HETATM   12  C   UNL     1      26.052  46.614  52.808  1.00  0.00     0.222 C 
HETATM   13  O   UNL     1      25.695  47.620  53.416  1.00  0.00    -0.273 OA
HETATM   14  H   UNL     1      26.642  45.686  51.080  1.00  0.00     0.169 HD
BRANCH  12  15
HETATM   15  C   UNL     1      26.321  45.334  53.591  1.00  0.00     0.112 C 
BRANCH  15  16
HETATM   16  C   UNL     1      27.565  44.509  53.220  1.00  0.00     0.023 C 
HETATM   17  C   UNL     1      27.154  43.061  52.921  1.00  0.00     0.015 C 
BRANCH  16  18
HETATM   18  C   UNL     1      28.677  44.516  54.254  1.00  0.00    -0.054 A 
HETATM   19  C   UNL     1      28.842  45.570  55.164  1.00  0.00     0.007 A 
HETATM   20  C   UNL     1      29.867  45.537  56.112  1.00  0.00     0.001 A 
HETATM   21  C   UNL     1      30.734  44.447  56.171  1.00  0.00     0.000 A 
HETATM   22  C   UNL     1      30.575  43.388  55.282  1.00  0.00     0.001 A 
HETATM   23  C   UNL     1      29.552  43.420  54.333  1.00  0.00     0.007 A 
ENDBRANCH  16  18
ENDBRANCH  15  16
ENDBRANCH  12  15
ENDBRANCH   1  11
BRANCH   8  24
HETATM   24  C   UNL     1      21.725  48.591  48.370  1.00  0.00     0.270 C 
HETATM   25  N   UNL     1      21.148  48.775  49.597  1.00  0.00    -0.365 N 
HETATM   26  H   UNL     1      21.688  49.229  50.324  1.00  0.00     0.159 HD
HETATM   27  H   UNL     1      20.197  48.478  49.750  1.00  0.00     0.159 HD
HETATM   28  O   UNL     1      21.105  48.064  47.452  1.00  0.00    -0.266 OA
ENDBRANCH   8  24
TORSDOF 5
ENDMDL
MODEL 2
REMARK VINA RESULT:      -8.9      2.366      3.564
REMARK  5 active torsions:
REMARK  status: ('A' for Active; 'I' for Inactive)
REMARK    1  A    between atoms: C_2  and  C_3 
REMARK    2  A    between atoms: C_2  and  C_9 
REMARK    3  A    between atoms: C_9  and  C_10 
REMARK       I    between atoms: C_10  and  N_11 
REMARK    4  A    between atoms: N_11  and  C_12 
REMARK    5  A    between atoms: C_19  and  C_20 
REMARK       I    between atoms: C_20  and  N_21 
ROOT
HETATM    1  C   UNL     1      25.625  44.064  51.416  1.00  0.00     0.035 A 
HETATM    2  C   UNL     1      25.443  45.379  50.966  1.00  0.00     0.046 A 
HETATM    3  C   UNL     1      24.326  45.691  50.159  1.00  0.00     0.030 A 
HETATM    4  C   UNL     1      23.436  44.678  49.825  1.00  0.00     0.063 A 
HETATM    5  N   UNL     1      22.487  45.273  49.041  1.00  0.00    -0.277 N 
HETATM    6  H   UNL     1      21.682  44.832  48.610  1.00  0.00     0.189 HD
HETATM    7  N   UNL     1      22.670  46.589  48.845  1.00  0.00    -0.168 NA
HETATM    8  C   UNL     1      23.801  46.865  49.536  1.00  0.00     0.156 A 
HETATM    9  C   UNL     1      23.582  43.361  50.261  1.00  0.00     0.034 A 
HETATM   10  C   UNL     1      24.691  43.079  51.069  1.00  0.00     0.032 A 
ENDROOT
BRANCH   1  11
HETATM   11  N   UNL     1      26.699  43.663  52.243  1.00  0.00    -0.327 N 
HETATM   12  C   UNL     1      26.780  43.773  53.617  1.00  0.00     0.222 C 
HETATM   13  O   UNL     1      25.948  44.309  54.343  1.00  0.00    -0.273 OA
HETATM   14  H   UNL     1      27.533  43.372  51.756  1.00  0.00     0.169 HD
BRANCH  12  15
HETATM   15  C   UNL     1      27.975  43.072  54.255  1.00  0.00     0.112 C 
BRANCH  15  16
HETATM   16  C   UNL     1      29.353  43.745  54.138  1.00  0.00     0.023 C 
HETATM   17  C   UNL     1      30.287  42.867  53.295  1.00  0.00     0.015 C 
BRANCH  16  18
HETATM   18  C   UNL     1      30.024  44.075  55.459  1.00  0.00    -0.054 A 
HETATM   19  C   UNL     1      29.722  45.241  56.179  1.00  0.00     0.007 A 
HETATM   20  C   UNL     1      30.348  45.505  57.399  1.00  0.00     0.001 A 
HETATM   21  C   UNL     1      31.276  44.606  57.921  1.00  0.00     0.000 A 
HETATM   22  C   UNL     1      31.577  43.440  57.224  1.00  0.00     0.001 A 
HETATM   23  C   UNL     1      30.954  43.174  56.004  1.00  0.00     0.007 A 
ENDBRANCH  16  18
ENDBRANCH  15  16
ENDBRANCH  12  15
ENDBRANCH   1  11
BRANCH   8  24
HETATM   24  C   UNL     1      24.343  48.229  49.591  1.00  0.00     0.270 C 
HETATM   25  N   UNL     1      25.673  48.314  49.281  1.00  0.00    -0.365 N 
HETATM   26  H   UNL     1      26.169  47.465  49.035  1.00  0.00     0.159 HD
HETATM   27  H   UNL     1      26.129  49.213  49.281  1.00  0.00     0.159 HD
HETATM   28  O   UNL     1      23.695  49.231  49.876  1.00  0.00    -0.266 OA
ENDBRANCH   8  24
TORSDOF 5
ENDMDL
MODEL 3
REMARK VINA RESULT:      -8.7      1.774      2.786
REMARK  5 active torsions:
REMARK  status: ('A' for Active; 'I' for Inactive)
REMARK    1  A    between atoms: C_2  and  C_3 
REMARK    2  A    between atoms: C_2  and  C_9 
REMARK    3  A    between atoms: C_9  and  C_10 
REMARK       I    between atoms: C_10  and  N_11 
REMARK    4  A    between atoms: N_11  and  C_12 
REMARK    5  A    between atoms: C_19  and  C_20 
REMARK       I    between atoms: C_20  and  N_21 
ROOT
HETATM    1  C   UNL     1      25.668  46.302  51.551  1.00  0.00     0.035 A 
HETATM    2  C   UNL     1      25.100  47.409  50.906  1.00  0.00     0.046 A 
HETATM    3  C   UNL     1      24.142  47.207  49.888  1.00  0.00     0.030 A 
HETATM    4  C   UNL     1      23.792  45.906  49.544  1.00  0.00     0.063 A 
HETATM    5  N   UNL     1      22.874  46.032  48.539  1.00  0.00    -0.277 N 
HETATM    6  H   UNL     1      22.404  45.285  48.041  1.00  0.00     0.189 HD
HETATM    7  N   UNL     1      22.582  47.299  48.205  1.00  0.00    -0.168 NA
HETATM    8  C   UNL     1      23.354  48.039  49.035  1.00  0.00     0.156 A 
HETATM    9  C   UNL     1      24.331  44.782  50.170  1.00  0.00     0.034 A 
HETATM   10  C   UNL     1      25.271  45.009  51.184  1.00  0.00     0.032 A 
ENDROOT
BRANCH   1  11
HETATM   11  N   UNL     1      26.616  46.406  52.594  1.00  0.00    -0.327 N 
HETATM   12  C   UNL     1      26.409  46.165  53.937  1.00  0.00     0.222 C 
HETATM   13  O   UNL     1      25.332  45.884  54.457  1.00  0.00    -0.273 OA
HETATM   14  H   UNL     1      27.503  46.810  52.331  1.00  0.00     0.169 HD
BRANCH  12  15
HETATM   15  C   UNL     1      27.667  46.165  54.799  1.00  0.00     0.112 C 
BRANCH  15  16
HETATM   16  C   UNL     1      28.676  45.021  54.603  1.00  0.00     0.023 C 
HETATM   17  C   UNL     1      27.926  43.715  54.309  1.00  0.00     0.015 C 
BRANCH  16  18
HETATM   18  C   UNL     1      29.638  44.804  55.757  1.00  0.00    -0.054 A 
HETATM   19  C   UNL     1      30.557  43.745  55.773  1.00  0.00     0.007 A 
HETATM   20  C   UNL     1      31.438  43.584  56.845  1.00  0.00     0.001 A 
HETATM   21  C   UNL     1      31.420  44.483  57.909  1.00  0.00     0.000 A 
HETATM   22  C   UNL     1      30.521  45.545  57.902  1.00  0.00     0.001 A 
HETATM   23  C   UNL     1      29.639  45.708  56.833  1.00  0.00     0.007 A 
ENDBRANCH  16  18
ENDBRANCH  15  16
ENDBRANCH  12  15
ENDBRANCH   1  11
BRANCH   8  24
HETATM   24  C   UNL     1      23.316  49.507  48.999  1.00  0.00     0.270 C 
HETATM   25  N   UNL     1      23.667  50.046  47.791  1.00  0.00    -0.365 N 
HETATM   26  H   UNL     1      23.910  49.419  47.033  1.00  0.00     0.159 HD
HETATM   27  H   UNL     1      23.660  51.046  47.670  1.00  0.00     0.159 HD
HETATM   28  O   UNL     1      22.996  50.224  49.942  1.00  0.00    -0.266 OA
ENDBRANCH   8  24
TORSDOF 5
ENDMDL
MODEL 4
REMARK VINA RESULT:      -8.6      1.718      2.857
REMARK  5 active torsions:
REMARK  status: ('A' for Active; 'I' for Inactive)
REMARK    1  A    between atoms: C_2  and  C_3 
REMARK    2  A    between atoms: C_2  and  C_9 
REMARK    3  A    between atoms: C_9  and  C_10 
REMARK       I    between atoms: C_10  and  N_11 
REMARK    4  A    between atoms: N_11  and  C_12 
REMARK    5  A    between atoms: C_19  and  C_20 
REMARK       I    between atoms: C_20  and  N_21 
ROOT
HETATM    1  C   UNL     1      25.564  46.616  51.284  1.00  0.00     0.035 A 
HETATM    2  C   UNL     1      25.141  47.677  50.471  1.00  0.00     0.046 A 
HETATM    3  C   UNL     1      24.114  47.462  49.525  1.00  0.00     0.030 A 
HETATM    4  C   UNL     1      23.552  46.196  49.420  1.00  0.00     0.063 A 
HETATM    5  N   UNL     1      22.615  46.297  48.429  1.00  0.00    -0.277 N 
HETATM    6  H   UNL     1      22.012  45.561  48.079  1.00  0.00     0.189 HD
HETATM    7  N   UNL     1      22.505  47.520  47.888  1.00  0.00    -0.168 NA
HETATM    8  C   UNL     1      23.422  48.255  48.559  1.00  0.00     0.156 A 
HETATM    9  C   UNL     1      23.943  45.121  50.218  1.00  0.00     0.034 A 
HETATM   10  C   UNL     1      24.955  45.361  51.157  1.00  0.00     0.032 A 
ENDROOT
BRANCH   1  11
HETATM   11  N   UNL     1      26.567  46.741  52.272  1.00  0.00    -0.327 N 
HETATM   12  C   UNL     1      26.435  47.288  53.533  1.00  0.00     0.222 C 
HETATM   13  O   UNL     1      25.424  47.825  53.978  1.00  0.00    -0.273 OA
HETATM   14  H   UNL     1      27.502  46.506  51.970  1.00  0.00     0.169 HD
BRANCH  12  15
HETATM   15  C   UNL     1      27.639  47.104  54.450  1.00  0.00     0.112 C 
BRANCH  15  16
HETATM   16  C   UNL     1      27.633  45.908  55.417  1.00  0.00     0.023 C 
HETATM   17  C   UNL     1      28.463  46.246  56.662  1.00  0.00     0.015 C 
BRANCH  16  18
HETATM   18  C   UNL     1      28.119  44.597  54.826  1.00  0.00    -0.054 A 
HETATM   19  C   UNL     1      27.248  43.691  54.203  1.00  0.00     0.007 A 
HETATM   20  C   UNL     1      27.732  42.501  53.656  1.00  0.00     0.001 A 
HETATM   21  C   UNL     1      29.092  42.203  53.715  1.00  0.00     0.000 A 
HETATM   22  C   UNL     1      29.970  43.097  54.319  1.00  0.00     0.001 A 
HETATM   23  C   UNL     1      29.489  44.287  54.868  1.00  0.00     0.007 A 
ENDBRANCH  16  18
ENDBRANCH  15  16
ENDBRANCH  12  15
ENDBRANCH   1  11
BRANCH   8  24
HETATM   24  C   UNL     1      23.607  49.684  48.271  1.00  0.00     0.270 C 
HETATM   25  N   UNL     1      23.077  50.518  49.217  1.00  0.00    -0.365 N 
HETATM   26  H   UNL     1      22.620  50.108  50.024  1.00  0.00     0.159 HD
HETATM   27  H   UNL     1      23.166  51.516  49.109  1.00  0.00     0.159 HD
HETATM   28  O   UNL     1      24.187  50.131  47.287  1.00  0.00    -0.266 OA
ENDBRANCH   8  24
TORSDOF 5
ENDMDL
MODEL 5
REMARK VINA RESULT:      -8.5      5.207      8.201
REMARK  5 active torsions:
REMARK  status: ('A' for Active; 'I' for Inactive)
REMARK    1  A    between atoms: C_2  and  C_3 
REMARK    2  A    between atoms: C_2  and  C_9 
REMARK    3  A    between atoms: C_9  and  C_10 
REMARK       I    between atoms: C_10  and  N_11 
REMARK    4  A    between atoms: N_11  and  C_12 
REMARK    5  A    between atoms: C_19  and  C_20 
REMARK       I    between atoms: C_20  and  N_21 
ROOT
HETATM    1  C   UNL     1      26.989  41.439  50.677  1.00  0.00     0.035 A 
HETATM    2  C   UNL     1      28.006  40.474  50.646  1.00  0.00     0.046 A 
HETATM    3  C   UNL     1      27.904  39.383  49.754  1.00  0.00     0.030 A 
HETATM    4  C   UNL     1      26.788  39.290  48.932  1.00  0.00     0.063 A 
HETATM    5  N   UNL     1      26.966  38.144  48.209  1.00  0.00    -0.277 N 
HETATM    6  H   UNL     1      26.341  37.757  47.510  1.00  0.00     0.189 HD
HETATM    7  N   UNL     1      28.106  37.487  48.475  1.00  0.00    -0.168 NA
HETATM    8  C   UNL     1      28.702  38.245  49.425  1.00  0.00     0.156 A 
HETATM    9  C   UNL     1      25.762  40.235  48.932  1.00  0.00     0.034 A 
HETATM   10  C   UNL     1      25.891  41.314  49.816  1.00  0.00     0.032 A 
ENDROOT
BRANCH   1  11
HETATM   11  N   UNL     1      27.015  42.574  51.518  1.00  0.00    -0.327 N 
HETATM   12  C   UNL     1      27.242  43.884  51.146  1.00  0.00     0.222 C 
HETATM   13  O   UNL     1      27.532  44.268  50.016  1.00  0.00    -0.273 OA
HETATM   14  H   UNL     1      26.974  42.379  52.508  1.00  0.00     0.169 HD
BRANCH  12  15
HETATM   15  C   UNL     1      27.010  44.920  52.241  1.00  0.00     0.112 C 
BRANCH  15  16
HETATM   16  C   UNL     1      26.904  44.424  53.693  1.00  0.00     0.023 C 
HETATM   17  C   UNL     1      25.889  45.282  54.459  1.00  0.00     0.015 C 
BRANCH  16  18
HETATM   18  C   UNL     1      28.214  44.385  54.459  1.00  0.00    -0.054 A 
HETATM   19  C   UNL     1      29.092  43.294  54.382  1.00  0.00     0.007 A 
HETATM   20  C   UNL     1      30.296  43.298  55.089  1.00  0.00     0.001 A 
HETATM   21  C   UNL     1      30.645  44.395  55.874  1.00  0.00     0.000 A 
HETATM   22  C   UNL     1      29.790  45.490  55.952  1.00  0.00     0.001 A 
HETATM   23  C   UNL     1      28.585  45.488  55.247  1.00  0.00     0.007 A 
ENDBRANCH  16  18
ENDBRANCH  15  16
ENDBRANCH  12  15
ENDBRANCH   1  11
BRANCH   8  24
HETATM   24  C   UNL     1      30.008  37.871  49.985  1.00  0.00     0.270 C 
HETATM   25  N   UNL     1      31.069  38.505  49.398  1.00  0.00    -0.365 N 
HETATM   26  H   UNL     1      30.886  39.169  48.654  1.00  0.00     0.159 HD
HETATM   27  H   UNL     1      32.004  38.319  49.724  1.00  0.00     0.159 HD
HETATM   28  O   UNL     1      30.176  37.074  50.902  1.00  0.00    -0.266 OA
ENDBRANCH   8  24
TORSDOF 5
ENDMDL
MODEL 6
REMARK VINA RESULT:      -8.4      1.594      1.946
REMARK  5 active torsions:
REMARK  status: ('A' for Active; 'I' for Inactive)
REMARK    1  A    between atoms: C_2  and  C_3 
REMARK    2  A    between atoms: C_2  and  C_9 
REMARK    3  A    between atoms: C_9  and  C_10 
REMARK       I    between atoms: C_10  and  N_11 
REMARK    4  A    between atoms: N_11  and  C_12 
REMARK    5  A    between atoms: C_19  and  C_20 
REMARK       I    between atoms: C_20  and  N_21 
ROOT
HETATM    1  C   UNL     1      25.478  47.776  49.663  1.00  0.00     0.035 A 
HETATM    2  C   UNL     1      24.079  47.715  49.605  1.00  0.00     0.046 A 
HETATM    3  C   UNL     1      23.364  48.733  48.934  1.00  0.00     0.030 A 
HETATM    4  C   UNL     1      24.072  49.778  48.352  1.00  0.00     0.063 A 
HETATM    5  N   UNL     1      23.123  50.595  47.803  1.00  0.00    -0.277 N 
HETATM    6  H   UNL     1      23.278  51.462  47.300  1.00  0.00     0.189 HD
HETATM    7  N   UNL     1      21.860  50.170  47.961  1.00  0.00    -0.168 NA
HETATM    8  C   UNL     1      21.992  49.014  48.654  1.00  0.00     0.156 A 
HETATM    9  C   UNL     1      25.463  49.866  48.384  1.00  0.00     0.034 A 
HETATM   10  C   UNL     1      26.151  48.839  49.045  1.00  0.00     0.032 A 
ENDROOT
BRANCH   1  11
HETATM   11  N   UNL     1      26.278  46.795  50.292  1.00  0.00    -0.327 N 
HETATM   12  C   UNL     1      26.312  45.443  50.016  1.00  0.00     0.222 C 
HETATM   13  O   UNL     1      25.589  44.857  49.214  1.00  0.00    -0.273 OA
HETATM   14  H   UNL     1      26.790  47.111  51.103  1.00  0.00     0.169 HD
BRANCH  12  15
HETATM   15  C   UNL     1      27.418  44.664  50.719  1.00  0.00     0.112 C 
BRANCH  15  16
HETATM   16  C   UNL     1      27.090  44.002  52.067  1.00  0.00     0.023 C 
HETATM   17  C   UNL     1      26.027  44.828  52.804  1.00  0.00     0.015 C 
BRANCH  16  18
HETATM   18  C   UNL     1      28.280  43.776  52.983  1.00  0.00    -0.054 A 
HETATM   19  C   UNL     1      28.364  44.361  54.255  1.00  0.00     0.007 A 
HETATM   20  C   UNL     1      29.466  44.119  55.077  1.00  0.00     0.001 A 
HETATM   21  C   UNL     1      30.494  43.284  54.645  1.00  0.00     0.000 A 
HETATM   22  C   UNL     1      30.420  42.687  53.390  1.00  0.00     0.001 A 
HETATM   23  C   UNL     1      29.319  42.928  52.566  1.00  0.00     0.007 A 
ENDBRANCH  16  18
ENDBRANCH  15  16
ENDBRANCH  12  15
ENDBRANCH   1  11
BRANCH   8  24
HETATM   24  C   UNL     1      20.818  48.212  49.022  1.00  0.00     0.270 C 
HETATM   25  N   UNL     1      20.055  48.761  50.017  1.00  0.00    -0.365 N 
HETATM   26  H   UNL     1      20.337  49.652  50.408  1.00  0.00     0.159 HD
HETATM   27  H   UNL     1      19.223  48.285  50.328  1.00  0.00     0.159 HD
HETATM   28  O   UNL     1      20.507  47.144  48.504  1.00  0.00    -0.266 OA
ENDBRANCH   8  24
TORSDOF 5
ENDMDL
MODEL 7
REMARK VINA RESULT:      -8.3      3.958      9.182
REMARK  5 active torsions:
REMARK  status: ('A' for Active; 'I' for Inactive)
REMARK    1  A    between atoms: C_2  and  C_3 
REMARK    2  A    between atoms: C_2  and  C_9 
REMARK    3  A    between atoms: C_9  and  C_10 
REMARK       I    between atoms: C_10  and  N_11 
REMARK    4  A    between atoms: N_11  and  C_12 
REMARK    5  A    between atoms: C_19  and  C_20 
REMARK       I    between atoms: C_20  and  N_21 
ROOT
HETATM    1  C   UNL     1      22.520  48.927  49.146  1.00  0.00     0.035 A 
HETATM    2  C   UNL     1      23.615  48.112  49.463  1.00  0.00     0.046 A 
HETATM    3  C   UNL     1      24.919  48.526  49.110  1.00  0.00     0.030 A 
HETATM    4  C   UNL     1      25.081  49.736  48.446  1.00  0.00     0.063 A 
HETATM    5  N   UNL     1      26.426  49.853  48.231  1.00  0.00    -0.277 N 
HETATM    6  H   UNL     1      26.908  50.613  47.764  1.00  0.00     0.189 HD
HETATM    7  N   UNL     1      27.158  48.834  48.708  1.00  0.00    -0.168 NA
HETATM    8  C   UNL     1      26.241  48.007  49.261  1.00  0.00     0.156 A 
HETATM    9  C   UNL     1      24.016  50.576  48.122  1.00  0.00     0.034 A 
HETATM   10  C   UNL     1      22.734  50.149  48.492  1.00  0.00     0.032 A 
ENDROOT
BRANCH   1  11
HETATM   11  N   UNL     1      21.184  48.607  49.478  1.00  0.00    -0.327 N 
HETATM   12  C   UNL     1      20.292  47.868  48.729  1.00  0.00     0.222 C 
HETATM   13  O   UNL     1      20.498  47.421  47.604  1.00  0.00    -0.273 OA
HETATM   14  H   UNL     1      20.822  49.070  50.299  1.00  0.00     0.169 HD
BRANCH  12  15
HETATM   15  C   UNL     1      18.985  47.518  49.434  1.00  0.00     0.112 C 
BRANCH  15  16
HETATM   16  C   UNL     1      17.760  48.408  49.166  1.00  0.00     0.023 C 
HETATM   17  C   UNL     1      16.955  47.839  47.991  1.00  0.00     0.015 C 
BRANCH  16  18
HETATM   18  C   UNL     1      18.070  49.872  48.907  1.00  0.00    -0.054 A 
HETATM   19  C   UNL     1      18.066  50.418  47.615  1.00  0.00     0.007 A 
HETATM   20  C   UNL     1      18.340  51.772  47.415  1.00  0.00     0.001 A 
HETATM   21  C   UNL     1      18.611  52.601  48.501  1.00  0.00     0.000 A 
HETATM   22  C   UNL     1      18.607  52.077  49.790  1.00  0.00     0.001 A 
HETATM   23  C   UNL     1      18.335  50.723  49.993  1.00  0.00     0.007 A 
ENDBRANCH  16  18
ENDBRANCH  15  16
ENDBRANCH  12  15
ENDBRANCH   1  11
BRANCH   8  24
HETATM   24  C   UNL     1      26.645  46.757  49.920  1.00  0.00     0.270 C 
HETATM   25  N   UNL     1      26.260  46.668  51.230  1.00  0.00    -0.365 N 
HETATM   26  H   UNL     1      25.736  47.435  51.636  1.00  0.00     0.159 HD
HETATM   27  H   UNL     1      26.485  45.841  51.760  1.00  0.00     0.159 HD
HETATM   28  O   UNL     1      27.263  45.847  49.379  1.00  0.00    -0.266 OA
ENDBRANCH   8  24
TORSDOF 5
ENDMDL
MODEL 8
REMARK VINA RESULT:      -8.1      5.044      6.318
REMARK  5 active torsions:
REMARK  status: ('A' for Active; 'I' for Inactive)
REMARK    1  A    between atoms: C_2  and  C_3 
REMARK    2  A    between atoms: C_2  and  C_9 
REMARK    3  A    between atoms: C_9  and  C_10 
REMARK       I    between atoms: C_10  and  N_11 
REMARK    4  A    between atoms: N_11  and  C_12 
REMARK    5  A    between atoms: C_19  and  C_20 
REMARK       I    between atoms: C_20  and  N_21 
ROOT
HETATM    1  C   UNL     1      25.603  42.241  51.123  1.00  0.00     0.035 A 
HETATM    2  C   UNL     1      25.857  41.303  50.113  1.00  0.00     0.046 A 
HETATM    3  C   UNL     1      24.950  41.175  49.037  1.00  0.00     0.030 A 
HETATM    4  C   UNL     1      23.819  41.982  49.013  1.00  0.00     0.063 A 
HETATM    5  N   UNL     1      23.142  41.624  47.881  1.00  0.00    -0.277 N 
HETATM    6  H   UNL     1      22.264  42.003  47.545  1.00  0.00     0.189 HD
HETATM    7  N   UNL     1      23.737  40.664  47.155  1.00  0.00    -0.168 NA
HETATM    8  C   UNL     1      24.861  40.379  47.854  1.00  0.00     0.156 A 
HETATM    9  C   UNL     1      23.540  42.931  49.997  1.00  0.00     0.034 A 
HETATM   10  C   UNL     1      24.460  43.047  51.048  1.00  0.00     0.032 A 
ENDROOT
BRANCH   1  11
HETATM   11  N   UNL     1      26.463  42.455  52.224  1.00  0.00    -0.327 N 
HETATM   12  C   UNL     1      27.278  43.547  52.448  1.00  0.00     0.222 C 
HETATM   13  O   UNL     1      27.440  44.489  51.677  1.00  0.00    -0.273 OA
HETATM   14  H   UNL     1      26.568  41.669  52.849  1.00  0.00     0.169 HD
BRANCH  12  15
HETATM   15  C   UNL     1      27.941  43.593  53.820  1.00  0.00     0.112 C 
BRANCH  15  16
HETATM   16  C   UNL     1      29.453  43.869  53.882  1.00  0.00     0.023 C 
HETATM   17  C   UNL     1      30.217  42.714  53.221  1.00  0.00     0.015 C 
BRANCH  16  18
HETATM   18  C   UNL     1      30.008  44.113  55.274  1.00  0.00    -0.054 A 
HETATM   19  C   UNL     1      30.926  43.239  55.875  1.00  0.00     0.007 A 
HETATM   20  C   UNL     1      31.428  43.503  57.151  1.00  0.00     0.001 A 
HETATM   21  C   UNL     1      31.029  44.646  57.839  1.00  0.00     0.000 A 
HETATM   22  C   UNL     1      30.128  45.529  57.251  1.00  0.00     0.001 A 
HETATM   23  C   UNL     1      29.623  45.267  55.977  1.00  0.00     0.007 A 
ENDBRANCH  16  18
ENDBRANCH  15  16
ENDBRANCH  12  15
ENDBRANCH   1  11
BRANCH   8  24
HETATM   24  C   UNL     1      25.817  39.371  47.377  1.00  0.00     0.270 C 
HETATM   25  N   UNL     1      25.539  38.097  47.792  1.00  0.00    -0.365 N 
HETATM   26  H   UNL     1      24.720  37.943  48.369  1.00  0.00     0.159 HD
HETATM   27  H   UNL     1      26.135  37.337  47.504  1.00  0.00     0.159 HD
HETATM   28  O   UNL     1      26.785  39.606  46.661  1.00  0.00    -0.266 OA
ENDBRANCH   8  24
TORSDOF 5
ENDMDL
MODEL 9
REMARK VINA RESULT:      -7.9      4.127      7.479
REMARK  5 active torsions:
REMARK  status: ('A' for Active; 'I' for Inactive)
REMARK    1  A    between atoms: C_2  and  C_3 
REMARK    2  A    between atoms: C_2  and  C_9 
REMARK    3  A    between atoms: C_9  and  C_10 
REMARK       I    between atoms: C_10  and  N_11 
REMARK    4  A    between atoms: N_11  and  C_12 
REMARK    5  A    between atoms: C_19  and  C_20 
REMARK       I    between atoms: C_20  and  N_21 
ROOT
HETATM    1  C   UNL     1      29.186  43.287  53.259  1.00  0.00     0.035 A 
HETATM    2  C   UNL     1      28.306  44.356  53.478  1.00  0.00     0.046 A 
HETATM    3  C   UNL     1      28.460  45.161  54.629  1.00  0.00     0.030 A 
HETATM    4  C   UNL     1      29.482  44.865  55.523  1.00  0.00     0.063 A 
HETATM    5  N   UNL     1      29.368  45.791  56.522  1.00  0.00    -0.277 N 
HETATM    6  H   UNL     1      29.948  45.874  57.349  1.00  0.00     0.189 HD
HETATM    7  N   UNL     1      28.372  46.675  56.353  1.00  0.00    -0.168 NA
HETATM    8  C   UNL     1      27.804  46.302  55.182  1.00  0.00     0.156 A 
HETATM    9  C   UNL     1      30.380  43.814  55.332  1.00  0.00     0.034 A 
HETATM   10  C   UNL     1      30.214  43.038  54.178  1.00  0.00     0.032 A 
ENDROOT
BRANCH   1  11
HETATM   11  N   UNL     1      29.124  42.443  52.127  1.00  0.00    -0.327 N 
HETATM   12  C   UNL     1      28.340  41.318  51.966  1.00  0.00     0.222 C 
HETATM   13  O   UNL     1      27.611  40.825  52.822  1.00  0.00    -0.273 OA
HETATM   14  H   UNL     1      29.814  42.627  51.413  1.00  0.00     0.169 HD
BRANCH  12  15
HETATM   15  C   UNL     1      28.337  40.724  50.562  1.00  0.00     0.112 C 
BRANCH  15  16
HETATM   16  C   UNL     1      27.130  41.020  49.655  1.00  0.00     0.023 C 
HETATM   17  C   UNL     1      27.584  41.071  48.191  1.00  0.00     0.015 C 
BRANCH  16  18
HETATM   18  C   UNL     1      26.365  42.288  49.993  1.00  0.00    -0.054 A 
HETATM   19  C   UNL     1      25.153  42.262  50.697  1.00  0.00     0.007 A 
HETATM   20  C   UNL     1      24.484  43.449  51.003  1.00  0.00     0.001 A 
HETATM   21  C   UNL     1      25.020  44.676  50.620  1.00  0.00     0.000 A 
HETATM   22  C   UNL     1      26.228  44.719  49.930  1.00  0.00     0.001 A 
HETATM   23  C   UNL     1      26.898  43.534  49.622  1.00  0.00     0.007 A 
ENDBRANCH  16  18
ENDBRANCH  15  16
ENDBRANCH  12  15
ENDBRANCH   1  11
BRANCH   8  24
HETATM   24  C   UNL     1      26.664  47.042  54.622  1.00  0.00     0.270 C 
HETATM   25  N   UNL     1      26.481  46.852  53.280  1.00  0.00    -0.365 N 
HETATM   26  H   UNL     1      27.112  46.231  52.787  1.00  0.00     0.159 HD
HETATM   27  H   UNL     1      25.716  47.312  52.811  1.00  0.00     0.159 HD
HETATM   28  O   UNL     1      25.915  47.769  55.266  1.00  0.00    -0.266 OA
ENDBRANCH   8  24
TORSDOF 5
ENDMDL
MODEL 10
REMARK VINA RESULT:      -7.9      2.527      3.006
REMARK  5 active torsions:
REMARK  status: ('A' for Active; 'I' for Inactive)
REMARK    1  A    between atoms: C_2  and  C_3 
REMARK    2  A    between atoms: C_2  and  C_9 
REMARK    3  A    between atoms: C_9  and  C_10 
REMARK       I    between atoms: C_10  and  N_11 
REMARK    4  A    between atoms: N_11  and  C_12 
REMARK    5  A    between atoms: C_19  and  C_20 
REMARK       I    between atoms: C_20  and  N_21 
ROOT
HETATM    1  C   UNL     1      24.638  46.462  50.166  1.00  0.00     0.035 A 
HETATM    2  C   UNL     1      23.964  45.561  49.330  1.00  0.00     0.046 A 
HETATM    3  C   UNL     1      22.955  46.036  48.462  1.00  0.00     0.030 A 
HETATM    4  C   UNL     1      22.651  47.392  48.466  1.00  0.00     0.063 A 
HETATM    5  N   UNL     1      21.646  47.540  47.551  1.00  0.00    -0.277 N 
HETATM    6  H   UNL     1      21.171  48.399  47.296  1.00  0.00     0.189 HD
HETATM    7  N   UNL     1      21.276  46.404  46.940  1.00  0.00    -0.168 NA
HETATM    8  C   UNL     1      22.082  45.464  47.488  1.00  0.00     0.156 A 
HETATM    9  C   UNL     1      23.307  48.317  49.279  1.00  0.00     0.034 A 
HETATM   10  C   UNL     1      24.311  47.824  50.122  1.00  0.00     0.032 A 
ENDROOT
BRANCH   1  11
HETATM   11  N   UNL     1      25.675  46.083  51.049  1.00  0.00    -0.327 N 
HETATM   12  C   UNL     1      25.582  45.226  52.127  1.00  0.00     0.222 C 
HETATM   13  O   UNL     1      24.551  44.701  52.538  1.00  0.00    -0.273 OA
HETATM   14  H   UNL     1      26.542  46.588  50.937  1.00  0.00     0.169 HD
BRANCH  12  15
HETATM   15  C   UNL     1      26.910  44.851  52.775  1.00  0.00     0.112 C 
BRANCH  15  16
HETATM   16  C   UNL     1      27.176  45.337  54.209  1.00  0.00     0.023 C 
HETATM   17  C   UNL     1      27.049  46.865  54.269  1.00  0.00     0.015 C 
BRANCH  16  18
HETATM   18  C   UNL     1      28.512  44.917  54.796  1.00  0.00    -0.054 A 
HETATM   19  C   UNL     1      29.187  45.697  55.747  1.00  0.00     0.007 A 
HETATM   20  C   UNL     1      30.407  45.272  56.277  1.00  0.00     0.001 A 
HETATM   21  C   UNL     1      30.964  44.060  55.874  1.00  0.00     0.000 A 
HETATM   22  C   UNL     1      30.300  43.270  54.940  1.00  0.00     0.001 A 
HETATM   23  C   UNL     1      29.081  43.693  54.408  1.00  0.00     0.007 A 
ENDBRANCH  16  18
ENDBRANCH  15  16
ENDBRANCH  12  15
ENDBRANCH   1  11
BRANCH   8  24
HETATM   24  C   UNL     1      22.004  44.059  47.066  1.00  0.00     0.270 C 
HETATM   25  N   UNL     1      23.108  43.617  46.389  1.00  0.00    -0.365 N 
HETATM   26  H   UNL     1      23.876  44.261  46.240  1.00  0.00     0.159 HD
HETATM   27  H   UNL     1      23.148  42.662  46.071  1.00  0.00     0.159 HD
HETATM   28  O   UNL     1      21.057  43.311  47.289  1.00  0.00    -0.266 OA
ENDBRANCH   8  24
TORSDOF 5
ENDMDL
