MODEL 1
REMARK VINA RESULT:      -9.6      0.000      0.000
REMARK  6 active torsions:
REMARK  status: ('A' for Active; 'I' for Inactive)
REMARK    1  A    between atoms: C_4  and  C_5 
REMARK    2  A    between atoms: C_6  and  C_7 
REMARK    3  A    between atoms: C_7  and  C_8 
REMARK    4  A    between atoms: C_8  and  C_9 
REMARK       I    between atoms: C_9  and  N_10 
REMARK    5  A    between atoms: N_10  and  C_11 
REMARK    6  A    between atoms: C_18  and  C_19 
REMARK       I    between atoms: C_19  and  N_20 
ROOT
HETATM    1  C   UNL     1      25.829  47.182  50.279  1.00  0.00     0.035 A 
HETATM    2  C   UNL     1      24.527  47.440  49.826  1.00  0.00     0.046 A 
HETATM    3  C   UNL     1      24.298  48.518  48.942  1.00  0.00     0.030 A 
HETATM    4  C   UNL     1      25.373  49.309  48.556  1.00  0.00     0.063 A 
HETATM    5  N   UNL     1      24.846  50.258  47.726  1.00  0.00    -0.277 N 
HETATM    6  H   UNL     1      25.342  51.010  47.261  1.00  0.00     0.189 HD
HETATM    7  N   UNL     1      23.524  50.147  47.521  1.00  0.00    -0.168 NA
HETATM    8  C   UNL     1      23.170  49.072  48.264  1.00  0.00     0.156 A 
HETATM    9  C   UNL     1      26.680  49.083  48.988  1.00  0.00     0.034 A 
HETATM   10  C   UNL     1      26.884  47.999  49.850  1.00  0.00     0.032 A 
ENDROOT
BRANCH   1  11
HETATM   11  N   UNL     1      26.165  46.117  51.144  1.00  0.00    -0.327 N 
HETATM   12  C   UNL     1      26.812  44.939  50.820  1.00  0.00     0.222 C 
HETATM   13  O   UNL     1      27.183  44.598  49.701  1.00  0.00    -0.273 OA
HETATM   14  H   UNL     1      25.860  46.222  52.101  1.00  0.00     0.169 HD
BRANCH  12  15
HETATM   15  C   UNL     1      27.104  44.050  52.021  1.00  0.00     0.107 C 
BRANCH  15  16
HETATM   16  C   UNL     1      28.527  43.496  52.095  1.00  0.00     0.036 C 
BRANCH  16  17
HETATM   17  C   UNL     1      29.258  43.553  53.409  1.00  0.00    -0.025 C 
HETATM   18  C   UNL     1      29.128  44.475  54.376  1.00  0.00     0.007 C 
BRANCH  18  19
HETATM   19  C   UNL     1      29.904  44.451  55.625  1.00  0.00    -0.036 A 
HETATM   20  C   UNL     1      30.819  43.411  55.833  1.00  0.00     0.011 A 
HETATM   21  C   UNL     1      31.592  43.366  56.996  1.00  0.00     0.001 A 
HETATM   22  C   UNL     1      31.465  44.367  57.957  1.00  0.00     0.000 A 
HETATM   23  C   UNL     1      30.571  45.417  57.753  1.00  0.00     0.001 A 
HETATM   24  C   UNL     1      29.798  45.461  56.590  1.00  0.00     0.011 A 
ENDBRANCH  18  19
ENDBRANCH  16  17
ENDBRANCH  15  16
ENDBRANCH  12  15
ENDBRANCH   1  11
BRANCH   8  25
HETATM   25  C   UNL     1      21.780  48.600  48.298  1.00  0.00     0.270 C 
HETATM   26  N   UNL     1      21.182  48.712  49.524  1.00  0.00    -0.365 N 
HETATM   27  H   UNL     1      21.716  49.109  50.288  1.00  0.00     0.159 HD
HETATM   28  H   UNL     1      20.222  48.429  49.639  1.00  0.00     0.159 HD
HETATM   29  O   UNL     1      21.169  48.146  47.336  1.00  0.00    -0.266 OA
ENDBRANCH   8  25
TORSDOF 6
ENDMDL
MODEL 2
REMARK VINA RESULT:      -9.6      4.572      6.556
REMARK  6 active torsions:
REMARK  status: ('A' for Active; 'I' for Inactive)
REMARK    1  A    between atoms: C_4  and  C_5 
REMARK    2  A    between atoms: C_6  and  C_7 
REMARK    3  A    between atoms: C_7  and  C_8 
REMARK    4  A    between atoms: C_8  and  C_9 
REMARK       I    between atoms: C_9  and  N_10 
REMARK    5  A    between atoms: N_10  and  C_11 
REMARK    6  A    between atoms: C_18  and  C_19 
REMARK       I    between atoms: C_19  and  N_20 
ROOT
HETATM    1  C   UNL     1      27.462  43.457  52.338  1.00  0.00     0.035 A 
HETATM    2  C   UNL     1      27.412  42.930  51.039  1.00  0.00     0.046 A 
HETATM    3  C   UNL     1      27.894  41.624  50.799  1.00  0.00     0.030 A 
HETATM    4  C   UNL     1      28.424  40.899  51.859  1.00  0.00     0.063 A 
HETATM    5  N   UNL     1      28.810  39.702  51.323  1.00  0.00    -0.277 N 
HETATM    6  H   UNL     1      29.245  38.925  51.808  1.00  0.00     0.189 HD
HETATM    7  N   UNL     1      28.562  39.573  50.011  1.00  0.00    -0.168 NA
HETATM    8  C   UNL     1      27.993  40.753  49.671  1.00  0.00     0.156 A 
HETATM    9  C   UNL     1      28.492  41.393  53.162  1.00  0.00     0.034 A 
HETATM   10  C   UNL     1      27.993  42.682  53.378  1.00  0.00     0.032 A 
ENDROOT
BRANCH   1  11
HETATM   11  N   UNL     1      26.987  44.742  52.684  1.00  0.00    -0.327 N 
HETATM   12  C   UNL     1      25.841  45.053  53.391  1.00  0.00     0.222 C 
HETATM   13  O   UNL     1      25.012  44.257  53.819  1.00  0.00    -0.273 OA
HETATM   14  H   UNL     1      27.536  45.516  52.339  1.00  0.00     0.169 HD
BRANCH  12  15
HETATM   15  C   UNL     1      25.682  46.541  53.674  1.00  0.00     0.107 C 
BRANCH  15  16
HETATM   16  C   UNL     1      26.733  47.147  54.605  1.00  0.00     0.036 C 
BRANCH  16  17
HETATM   17  C   UNL     1      27.686  46.225  55.317  1.00  0.00    -0.025 C 
HETATM   18  C   UNL     1      29.016  46.361  55.440  1.00  0.00     0.007 C 
BRANCH  18  19
HETATM   19  C   UNL     1      29.866  45.392  56.146  1.00  0.00    -0.036 A 
HETATM   20  C   UNL     1      30.272  44.232  55.473  1.00  0.00     0.011 A 
HETATM   21  C   UNL     1      31.099  43.298  56.102  1.00  0.00     0.001 A 
HETATM   22  C   UNL     1      31.537  43.519  57.406  1.00  0.00     0.000 A 
HETATM   23  C   UNL     1      31.154  44.678  58.080  1.00  0.00     0.001 A 
HETATM   24  C   UNL     1      30.327  45.612  57.451  1.00  0.00     0.011 A 
ENDBRANCH  18  19
ENDBRANCH  16  17
ENDBRANCH  15  16
ENDBRANCH  12  15
ENDBRANCH   1  11
BRANCH   8  25
HETATM   25  C   UNL     1      27.550  41.012  48.294  1.00  0.00     0.270 C 
HETATM   26  N   UNL     1      26.201  40.881  48.108  1.00  0.00    -0.365 N 
HETATM   27  H   UNL     1      25.623  40.636  48.903  1.00  0.00     0.159 HD
HETATM   28  H   UNL     1      25.803  41.057  47.199  1.00  0.00     0.159 HD
HETATM   29  O   UNL     1      28.289  41.328  47.368  1.00  0.00    -0.266 OA
ENDBRANCH   8  25
TORSDOF 6
ENDMDL
MODEL 3
REMARK VINA RESULT:      -9.0      2.229      3.512
REMARK  6 active torsions:
REMARK  status: ('A' for Active; 'I' for Inactive)
REMARK    1  A    between atoms: C_4  and  C_5 
REMARK    2  A    between atoms: C_6  and  C_7 
REMARK    3  A    between atoms: C_7  and  C_8 
REMARK    4  A    between atoms: C_8  and  C_9 
REMARK       I    between atoms: C_9  and  N_10 
REMARK    5  A    between atoms: N_10  and  C_11 
REMARK    6  A    between atoms: C_18  and  C_19 
REMARK       I    between atoms: C_19  and  N_20 
ROOT
HETATM    1  C   UNL     1      25.330  43.494  51.148  1.00  0.00     0.035 A 
HETATM    2  C   UNL     1      25.455  44.848  50.802  1.00  0.00     0.046 A 
HETATM    3  C   UNL     1      24.414  45.482  50.086  1.00  0.00     0.030 A 
HETATM    4  C   UNL     1      23.296  44.739  49.729  1.00  0.00     0.063 A 
HETATM    5  N   UNL     1      22.486  45.605  49.049  1.00  0.00    -0.277 N 
HETATM    6  H   UNL     1      21.584  45.403  48.635  1.00  0.00     0.189 HD
HETATM    7  N   UNL     1      22.968  46.853  48.947  1.00  0.00    -0.168 NA
HETATM    8  C   UNL     1      24.159  46.795  49.587  1.00  0.00     0.156 A 
HETATM    9  C   UNL     1      23.140  43.391  50.055  1.00  0.00     0.034 A 
HETATM   10  C   UNL     1      24.177  42.789  50.778  1.00  0.00     0.032 A 
ENDROOT
BRANCH   1  11
HETATM   11  N   UNL     1      26.303  42.777  51.880  1.00  0.00    -0.327 N 
HETATM   12  C   UNL     1      27.113  41.753  51.427  1.00  0.00     0.222 C 
HETATM   13  O   UNL     1      27.104  41.263  50.303  1.00  0.00    -0.273 OA
HETATM   14  H   UNL     1      26.381  43.024  52.857  1.00  0.00     0.169 HD
BRANCH  12  15
HETATM   15  C   UNL     1      28.122  41.268  52.459  1.00  0.00     0.107 C 
BRANCH  15  16
HETATM   16  C   UNL     1      29.351  42.160  52.643  1.00  0.00     0.036 C 
BRANCH  16  17
HETATM   17  C   UNL     1      29.461  42.991  53.893  1.00  0.00    -0.025 C 
HETATM   18  C   UNL     1      30.552  43.187  54.650  1.00  0.00     0.007 C 
BRANCH  18  19
HETATM   19  C   UNL     1      30.554  44.009  55.869  1.00  0.00    -0.036 A 
HETATM   20  C   UNL     1      31.399  43.648  56.926  1.00  0.00     0.011 A 
HETATM   21  C   UNL     1      31.446  44.417  58.092  1.00  0.00     0.001 A 
HETATM   22  C   UNL     1      30.657  45.559  58.207  1.00  0.00     0.000 A 
HETATM   23  C   UNL     1      29.825  45.938  57.155  1.00  0.00     0.001 A 
HETATM   24  C   UNL     1      29.778  45.169  55.989  1.00  0.00     0.011 A 
ENDBRANCH  18  19
ENDBRANCH  16  17
ENDBRANCH  15  16
ENDBRANCH  12  15
ENDBRANCH   1  11
BRANCH   8  25
HETATM   25  C   UNL     1      25.010  47.986  49.713  1.00  0.00     0.270 C 
HETATM   26  N   UNL     1      24.674  49.005  48.863  1.00  0.00    -0.365 N 
HETATM   27  H   UNL     1      23.886  48.876  48.240  1.00  0.00     0.159 HD
HETATM   28  H   UNL     1      25.191  49.869  48.891  1.00  0.00     0.159 HD
HETATM   29  O   UNL     1      25.942  48.101  50.502  1.00  0.00    -0.266 OA
ENDBRANCH   8  25
TORSDOF 6
ENDMDL
MODEL 4
REMARK VINA RESULT:      -9.0      4.147      6.385
REMARK  6 active torsions:
REMARK  status: ('A' for Active; 'I' for Inactive)
REMARK    1  A    between atoms: C_4  and  C_5 
REMARK    2  A    between atoms: C_6  and  C_7 
REMARK    3  A    between atoms: C_7  and  C_8 
REMARK    4  A    between atoms: C_8  and  C_9 
REMARK       I    between atoms: C_9  and  N_10 
REMARK    5  A    between atoms: N_10  and  C_11 
REMARK    6  A    between atoms: C_18  and  C_19 
REMARK       I    between atoms: C_19  and  N_20 
ROOT
HETATM    1  C   UNL     1      25.931  44.530  51.744  1.00  0.00     0.035 A 
HETATM    2  C   UNL     1      26.818  43.444  51.788  1.00  0.00     0.046 A 
HETATM    3  C   UNL     1      26.467  42.232  51.152  1.00  0.00     0.030 A 
HETATM    4  C   UNL     1      25.238  42.142  50.511  1.00  0.00     0.063 A 
HETATM    5  N   UNL     1      25.181  40.870  50.013  1.00  0.00    -0.277 N 
HETATM    6  H   UNL     1      24.421  40.451  49.489  1.00  0.00     0.189 HD
HETATM    7  N   UNL     1      26.271  40.127  50.256  1.00  0.00    -0.168 NA
HETATM    8  C   UNL     1      27.079  40.956  50.957  1.00  0.00     0.156 A 
HETATM    9  C   UNL     1      24.331  43.200  50.449  1.00  0.00     0.034 A 
HETATM   10  C   UNL     1      24.708  44.396  51.072  1.00  0.00     0.032 A 
ENDROOT
BRANCH   1  11
HETATM   11  N   UNL     1      26.197  45.788  52.327  1.00  0.00    -0.327 N 
HETATM   12  C   UNL     1      25.866  46.214  53.600  1.00  0.00     0.222 C 
HETATM   13  O   UNL     1      25.247  45.573  54.442  1.00  0.00    -0.273 OA
HETATM   14  H   UNL     1      26.650  46.460  51.724  1.00  0.00     0.169 HD
BRANCH  12  15
HETATM   15  C   UNL     1      26.395  47.601  53.938  1.00  0.00     0.107 C 
BRANCH  15  16
HETATM   16  C   UNL     1      26.898  47.779  55.371  1.00  0.00     0.036 C 
BRANCH  16  17
HETATM   17  C   UNL     1      27.827  46.743  55.945  1.00  0.00    -0.025 C 
HETATM   18  C   UNL     1      29.041  46.393  55.490  1.00  0.00     0.007 C 
BRANCH  18  19
HETATM   19  C   UNL     1      29.869  45.352  56.116  1.00  0.00    -0.036 A 
HETATM   20  C   UNL     1      30.190  44.207  55.375  1.00  0.00     0.011 A 
HETATM   21  C   UNL     1      30.994  43.206  55.926  1.00  0.00     0.001 A 
HETATM   22  C   UNL     1      31.494  43.346  57.219  1.00  0.00     0.000 A 
HETATM   23  C   UNL     1      31.196  44.488  57.959  1.00  0.00     0.001 A 
HETATM   24  C   UNL     1      30.392  45.489  57.408  1.00  0.00     0.011 A 
ENDBRANCH  18  19
ENDBRANCH  16  17
ENDBRANCH  15  16
ENDBRANCH  12  15
ENDBRANCH   1  11
BRANCH   8  25
HETATM   25  C   UNL     1      28.406  40.517  51.410  1.00  0.00     0.270 C 
HETATM   26  N   UNL     1      29.096  39.781  50.485  1.00  0.00    -0.365 N 
HETATM   27  H   UNL     1      28.665  39.608  49.584  1.00  0.00     0.159 HD
HETATM   28  H   UNL     1      30.023  39.452  50.700  1.00  0.00     0.159 HD
HETATM   29  O   UNL     1      28.892  40.772  52.506  1.00  0.00    -0.266 OA
ENDBRANCH   8  25
TORSDOF 6
ENDMDL
MODEL 5
REMARK VINA RESULT:      -8.9      4.654      7.890
REMARK  6 active torsions:
REMARK  status: ('A' for Active; 'I' for Inactive)
REMARK    1  A    between atoms: C_4  and  C_5 
REMARK    2  A    between atoms: C_6  and  C_7 
REMARK    3  A    between atoms: C_7  and  C_8 
REMARK    4  A    between atoms: C_8  and  C_9 
REMARK       I    between atoms: C_9  and  N_10 
REMARK    5  A    between atoms: N_10  and  C_11 
REMARK    6  A    between atoms: C_18  and  C_19 
REMARK       I    between atoms: C_19  and  N_20 
ROOT
HETATM    1  C   UNL     1      26.829  41.405  50.464  1.00  0.00     0.035 A 
HETATM    2  C   UNL     1      27.877  40.473  50.489  1.00  0.00     0.046 A 
HETATM    3  C   UNL     1      27.849  39.370  49.607  1.00  0.00     0.030 A 
HETATM    4  C   UNL     1      26.771  39.229  48.743  1.00  0.00     0.063 A 
HETATM    5  N   UNL     1      27.017  38.085  48.037  1.00  0.00    -0.277 N 
HETATM    6  H   UNL     1      26.435  37.670  47.319  1.00  0.00     0.189 HD
HETATM    7  N   UNL     1      28.171  37.475  48.351  1.00  0.00    -0.168 NA
HETATM    8  C   UNL     1      28.700  38.259  49.318  1.00  0.00     0.156 A 
HETATM    9  C   UNL     1      25.711  40.136  48.692  1.00  0.00     0.034 A 
HETATM   10  C   UNL     1      25.769  41.229  49.564  1.00  0.00     0.032 A 
ENDROOT
BRANCH   1  11
HETATM   11  N   UNL     1      26.775  42.551  51.289  1.00  0.00    -0.327 N 
HETATM   12  C   UNL     1      27.034  43.860  50.930  1.00  0.00     0.222 C 
HETATM   13  O   UNL     1      27.392  44.254  49.825  1.00  0.00    -0.273 OA
HETATM   14  H   UNL     1      26.556  42.377  52.259  1.00  0.00     0.169 HD
BRANCH  12  15
HETATM   15  C   UNL     1      26.784  44.862  52.049  1.00  0.00     0.107 C 
BRANCH  15  16
HETATM   16  C   UNL     1      26.424  44.253  53.405  1.00  0.00     0.036 C 
BRANCH  16  17
HETATM   17  C   UNL     1      27.466  44.237  54.490  1.00  0.00    -0.025 C 
HETATM   18  C   UNL     1      28.783  44.465  54.362  1.00  0.00     0.007 C 
BRANCH  18  19
HETATM   19  C   UNL     1      29.727  44.411  55.488  1.00  0.00    -0.036 A 
HETATM   20  C   UNL     1      29.680  45.420  56.458  1.00  0.00     0.011 A 
HETATM   21  C   UNL     1      30.545  45.390  57.556  1.00  0.00     0.001 A 
HETATM   22  C   UNL     1      31.457  44.347  57.698  1.00  0.00     0.000 A 
HETATM   23  C   UNL     1      31.501  43.328  56.748  1.00  0.00     0.001 A 
HETATM   24  C   UNL     1      30.636  43.357  55.651  1.00  0.00     0.011 A 
ENDBRANCH  18  19
ENDBRANCH  16  17
ENDBRANCH  15  16
ENDBRANCH  12  15
ENDBRANCH   1  11
BRANCH   8  25
HETATM   25  C   UNL     1      29.997  37.938  49.929  1.00  0.00     0.270 C 
HETATM   26  N   UNL     1      31.066  38.529  49.311  1.00  0.00    -0.365 N 
HETATM   27  H   UNL     1      30.893  39.132  48.516  1.00  0.00     0.159 HD
HETATM   28  H   UNL     1      31.995  38.381  49.671  1.00  0.00     0.159 HD
HETATM   29  O   UNL     1      30.151  37.218  50.909  1.00  0.00    -0.266 OA
ENDBRANCH   8  25
TORSDOF 6
ENDMDL
MODEL 6
REMARK VINA RESULT:      -8.8      1.863      2.898
REMARK  6 active torsions:
REMARK  status: ('A' for Active; 'I' for Inactive)
REMARK    1  A    between atoms: C_4  and  C_5 
REMARK    2  A    between atoms: C_6  and  C_7 
REMARK    3  A    between atoms: C_7  and  C_8 
REMARK    4  A    between atoms: C_8  and  C_9 
REMARK       I    between atoms: C_9  and  N_10 
REMARK    5  A    between atoms: N_10  and  C_11 
REMARK    6  A    between atoms: C_18  and  C_19 
REMARK       I    between atoms: C_19  and  N_20 
ROOT
HETATM    1  C   UNL     1      23.926  48.448  49.202  1.00  0.00     0.035 A 
HETATM    2  C   UNL     1      22.558  48.187  49.363  1.00  0.00     0.046 A 
HETATM    3  C   UNL     1      21.615  49.196  49.063  1.00  0.00     0.030 A 
HETATM    4  C   UNL     1      22.073  50.433  48.628  1.00  0.00     0.063 A 
HETATM    5  N   UNL     1      20.951  51.189  48.434  1.00  0.00    -0.277 N 
HETATM    6  H   UNL     1      20.907  52.152  48.122  1.00  0.00     0.189 HD
HETATM    7  N   UNL     1      19.799  50.548  48.685  1.00  0.00    -0.168 NA
HETATM    8  C   UNL     1      20.192  49.313  49.072  1.00  0.00     0.156 A 
HETATM    9  C   UNL     1      23.427  50.729  48.458  1.00  0.00     0.034 A 
HETATM   10  C   UNL     1      24.340  49.707  48.747  1.00  0.00     0.032 A 
ENDROOT
BRANCH   1  11
HETATM   11  N   UNL     1      24.943  47.501  49.453  1.00  0.00    -0.327 N 
HETATM   12  C   UNL     1      25.414  47.077  50.681  1.00  0.00     0.222 C 
HETATM   13  O   UNL     1      25.046  47.480  51.780  1.00  0.00    -0.273 OA
HETATM   14  H   UNL     1      25.397  47.123  48.634  1.00  0.00     0.169 HD
BRANCH  12  15
HETATM   15  C   UNL     1      26.453  45.967  50.589  1.00  0.00     0.107 C 
BRANCH  15  16
HETATM   16  C   UNL     1      26.268  44.813  51.576  1.00  0.00     0.036 C 
BRANCH  16  17
HETATM   17  C   UNL     1      27.381  44.501  52.540  1.00  0.00    -0.025 C 
HETATM   18  C   UNL     1      27.673  45.139  53.685  1.00  0.00     0.007 C 
BRANCH  18  19
HETATM   19  C   UNL     1      28.798  44.766  54.554  1.00  0.00    -0.036 A 
HETATM   20  C   UNL     1      29.127  45.601  55.630  1.00  0.00     0.011 A 
HETATM   21  C   UNL     1      30.174  45.268  56.493  1.00  0.00     0.001 A 
HETATM   22  C   UNL     1      30.895  44.092  56.295  1.00  0.00     0.000 A 
HETATM   23  C   UNL     1      30.566  43.245  55.238  1.00  0.00     0.001 A 
HETATM   24  C   UNL     1      29.518  43.578  54.375  1.00  0.00     0.011 A 
ENDBRANCH  18  19
ENDBRANCH  16  17
ENDBRANCH  15  16
ENDBRANCH  12  15
ENDBRANCH   1  11
BRANCH   8  25
HETATM   25  C   UNL     1      19.208  48.281  49.426  1.00  0.00     0.270 C 
HETATM   26  N   UNL     1      19.003  48.145  50.773  1.00  0.00    -0.365 N 
HETATM   27  H   UNL     1      19.514  48.750  51.404  1.00  0.00     0.159 HD
HETATM   28  H   UNL     1      18.332  47.474  51.110  1.00  0.00     0.159 HD
HETATM   29  O   UNL     1      18.598  47.587  48.620  1.00  0.00    -0.266 OA
ENDBRANCH   8  25
TORSDOF 6
ENDMDL
MODEL 7
REMARK VINA RESULT:      -8.5      1.684      2.521
REMARK  6 active torsions:
REMARK  status: ('A' for Active; 'I' for Inactive)
REMARK    1  A    between atoms: C_4  and  C_5 
REMARK    2  A    between atoms: C_6  and  C_7 
REMARK    3  A    between atoms: C_7  and  C_8 
REMARK    4  A    between atoms: C_8  and  C_9 
REMARK       I    between atoms: C_9  and  N_10 
REMARK    5  A    between atoms: N_10  and  C_11 
REMARK    6  A    between atoms: C_18  and  C_19 
REMARK       I    between atoms: C_19  and  N_20 
ROOT
HETATM    1  C   UNL     1      24.147  45.255  50.247  1.00  0.00     0.035 A 
HETATM    2  C   UNL     1      24.260  46.620  49.945  1.00  0.00     0.046 A 
HETATM    3  C   UNL     1      23.385  47.199  48.998  1.00  0.00     0.030 A 
HETATM    4  C   UNL     1      22.441  46.392  48.376  1.00  0.00     0.063 A 
HETATM    5  N   UNL     1      21.765  47.217  47.522  1.00  0.00    -0.277 N 
HETATM    6  H   UNL     1      21.006  46.965  46.898  1.00  0.00     0.189 HD
HETATM    7  N   UNL     1      22.171  48.496  47.544  1.00  0.00    -0.168 NA
HETATM    8  C   UNL     1      23.171  48.503  48.455  1.00  0.00     0.156 A 
HETATM    9  C   UNL     1      22.302  45.031  48.651  1.00  0.00     0.034 A 
HETATM   10  C   UNL     1      23.169  44.484  49.604  1.00  0.00     0.032 A 
ENDROOT
BRANCH   1  11
HETATM   11  N   UNL     1      24.958  44.589  51.192  1.00  0.00    -0.327 N 
HETATM   12  C   UNL     1      26.305  44.295  51.090  1.00  0.00     0.222 C 
HETATM   13  O   UNL     1      27.031  44.540  50.132  1.00  0.00    -0.273 OA
HETATM   14  H   UNL     1      24.480  44.260  52.019  1.00  0.00     0.169 HD
BRANCH  12  15
HETATM   15  C   UNL     1      26.888  43.653  52.341  1.00  0.00     0.107 C 
BRANCH  15  16
HETATM   16  C   UNL     1      28.411  43.509  52.354  1.00  0.00     0.036 C 
BRANCH  16  17
HETATM   17  C   UNL     1      29.130  43.562  53.674  1.00  0.00    -0.025 C 
HETATM   18  C   UNL     1      29.254  44.618  54.495  1.00  0.00     0.007 C 
BRANCH  18  19
HETATM   19  C   UNL     1      29.996  44.572  55.764  1.00  0.00    -0.036 A 
HETATM   20  C   UNL     1      30.923  43.542  55.969  1.00  0.00     0.011 A 
HETATM   21  C   UNL     1      31.664  43.479  57.151  1.00  0.00     0.001 A 
HETATM   22  C   UNL     1      31.493  44.450  58.136  1.00  0.00     0.000 A 
HETATM   23  C   UNL     1      30.586  45.489  57.936  1.00  0.00     0.001 A 
HETATM   24  C   UNL     1      29.845  45.553  56.753  1.00  0.00     0.011 A 
ENDBRANCH  18  19
ENDBRANCH  16  17
ENDBRANCH  15  16
ENDBRANCH  12  15
ENDBRANCH   1  11
BRANCH   8  25
HETATM   25  C   UNL     1      23.883  49.743  48.790  1.00  0.00     0.270 C 
HETATM   26  N   UNL     1      25.074  49.898  48.133  1.00  0.00    -0.365 N 
HETATM   27  H   UNL     1      25.363  49.180  47.479  1.00  0.00     0.159 HD
HETATM   28  H   UNL     1      25.624  50.728  48.285  1.00  0.00     0.159 HD
HETATM   29  O   UNL     1      23.478  50.594  49.575  1.00  0.00    -0.266 OA
ENDBRANCH   8  25
TORSDOF 6
ENDMDL
MODEL 8
REMARK VINA RESULT:      -8.4      3.717      8.728
REMARK  6 active torsions:
REMARK  status: ('A' for Active; 'I' for Inactive)
REMARK    1  A    between atoms: C_4  and  C_5 
REMARK    2  A    between atoms: C_6  and  C_7 
REMARK    3  A    between atoms: C_7  and  C_8 
REMARK    4  A    between atoms: C_8  and  C_9 
REMARK       I    between atoms: C_9  and  N_10 
REMARK    5  A    between atoms: N_10  and  C_11 
REMARK    6  A    between atoms: C_18  and  C_19 
REMARK       I    between atoms: C_19  and  N_20 
ROOT
HETATM    1  C   UNL     1      27.474  43.084  52.797  1.00  0.00     0.035 A 
HETATM    2  C   UNL     1      27.698  44.059  53.780  1.00  0.00     0.046 A 
HETATM    3  C   UNL     1      28.906  44.044  54.513  1.00  0.00     0.030 A 
HETATM    4  C   UNL     1      29.837  43.048  54.251  1.00  0.00     0.063 A 
HETATM    5  N   UNL     1      30.874  43.285  55.109  1.00  0.00    -0.277 N 
HETATM    6  H   UNL     1      31.730  42.749  55.200  1.00  0.00     0.189 HD
HETATM    7  N   UNL     1      30.711  44.360  55.896  1.00  0.00    -0.168 NA
HETATM    8  C   UNL     1      29.499  44.843  55.538  1.00  0.00     0.156 A 
HETATM    9  C   UNL     1      29.646  42.061  53.283  1.00  0.00     0.034 A 
HETATM   10  C   UNL     1      28.450  42.107  52.558  1.00  0.00     0.032 A 
ENDROOT
BRANCH   1  11
HETATM   11  N   UNL     1      26.311  43.026  51.997  1.00  0.00    -0.327 N 
HETATM   12  C   UNL     1      26.231  43.116  50.620  1.00  0.00     0.222 C 
HETATM   13  O   UNL     1      27.167  43.294  49.848  1.00  0.00    -0.273 OA
HETATM   14  H   UNL     1      25.440  42.947  52.502  1.00  0.00     0.169 HD
BRANCH  12  15
HETATM   15  C   UNL     1      24.824  42.914  50.075  1.00  0.00     0.107 C 
BRANCH  15  16
HETATM   16  C   UNL     1      23.951  44.169  50.033  1.00  0.00     0.036 C 
BRANCH  16  17
HETATM   17  C   UNL     1      24.548  45.448  49.510  1.00  0.00    -0.025 C 
HETATM   18  C   UNL     1      24.750  46.591  50.184  1.00  0.00     0.007 C 
BRANCH  18  19
HETATM   19  C   UNL     1      25.328  47.798  49.574  1.00  0.00    -0.036 A 
HETATM   20  C   UNL     1      26.720  47.956  49.578  1.00  0.00     0.011 A 
HETATM   21  C   UNL     1      27.309  49.077  48.988  1.00  0.00     0.001 A 
HETATM   22  C   UNL     1      26.513  50.045  48.380  1.00  0.00     0.000 A 
HETATM   23  C   UNL     1      25.128  49.890  48.354  1.00  0.00     0.001 A 
HETATM   24  C   UNL     1      24.539  48.769  48.944  1.00  0.00     0.011 A 
ENDBRANCH  18  19
ENDBRANCH  16  17
ENDBRANCH  15  16
ENDBRANCH  12  15
ENDBRANCH   1  11
BRANCH   8  25
HETATM   25  C   UNL     1      28.948  46.050  56.168  1.00  0.00     0.270 C 
HETATM   26  N   UNL     1      28.505  46.991  55.279  1.00  0.00    -0.365 N 
HETATM   27  H   UNL     1      28.574  46.792  54.288  1.00  0.00     0.159 HD
HETATM   28  H   UNL     1      28.094  47.846  55.620  1.00  0.00     0.159 HD
HETATM   29  O   UNL     1      28.867  46.235  57.378  1.00  0.00    -0.266 OA
ENDBRANCH   8  25
TORSDOF 6
ENDMDL
MODEL 9
REMARK VINA RESULT:      -8.4      3.499      6.475
REMARK  6 active torsions:
REMARK  status: ('A' for Active; 'I' for Inactive)
REMARK    1  A    between atoms: C_4  and  C_5 
REMARK    2  A    between atoms: C_6  and  C_7 
REMARK    3  A    between atoms: C_7  and  C_8 
REMARK    4  A    between atoms: C_8  and  C_9 
REMARK       I    between atoms: C_9  and  N_10 
REMARK    5  A    between atoms: N_10  and  C_11 
REMARK    6  A    between atoms: C_18  and  C_19 
REMARK       I    between atoms: C_19  and  N_20 
ROOT
HETATM    1  C   UNL     1      25.324  43.680  50.738  1.00  0.00     0.035 A 
HETATM    2  C   UNL     1      26.336  42.710  50.718  1.00  0.00     0.046 A 
HETATM    3  C   UNL     1      26.156  41.530  49.961  1.00  0.00     0.030 A 
HETATM    4  C   UNL     1      24.966  41.355  49.266  1.00  0.00     0.063 A 
HETATM    5  N   UNL     1      25.080  40.139  48.652  1.00  0.00    -0.277 N 
HETATM    6  H   UNL     1      24.393  39.683  48.063  1.00  0.00     0.189 HD
HETATM    7  N   UNL     1      26.247  39.513  48.870  1.00  0.00    -0.168 NA
HETATM    8  C   UNL     1      26.926  40.362  49.675  1.00  0.00     0.156 A 
HETATM    9  C   UNL     1      23.937  42.298  49.265  1.00  0.00     0.034 A 
HETATM   10  C   UNL     1      24.146  43.465  50.009  1.00  0.00     0.032 A 
ENDROOT
BRANCH   1  11
HETATM   11  N   UNL     1      25.417  44.900  51.444  1.00  0.00    -0.327 N 
HETATM   12  C   UNL     1      25.972  46.088  51.006  1.00  0.00     0.222 C 
HETATM   13  O   UNL     1      26.516  46.279  49.923  1.00  0.00    -0.273 OA
HETATM   14  H   UNL     1      25.067  44.882  52.391  1.00  0.00     0.169 HD
BRANCH  12  15
HETATM   15  C   UNL     1      25.814  47.238  51.990  1.00  0.00     0.107 C 
BRANCH  15  16
HETATM   16  C   UNL     1      25.813  46.840  53.467  1.00  0.00     0.036 C 
BRANCH  16  17
HETATM   17  C   UNL     1      27.097  46.359  54.087  1.00  0.00    -0.025 C 
HETATM   18  C   UNL     1      27.478  45.089  54.297  1.00  0.00     0.007 C 
BRANCH  18  19
HETATM   19  C   UNL     1      28.753  44.720  54.928  1.00  0.00    -0.036 A 
HETATM   20  C   UNL     1      29.288  45.561  55.914  1.00  0.00     0.011 A 
HETATM   21  C   UNL     1      30.486  45.233  56.553  1.00  0.00     0.001 A 
HETATM   22  C   UNL     1      31.156  44.058  56.222  1.00  0.00     0.000 A 
HETATM   23  C   UNL     1      30.625  43.205  55.255  1.00  0.00     0.001 A 
HETATM   24  C   UNL     1      29.427  43.532  54.616  1.00  0.00     0.011 A 
ENDBRANCH  18  19
ENDBRANCH  16  17
ENDBRANCH  15  16
ENDBRANCH  12  15
ENDBRANCH   1  11
BRANCH   8  25
HETATM   25  C   UNL     1      28.283  40.045  50.138  1.00  0.00     0.270 C 
HETATM   26  N   UNL     1      29.138  39.662  49.140  1.00  0.00    -0.365 N 
HETATM   27  H   UNL     1      28.792  39.638  48.188  1.00  0.00     0.159 HD
HETATM   28  H   UNL     1      30.096  39.442  49.360  1.00  0.00     0.159 HD
HETATM   29  O   UNL     1      28.660  40.111  51.303  1.00  0.00    -0.266 OA
ENDBRANCH   8  25
TORSDOF 6
ENDMDL
MODEL 10
REMARK VINA RESULT:      -8.3      3.537      9.428
REMARK  6 active torsions:
REMARK  status: ('A' for Active; 'I' for Inactive)
REMARK    1  A    between atoms: C_4  and  C_5 
REMARK    2  A    between atoms: C_6  and  C_7 
REMARK    3  A    between atoms: C_7  and  C_8 
REMARK    4  A    between atoms: C_8  and  C_9 
REMARK       I    between atoms: C_9  and  N_10 
REMARK    5  A    between atoms: N_10  and  C_11 
REMARK    6  A    between atoms: C_18  and  C_19 
REMARK       I    between atoms: C_19  and  N_20 
ROOT
HETATM    1  C   UNL     1      27.686  43.649  52.290  1.00  0.00     0.035 A 
HETATM    2  C   UNL     1      27.783  44.500  53.400  1.00  0.00     0.046 A 
HETATM    3  C   UNL     1      28.857  44.346  54.305  1.00  0.00     0.030 A 
HETATM    4  C   UNL     1      29.786  43.339  54.078  1.00  0.00     0.063 A 
HETATM    5  N   UNL     1      30.681  43.430  55.107  1.00  0.00    -0.277 N 
HETATM    6  H   UNL     1      31.493  42.845  55.268  1.00  0.00     0.189 HD
HETATM    7  N   UNL     1      30.429  44.421  55.977  1.00  0.00    -0.168 NA
HETATM    8  C   UNL     1      29.306  45.000  55.493  1.00  0.00     0.156 A 
HETATM    9  C   UNL     1      29.720  42.473  52.986  1.00  0.00     0.034 A 
HETATM   10  C   UNL     1      28.656  42.656  52.095  1.00  0.00     0.032 A 
ENDROOT
BRANCH   1  11
HETATM   11  N   UNL     1      26.665  43.736  51.319  1.00  0.00    -0.327 N 
HETATM   12  C   UNL     1      26.682  44.456  50.139  1.00  0.00     0.222 C 
HETATM   13  O   UNL     1      27.590  45.180  49.743  1.00  0.00    -0.273 OA
HETATM   14  H   UNL     1      25.813  43.239  51.539  1.00  0.00     0.169 HD
BRANCH  12  15
HETATM   15  C   UNL     1      25.447  44.245  49.275  1.00  0.00     0.107 C 
BRANCH  15  16
HETATM   16  C   UNL     1      24.154  44.853  49.821  1.00  0.00     0.036 C 
BRANCH  16  17
HETATM   17  C   UNL     1      23.909  46.325  49.630  1.00  0.00    -0.025 C 
HETATM   18  C   UNL     1      22.968  46.904  48.867  1.00  0.00     0.007 C 
BRANCH  18  19
HETATM   19  C   UNL     1      22.819  48.361  48.733  1.00  0.00    -0.036 A 
HETATM   20  C   UNL     1      21.591  48.949  49.062  1.00  0.00     0.011 A 
HETATM   21  C   UNL     1      21.418  50.332  48.970  1.00  0.00     0.001 A 
HETATM   22  C   UNL     1      22.475  51.142  48.559  1.00  0.00     0.000 A 
HETATM   23  C   UNL     1      23.707  50.570  48.246  1.00  0.00     0.001 A 
HETATM   24  C   UNL     1      23.880  49.187  48.338  1.00  0.00     0.011 A 
ENDBRANCH  18  19
ENDBRANCH  16  17
ENDBRANCH  15  16
ENDBRANCH  12  15
ENDBRANCH   1  11
BRANCH   8  25
HETATM   25  C   UNL     1      28.701  46.158  56.165  1.00  0.00     0.270 C 
HETATM   26  N   UNL     1      28.771  46.110  57.531  1.00  0.00    -0.365 N 
HETATM   27  H   UNL     1      29.227  45.317  57.965  1.00  0.00     0.159 HD
HETATM   28  H   UNL     1      28.398  46.870  58.077  1.00  0.00     0.159 HD
HETATM   29  O   UNL     1      28.178  47.107  55.591  1.00  0.00    -0.266 OA
ENDBRANCH   8  25
TORSDOF 6
ENDMDL
