MODEL 1
REMARK VINA RESULT:      -7.2      0.000      0.000
REMARK  8 active torsions:
REMARK  status: ('A' for Active; 'I' for Inactive)
REMARK    1  A    between atoms: C_4  and  C_5 
REMARK    2  A    between atoms: C_5  and  N_6 
REMARK    3  A    between atoms: N_6  and  C_9 
REMARK    4  A    between atoms: C_9  and  C_10 
REMARK    5  A    between atoms: C_10  and  C_11 
REMARK    6  A    between atoms: C_11  and  C_12 
REMARK    7  A    between atoms: C_17  and  O_18 
REMARK    8  A    between atoms: C_21  and  O_22 
ROOT
HETATM    1  C   UNL     1      29.050  42.891  53.610  1.00  0.00     0.010 C 
HETATM    2  N   UNL     1      27.816  43.486  53.496  1.00  0.00    -0.359 N 
HETATM    3  H   UNL     1      27.041  43.146  52.941  1.00  0.00     0.166 HD
HETATM    4  C   UNL     1      27.796  44.669  54.198  1.00  0.00     0.048 A 
HETATM    5  C   UNL     1      29.005  44.770  54.882  1.00  0.00     0.026 A 
HETATM    6  C   UNL     1      29.238  45.890  55.706  1.00  0.00     0.083 A 
HETATM    7  C   UNL     1      28.261  46.899  55.772  1.00  0.00     0.074 A 
HETATM    8  C   UNL     1      27.060  46.781  55.070  1.00  0.00     0.073 A 
HETATM    9  C   UNL     1      26.804  45.651  54.284  1.00  0.00     0.067 A 
HETATM   10  C   UNL     1      29.768  43.618  54.537  1.00  0.00     0.041 C 
ENDROOT
BRANCH   1  11
HETATM   11  C   UNL     1      29.441  41.695  52.810  1.00  0.00     0.059 C 
BRANCH  11  12
HETATM   12  C   UNL     1      28.235  40.777  52.564  1.00  0.00     0.033 C 
BRANCH  12  13
HETATM   13  C   UNL     1      27.740  40.834  51.120  1.00  0.00     0.233 C 
BRANCH  13  14
HETATM   14  N   UNL     1      26.282  41.161  51.119  1.00  0.00    -0.067 N 
HETATM   15  H   UNL     1      26.028  41.643  51.992  1.00  0.00     0.277 HD
HETATM   16  H   UNL     1      25.741  40.287  51.120  1.00  0.00     0.277 HD
BRANCH  14  17
HETATM   17  C   UNL     1      25.785  42.000  49.972  1.00  0.00     0.223 C 
HETATM   18  C   UNL     1      26.762  41.924  48.799  1.00  0.00     0.046 C 
BRANCH  17  19
HETATM   19  C   UNL     1      25.572  43.418  50.407  1.00  0.00     0.032 A 
HETATM   20  S   UNL     1      26.715  44.662  50.079  1.00  0.00    -0.076 SA
HETATM   21  C   UNL     1      25.701  45.800  50.874  1.00  0.00     0.071 A 
HETATM   22  C   UNL     1      26.102  47.230  50.970  1.00  0.00     0.078 C 
HETATM   23  N   UNL     1      24.586  45.303  51.362  1.00  0.00    -0.257 NA
HETATM   24  C   UNL     1      24.498  43.957  51.087  1.00  0.00     0.134 A 
ENDBRANCH  17  19
ENDBRANCH  14  17
ENDBRANCH  13  14
ENDBRANCH  12  13
ENDBRANCH  11  12
ENDBRANCH   1  11
BRANCH   6  25
HETATM   25  O   UNL     1      30.450  45.974  56.347  1.00  0.00    -0.355 OA
HETATM   26  C   UNL     1      30.386  45.777  57.758  1.00  0.00     0.210 C 
ENDBRANCH   6  25
BRANCH   8  27
HETATM   27  O   UNL     1      26.048  47.705  55.054  1.00  0.00    -0.356 OA
HETATM   28  C   UNL     1      26.170  48.820  55.929  1.00  0.00     0.210 C 
ENDBRANCH   8  27
TORSDOF 8
ENDMDL
MODEL 2
REMARK VINA RESULT:      -7.2      3.908      5.976
REMARK  8 active torsions:
REMARK  status: ('A' for Active; 'I' for Inactive)
REMARK    1  A    between atoms: C_4  and  C_5 
REMARK    2  A    between atoms: C_5  and  N_6 
REMARK    3  A    between atoms: N_6  and  C_9 
REMARK    4  A    between atoms: C_9  and  C_10 
REMARK    5  A    between atoms: C_10  and  C_11 
REMARK    6  A    between atoms: C_11  and  C_12 
REMARK    7  A    between atoms: C_17  and  O_18 
REMARK    8  A    between atoms: C_21  and  O_22 
ROOT
HETATM    1  C   UNL     1      26.600  45.923  53.527  1.00  0.00     0.010 C 
HETATM    2  N   UNL     1      27.557  46.319  54.432  1.00  0.00    -0.359 N 
HETATM    3  H   UNL     1      27.661  47.247  54.820  1.00  0.00     0.166 HD
HETATM    4  C   UNL     1      28.417  45.277  54.695  1.00  0.00     0.048 A 
HETATM    5  C   UNL     1      27.923  44.151  54.041  1.00  0.00     0.026 A 
HETATM    6  C   UNL     1      28.610  42.926  54.164  1.00  0.00     0.083 A 
HETATM    7  C   UNL     1      29.804  42.889  54.905  1.00  0.00     0.074 A 
HETATM    8  C   UNL     1      30.286  44.033  55.545  1.00  0.00     0.073 A 
HETATM    9  C   UNL     1      29.585  45.243  55.462  1.00  0.00     0.067 A 
HETATM   10  C   UNL     1      26.751  44.564  53.344  1.00  0.00     0.041 C 
ENDROOT
BRANCH   1  11
HETATM   11  C   UNL     1      25.643  46.880  52.903  1.00  0.00     0.059 C 
BRANCH  11  12
HETATM   12  C   UNL     1      25.083  46.323  51.586  1.00  0.00     0.033 C 
BRANCH  12  13
HETATM   13  C   UNL     1      25.115  47.350  50.455  1.00  0.00     0.233 C 
BRANCH  13  14
HETATM   14  N   UNL     1      23.712  47.713  50.089  1.00  0.00    -0.067 N 
HETATM   15  H   UNL     1      23.268  48.228  50.861  1.00  0.00     0.277 HD
HETATM   16  H   UNL     1      23.160  46.853  49.979  1.00  0.00     0.277 HD
BRANCH  14  17
HETATM   17  C   UNL     1      23.536  48.528  48.836  1.00  0.00     0.223 C 
HETATM   18  C   UNL     1      24.706  49.496  48.667  1.00  0.00     0.046 C 
BRANCH  17  19
HETATM   19  C   UNL     1      22.229  49.258  48.859  1.00  0.00     0.032 A 
HETATM   20  S   UNL     1      22.111  50.944  48.533  1.00  0.00    -0.076 SA
HETATM   21  C   UNL     1      20.410  50.869  48.767  1.00  0.00     0.071 A 
HETATM   22  C   UNL     1      19.573  52.091  48.616  1.00  0.00     0.078 C 
HETATM   23  N   UNL     1      19.944  49.678  49.073  1.00  0.00    -0.257 NA
HETATM   24  C   UNL     1      20.967  48.757  49.111  1.00  0.00     0.134 A 
ENDBRANCH  17  19
ENDBRANCH  14  17
ENDBRANCH  13  14
ENDBRANCH  12  13
ENDBRANCH  11  12
ENDBRANCH   1  11
BRANCH   6  25
HETATM   25  O   UNL     1      28.113  41.840  53.485  1.00  0.00    -0.355 OA
HETATM   26  C   UNL     1      28.774  41.564  52.252  1.00  0.00     0.210 C 
ENDBRANCH   6  25
BRANCH   8  27
HETATM   27  O   UNL     1      31.439  44.113  56.281  1.00  0.00    -0.356 OA
HETATM   28  C   UNL     1      31.306  44.197  57.695  1.00  0.00     0.210 C 
ENDBRANCH   8  27
TORSDOF 8
ENDMDL
MODEL 3
REMARK VINA RESULT:      -7.0     13.486     15.838
REMARK  8 active torsions:
REMARK  status: ('A' for Active; 'I' for Inactive)
REMARK    1  A    between atoms: C_4  and  C_5 
REMARK    2  A    between atoms: C_5  and  N_6 
REMARK    3  A    between atoms: N_6  and  C_9 
REMARK    4  A    between atoms: C_9  and  C_10 
REMARK    5  A    between atoms: C_10  and  C_11 
REMARK    6  A    between atoms: C_11  and  C_12 
REMARK    7  A    between atoms: C_17  and  O_18 
REMARK    8  A    between atoms: C_21  and  O_22 
ROOT
HETATM    1  C   UNL     1      34.127  52.306  39.357  1.00  0.00     0.010 C 
HETATM    2  N   UNL     1      33.268  53.213  39.931  1.00  0.00    -0.359 N 
HETATM    3  H   UNL     1      33.529  54.092  40.358  1.00  0.00     0.166 HD
HETATM    4  C   UNL     1      31.981  52.724  39.907  1.00  0.00     0.048 A 
HETATM    5  C   UNL     1      32.000  51.533  39.186  1.00  0.00     0.026 A 
HETATM    6  C   UNL     1      30.794  50.829  38.988  1.00  0.00     0.083 A 
HETATM    7  C   UNL     1      29.615  51.325  39.570  1.00  0.00     0.074 A 
HETATM    8  C   UNL     1      29.622  52.518  40.298  1.00  0.00     0.073 A 
HETATM    9  C   UNL     1      30.808  53.244  40.462  1.00  0.00     0.067 A 
HETATM   10  C   UNL     1      33.354  51.305  38.806  1.00  0.00     0.041 C 
ENDROOT
BRANCH   1  11
HETATM   11  C   UNL     1      35.608  52.466  39.402  1.00  0.00     0.059 C 
BRANCH  11  12
HETATM   12  C   UNL     1      36.119  52.481  40.850  1.00  0.00     0.033 C 
BRANCH  12  13
HETATM   13  C   UNL     1      36.567  51.100  41.327  1.00  0.00     0.233 C 
BRANCH  13  14
HETATM   14  N   UNL     1      35.803  50.741  42.561  1.00  0.00    -0.067 N 
HETATM   15  H   UNL     1      36.359  50.967  43.398  1.00  0.00     0.277 HD
HETATM   16  H   UNL     1      35.668  49.723  42.590  1.00  0.00     0.277 HD
BRANCH  14  17
HETATM   17  C   UNL     1      34.451  51.383  42.723  1.00  0.00     0.223 C 
HETATM   18  C   UNL     1      34.308  51.965  44.129  1.00  0.00     0.046 C 
BRANCH  17  19
HETATM   19  C   UNL     1      33.360  50.399  42.431  1.00  0.00     0.032 A 
HETATM   20  S   UNL     1      31.755  50.605  43.018  1.00  0.00    -0.076 SA
HETATM   21  C   UNL     1      31.288  49.141  42.248  1.00  0.00     0.071 A 
HETATM   22  C   UNL     1      29.883  48.656  42.338  1.00  0.00     0.078 C 
HETATM   23  N   UNL     1      32.250  48.524  41.598  1.00  0.00    -0.257 NA
HETATM   24  C   UNL     1      33.423  49.240  41.684  1.00  0.00     0.134 A 
ENDBRANCH  17  19
ENDBRANCH  14  17
ENDBRANCH  13  14
ENDBRANCH  12  13
ENDBRANCH  11  12
ENDBRANCH   1  11
BRANCH   6  25
HETATM   25  O   UNL     1      30.850  49.644  38.296  1.00  0.00    -0.355 OA
HETATM   26  C   UNL     1      29.860  48.691  38.678  1.00  0.00     0.210 C 
ENDBRANCH   6  25
BRANCH   8  27
HETATM   27  O   UNL     1      28.538  53.085  40.915  1.00  0.00    -0.356 OA
HETATM   28  C   UNL     1      27.494  52.213  41.331  1.00  0.00     0.210 C 
ENDBRANCH   8  27
TORSDOF 8
ENDMDL
MODEL 4
REMARK VINA RESULT:      -6.9      1.455      1.842
REMARK  8 active torsions:
REMARK  status: ('A' for Active; 'I' for Inactive)
REMARK    1  A    between atoms: C_4  and  C_5 
REMARK    2  A    between atoms: C_5  and  N_6 
REMARK    3  A    between atoms: N_6  and  C_9 
REMARK    4  A    between atoms: C_9  and  C_10 
REMARK    5  A    between atoms: C_10  and  C_11 
REMARK    6  A    between atoms: C_11  and  C_12 
REMARK    7  A    between atoms: C_17  and  O_18 
REMARK    8  A    between atoms: C_21  and  O_22 
ROOT
HETATM    1  C   UNL     1      28.416  42.515  53.857  1.00  0.00     0.010 C 
HETATM    2  N   UNL     1      27.243  43.229  53.779  1.00  0.00    -0.359 N 
HETATM    3  H   UNL     1      26.387  42.921  53.338  1.00  0.00     0.166 HD
HETATM    4  C   UNL     1      27.413  44.477  54.336  1.00  0.00     0.048 A 
HETATM    5  C   UNL     1      28.686  44.514  54.897  1.00  0.00     0.026 A 
HETATM    6  C   UNL     1      29.112  45.685  55.560  1.00  0.00     0.083 A 
HETATM    7  C   UNL     1      28.254  46.798  55.590  1.00  0.00     0.074 A 
HETATM    8  C   UNL     1      26.984  46.740  55.012  1.00  0.00     0.073 A 
HETATM    9  C   UNL     1      26.539  45.567  54.389  1.00  0.00     0.067 A 
HETATM   10  C   UNL     1      29.291  43.254  54.626  1.00  0.00     0.041 C 
ENDROOT
BRANCH   1  11
HETATM   11  C   UNL     1      28.602  41.204  53.174  1.00  0.00     0.059 C 
BRANCH  11  12
HETATM   12  C   UNL     1      27.568  41.011  52.056  1.00  0.00     0.033 C 
BRANCH  12  13
HETATM   13  C   UNL     1      27.996  41.664  50.742  1.00  0.00     0.233 C 
BRANCH  13  14
HETATM   14  N   UNL     1      26.795  41.835  49.870  1.00  0.00    -0.067 N 
HETATM   15  H   UNL     1      25.972  41.405  50.315  1.00  0.00     0.277 HD
HETATM   16  H   UNL     1      26.936  41.315  48.995  1.00  0.00     0.277 HD
BRANCH  14  17
HETATM   17  C   UNL     1      26.428  43.248  49.504  1.00  0.00     0.223 C 
HETATM   18  C   UNL     1      27.216  44.238  50.362  1.00  0.00     0.046 C 
BRANCH  17  19
HETATM   19  C   UNL     1      24.953  43.466  49.644  1.00  0.00     0.032 A 
HETATM   20  S   UNL     1      24.059  44.450  48.550  1.00  0.00    -0.076 SA
HETATM   21  C   UNL     1      22.621  44.120  49.431  1.00  0.00     0.071 A 
HETATM   22  C   UNL     1      21.320  44.700  48.997  1.00  0.00     0.078 C 
HETATM   23  N   UNL     1      22.777  43.337  50.476  1.00  0.00    -0.257 NA
HETATM   24  C   UNL     1      24.093  42.949  50.593  1.00  0.00     0.134 A 
ENDBRANCH  17  19
ENDBRANCH  14  17
ENDBRANCH  13  14
ENDBRANCH  12  13
ENDBRANCH  11  12
ENDBRANCH   1  11
BRANCH   6  25
HETATM   25  O   UNL     1      30.383  45.700  56.080  1.00  0.00    -0.355 OA
HETATM   26  C   UNL     1      30.437  45.671  57.505  1.00  0.00     0.210 C 
ENDBRANCH   6  25
BRANCH   8  27
HETATM   27  O   UNL     1      26.075  47.765  54.973  1.00  0.00    -0.356 OA
HETATM   28  C   UNL     1      26.167  48.756  55.990  1.00  0.00     0.210 C 
ENDBRANCH   8  27
TORSDOF 8
ENDMDL
MODEL 5
REMARK VINA RESULT:      -6.9      2.087      4.758
REMARK  8 active torsions:
REMARK  status: ('A' for Active; 'I' for Inactive)
REMARK    1  A    between atoms: C_4  and  C_5 
REMARK    2  A    between atoms: C_5  and  N_6 
REMARK    3  A    between atoms: N_6  and  C_9 
REMARK    4  A    between atoms: C_9  and  C_10 
REMARK    5  A    between atoms: C_10  and  C_11 
REMARK    6  A    between atoms: C_11  and  C_12 
REMARK    7  A    between atoms: C_17  and  O_18 
REMARK    8  A    between atoms: C_21  and  O_22 
ROOT
HETATM    1  C   UNL     1      26.689  45.900  53.279  1.00  0.00     0.010 C 
HETATM    2  N   UNL     1      27.337  46.257  54.439  1.00  0.00    -0.359 N 
HETATM    3  H   UNL     1      27.146  47.078  54.998  1.00  0.00     0.166 HD
HETATM    4  C   UNL     1      28.349  45.364  54.708  1.00  0.00     0.048 A 
HETATM    5  C   UNL     1      28.264  44.340  53.768  1.00  0.00     0.026 A 
HETATM    6  C   UNL     1      29.180  43.270  53.831  1.00  0.00     0.083 A 
HETATM    7  C   UNL     1      30.186  43.295  54.812  1.00  0.00     0.074 A 
HETATM    8  C   UNL     1      30.258  44.337  55.739  1.00  0.00     0.073 A 
HETATM    9  C   UNL     1      29.325  45.381  55.709  1.00  0.00     0.067 A 
HETATM   10  C   UNL     1      27.184  44.669  52.900  1.00  0.00     0.041 C 
ENDROOT
BRANCH   1  11
HETATM   11  C   UNL     1      25.673  46.774  52.628  1.00  0.00     0.059 C 
BRANCH  11  12
HETATM   12  C   UNL     1      26.011  47.008  51.149  1.00  0.00     0.033 C 
BRANCH  12  13
HETATM   13  C   UNL     1      24.951  46.437  50.208  1.00  0.00     0.233 C 
BRANCH  13  14
HETATM   14  N   UNL     1      25.512  45.238  49.515  1.00  0.00    -0.067 N 
HETATM   15  H   UNL     1      26.311  44.865  50.046  1.00  0.00     0.277 HD
HETATM   16  H   UNL     1      25.897  45.523  48.605  1.00  0.00     0.277 HD
BRANCH  14  17
HETATM   17  C   UNL     1      24.558  44.101  49.265  1.00  0.00     0.223 C 
HETATM   18  C   UNL     1      23.425  44.127  50.291  1.00  0.00     0.046 C 
BRANCH  17  19
HETATM   19  C   UNL     1      25.280  42.788  49.292  1.00  0.00     0.032 A 
HETATM   20  S   UNL     1      26.944  42.662  49.715  1.00  0.00    -0.076 SA
HETATM   21  C   UNL     1      26.870  40.960  49.487  1.00  0.00     0.071 A 
HETATM   22  C   UNL     1      28.076  40.116  49.712  1.00  0.00     0.078 C 
HETATM   23  N   UNL     1      25.697  40.500  49.114  1.00  0.00    -0.257 NA
HETATM   24  C   UNL     1      24.786  41.528  49.018  1.00  0.00     0.134 A 
ENDBRANCH  17  19
ENDBRANCH  14  17
ENDBRANCH  13  14
ENDBRANCH  12  13
ENDBRANCH  11  12
ENDBRANCH   1  11
BRANCH   6  25
HETATM   25  O   UNL     1      29.088  42.289  52.873  1.00  0.00    -0.355 OA
HETATM   26  C   UNL     1      28.399  41.114  53.298  1.00  0.00     0.210 C 
ENDBRANCH   6  25
BRANCH   8  27
HETATM   27  O   UNL     1      31.199  44.466  56.727  1.00  0.00    -0.356 OA
HETATM   28  C   UNL     1      31.842  43.279  57.174  1.00  0.00     0.210 C 
ENDBRANCH   8  27
TORSDOF 8
ENDMDL
MODEL 6
REMARK VINA RESULT:      -6.8      5.101      7.130
REMARK  8 active torsions:
REMARK  status: ('A' for Active; 'I' for Inactive)
REMARK    1  A    between atoms: C_4  and  C_5 
REMARK    2  A    between atoms: C_5  and  N_6 
REMARK    3  A    between atoms: N_6  and  C_9 
REMARK    4  A    between atoms: C_9  and  C_10 
REMARK    5  A    between atoms: C_10  and  C_11 
REMARK    6  A    between atoms: C_11  and  C_12 
REMARK    7  A    between atoms: C_17  and  O_18 
REMARK    8  A    between atoms: C_21  and  O_22 
ROOT
HETATM    1  C   UNL     1      25.323  46.049  50.941  1.00  0.00     0.010 C 
HETATM    2  N   UNL     1      26.296  45.077  50.926  1.00  0.00    -0.359 N 
HETATM    3  H   UNL     1      26.548  44.499  50.134  1.00  0.00     0.166 HD
HETATM    4  C   UNL     1      26.850  44.945  52.179  1.00  0.00     0.048 A 
HETATM    5  C   UNL     1      26.308  45.944  52.983  1.00  0.00     0.026 A 
HETATM    6  C   UNL     1      26.727  46.049  54.326  1.00  0.00     0.083 A 
HETATM    7  C   UNL     1      27.644  45.108  54.827  1.00  0.00     0.074 A 
HETATM    8  C   UNL     1      28.167  44.109  54.003  1.00  0.00     0.073 A 
HETATM    9  C   UNL     1      27.788  44.025  52.658  1.00  0.00     0.067 A 
HETATM   10  C   UNL     1      25.380  46.661  52.176  1.00  0.00     0.041 C 
ENDROOT
BRANCH   1  11
HETATM   11  C   UNL     1      24.416  46.293  49.784  1.00  0.00     0.059 C 
BRANCH  11  12
HETATM   12  C   UNL     1      23.861  47.724  49.808  1.00  0.00     0.033 C 
BRANCH  12  13
HETATM   13  C   UNL     1      22.781  47.952  48.751  1.00  0.00     0.233 C 
BRANCH  13  14
HETATM   14  N   UNL     1      21.668  48.744  49.357  1.00  0.00    -0.067 N 
HETATM   15  H   UNL     1      21.899  48.989  50.329  1.00  0.00     0.277 HD
HETATM   16  H   UNL     1      20.828  48.155  49.414  1.00  0.00     0.277 HD
BRANCH  14  17
HETATM   17  C   UNL     1      21.284  50.013  48.644  1.00  0.00     0.223 C 
HETATM   18  C   UNL     1      22.405  51.045  48.762  1.00  0.00     0.046 C 
BRANCH  17  19
HETATM   19  C   UNL     1      19.995  50.553  49.183  1.00  0.00     0.032 A 
HETATM   20  S   UNL     1      19.316  52.035  48.631  1.00  0.00    -0.076 SA
HETATM   21  C   UNL     1      17.993  51.828  49.709  1.00  0.00     0.071 A 
HETATM   22  C   UNL     1      16.899  52.837  49.764  1.00  0.00     0.078 C 
HETATM   23  N   UNL     1      18.040  50.738  50.442  1.00  0.00    -0.257 NA
HETATM   24  C   UNL     1      19.163  50.002  50.137  1.00  0.00     0.134 A 
ENDBRANCH  17  19
ENDBRANCH  14  17
ENDBRANCH  13  14
ENDBRANCH  12  13
ENDBRANCH  11  12
ENDBRANCH   1  11
BRANCH   6  25
HETATM   25  O   UNL     1      26.154  47.028  55.101  1.00  0.00    -0.355 OA
HETATM   26  C   UNL     1      27.010  48.134  55.380  1.00  0.00     0.210 C 
ENDBRANCH   6  25
BRANCH   8  27
HETATM   27  O   UNL     1      29.054  43.138  54.388  1.00  0.00    -0.356 OA
HETATM   28  C   UNL     1      30.172  43.548  55.167  1.00  0.00     0.210 C 
ENDBRANCH   8  27
TORSDOF 8
ENDMDL
MODEL 7
REMARK VINA RESULT:      -6.8     12.719     14.312
REMARK  8 active torsions:
REMARK  status: ('A' for Active; 'I' for Inactive)
REMARK    1  A    between atoms: C_4  and  C_5 
REMARK    2  A    between atoms: C_5  and  N_6 
REMARK    3  A    between atoms: N_6  and  C_9 
REMARK    4  A    between atoms: C_9  and  C_10 
REMARK    5  A    between atoms: C_10  and  C_11 
REMARK    6  A    between atoms: C_11  and  C_12 
REMARK    7  A    between atoms: C_17  and  O_18 
REMARK    8  A    between atoms: C_21  and  O_22 
ROOT
HETATM    1  C   UNL     1      30.270  47.864  39.477  1.00  0.00     0.010 C 
HETATM    2  N   UNL     1      30.344  47.832  40.850  1.00  0.00    -0.359 N 
HETATM    3  H   UNL     1      29.912  47.145  41.453  1.00  0.00     0.166 HD
HETATM    4  C   UNL     1      31.045  48.924  41.310  1.00  0.00     0.048 A 
HETATM    5  C   UNL     1      31.541  49.601  40.199  1.00  0.00     0.026 A 
HETATM    6  C   UNL     1      32.324  50.758  40.391  1.00  0.00     0.083 A 
HETATM    7  C   UNL     1      32.539  51.222  41.700  1.00  0.00     0.074 A 
HETATM    8  C   UNL     1      32.024  50.531  42.800  1.00  0.00     0.073 A 
HETATM    9  C   UNL     1      31.281  49.358  42.618  1.00  0.00     0.067 A 
HETATM   10  C   UNL     1      31.081  48.895  39.051  1.00  0.00     0.041 C 
ENDROOT
BRANCH   1  11
HETATM   11  C   UNL     1      29.418  46.922  38.698  1.00  0.00     0.059 C 
BRANCH  11  12
HETATM   12  C   UNL     1      28.508  46.104  39.625  1.00  0.00     0.033 C 
BRANCH  12  13
HETATM   13  C   UNL     1      27.104  46.697  39.741  1.00  0.00     0.233 C 
BRANCH  13  14
HETATM   14  N   UNL     1      27.038  47.951  38.930  1.00  0.00    -0.067 N 
HETATM   15  H   UNL     1      26.622  47.754  38.010  1.00  0.00     0.277 HD
HETATM   16  H   UNL     1      27.994  48.276  38.734  1.00  0.00     0.277 HD
BRANCH  14  17
HETATM   17  C   UNL     1      26.283  49.102  39.537  1.00  0.00     0.223 C 
HETATM   18  C   UNL     1      25.275  49.661  38.533  1.00  0.00     0.046 C 
BRANCH  17  19
HETATM   19  C   UNL     1      27.227  50.168  40.003  1.00  0.00     0.032 A 
HETATM   20  S   UNL     1      27.922  51.317  38.927  1.00  0.00    -0.076 SA
HETATM   21  C   UNL     1      28.761  52.038  40.242  1.00  0.00     0.071 A 
HETATM   22  C   UNL     1      29.641  53.219  40.019  1.00  0.00     0.078 C 
HETATM   23  N   UNL     1      28.555  51.471  41.410  1.00  0.00    -0.257 NA
HETATM   24  C   UNL     1      27.674  50.421  41.285  1.00  0.00     0.134 A 
ENDBRANCH  17  19
ENDBRANCH  14  17
ENDBRANCH  13  14
ENDBRANCH  12  13
ENDBRANCH  11  12
ENDBRANCH   1  11
BRANCH   6  25
HETATM   25  O   UNL     1      32.776  51.419  39.275  1.00  0.00    -0.355 OA
HETATM   26  C   UNL     1      33.450  52.646  39.550  1.00  0.00     0.210 C 
ENDBRANCH   6  25
BRANCH   8  27
HETATM   27  O   UNL     1      32.163  50.899  44.113  1.00  0.00    -0.356 OA
HETATM   28  C   UNL     1      33.125  51.903  44.410  1.00  0.00     0.210 C 
ENDBRANCH   8  27
TORSDOF 8
ENDMDL
MODEL 8
REMARK VINA RESULT:      -6.7      3.387      5.106
REMARK  8 active torsions:
REMARK  status: ('A' for Active; 'I' for Inactive)
REMARK    1  A    between atoms: C_4  and  C_5 
REMARK    2  A    between atoms: C_5  and  N_6 
REMARK    3  A    between atoms: N_6  and  C_9 
REMARK    4  A    between atoms: C_9  and  C_10 
REMARK    5  A    between atoms: C_10  and  C_11 
REMARK    6  A    between atoms: C_11  and  C_12 
REMARK    7  A    between atoms: C_17  and  O_18 
REMARK    8  A    between atoms: C_21  and  O_22 
ROOT
HETATM    1  C   UNL     1      26.452  43.715  52.206  1.00  0.00     0.010 C 
HETATM    2  N   UNL     1      27.617  43.003  52.366  1.00  0.00    -0.359 N 
HETATM    3  H   UNL     1      27.898  42.194  51.827  1.00  0.00     0.166 HD
HETATM    4  C   UNL     1      28.337  43.506  53.426  1.00  0.00     0.048 A 
HETATM    5  C   UNL     1      27.678  44.648  53.874  1.00  0.00     0.026 A 
HETATM    6  C   UNL     1      28.222  45.379  54.950  1.00  0.00     0.083 A 
HETATM    7  C   UNL     1      29.389  44.904  55.572  1.00  0.00     0.074 A 
HETATM    8  C   UNL     1      30.028  43.750  55.112  1.00  0.00     0.073 A 
HETATM    9  C   UNL     1      29.516  43.043  54.016  1.00  0.00     0.067 A 
HETATM   10  C   UNL     1      26.514  44.793  53.066  1.00  0.00     0.041 C 
ENDROOT
BRANCH   1  11
HETATM   11  C   UNL     1      25.377  43.294  51.264  1.00  0.00     0.059 C 
BRANCH  11  12
HETATM   12  C   UNL     1      24.316  44.392  51.109  1.00  0.00     0.033 C 
BRANCH  12  13
HETATM   13  C   UNL     1      24.269  44.964  49.692  1.00  0.00     0.233 C 
BRANCH  13  14
HETATM   14  N   UNL     1      23.187  45.993  49.620  1.00  0.00    -0.067 N 
HETATM   15  H   UNL     1      22.790  46.153  50.556  1.00  0.00     0.277 HD
HETATM   16  H   UNL     1      22.411  45.627  49.053  1.00  0.00     0.277 HD
BRANCH  14  17
HETATM   17  C   UNL     1      23.572  47.332  49.051  1.00  0.00     0.223 C 
HETATM   18  C   UNL     1      24.714  47.942  49.863  1.00  0.00     0.046 C 
BRANCH  17  19
HETATM   19  C   UNL     1      22.389  48.249  49.009  1.00  0.00     0.032 A 
HETATM   20  S   UNL     1      22.545  49.959  49.134  1.00  0.00    -0.076 SA
HETATM   21  C   UNL     1      20.840  50.123  48.994  1.00  0.00     0.071 A 
HETATM   22  C   UNL     1      20.207  51.471  49.015  1.00  0.00     0.078 C 
HETATM   23  N   UNL     1      20.182  48.992  48.870  1.00  0.00    -0.257 NA
HETATM   24  C   UNL     1      21.054  47.927  48.860  1.00  0.00     0.134 A 
ENDBRANCH  17  19
ENDBRANCH  14  17
ENDBRANCH  13  14
ENDBRANCH  12  13
ENDBRANCH  11  12
ENDBRANCH   1  11
BRANCH   6  25
HETATM   25  O   UNL     1      27.535  46.486  55.386  1.00  0.00    -0.355 OA
HETATM   26  C   UNL     1      27.959  47.713  54.797  1.00  0.00     0.210 C 
ENDBRANCH   6  25
BRANCH   8  27
HETATM   27  O   UNL     1      31.160  43.194  55.648  1.00  0.00    -0.356 OA
HETATM   28  C   UNL     1      31.456  43.500  57.005  1.00  0.00     0.210 C 
ENDBRANCH   8  27
TORSDOF 8
ENDMDL
MODEL 9
REMARK VINA RESULT:      -6.7      3.274      5.335
REMARK  8 active torsions:
REMARK  status: ('A' for Active; 'I' for Inactive)
REMARK    1  A    between atoms: C_4  and  C_5 
REMARK    2  A    between atoms: C_5  and  N_6 
REMARK    3  A    between atoms: N_6  and  C_9 
REMARK    4  A    between atoms: C_9  and  C_10 
REMARK    5  A    between atoms: C_10  and  C_11 
REMARK    6  A    between atoms: C_11  and  C_12 
REMARK    7  A    between atoms: C_17  and  O_18 
REMARK    8  A    between atoms: C_21  and  O_22 
ROOT
HETATM    1  C   UNL     1      25.806  44.316  51.485  1.00  0.00     0.010 C 
HETATM    2  N   UNL     1      27.053  43.836  51.810  1.00  0.00    -0.359 N 
HETATM    3  H   UNL     1      27.571  43.131  51.301  1.00  0.00     0.166 HD
HETATM    4  C   UNL     1      27.485  44.404  52.987  1.00  0.00     0.048 A 
HETATM    5  C   UNL     1      26.549  45.366  53.355  1.00  0.00     0.026 A 
HETATM    6  C   UNL     1      26.763  46.123  54.526  1.00  0.00     0.083 A 
HETATM    7  C   UNL     1      27.893  45.847  55.315  1.00  0.00     0.074 A 
HETATM    8  C   UNL     1      28.815  44.870  54.931  1.00  0.00     0.073 A 
HETATM    9  C   UNL     1      28.630  44.145  53.747  1.00  0.00     0.067 A 
HETATM   10  C   UNL     1      25.517  45.330  52.374  1.00  0.00     0.041 C 
ENDROOT
BRANCH   1  11
HETATM   11  C   UNL     1      24.995  43.751  50.370  1.00  0.00     0.059 C 
BRANCH  11  12
HETATM   12  C   UNL     1      23.559  44.292  50.401  1.00  0.00     0.033 C 
BRANCH  12  13
HETATM   13  C   UNL     1      23.210  45.100  49.151  1.00  0.00     0.233 C 
BRANCH  13  14
HETATM   14  N   UNL     1      22.961  46.519  49.545  1.00  0.00    -0.067 N 
HETATM   15  H   UNL     1      22.970  46.608  50.571  1.00  0.00     0.277 HD
HETATM   16  H   UNL     1      22.011  46.788  49.256  1.00  0.00     0.277 HD
BRANCH  14  17
HETATM   17  C   UNL     1      23.911  47.546  48.989  1.00  0.00     0.223 C 
HETATM   18  C   UNL     1      25.136  47.677  49.894  1.00  0.00     0.046 C 
BRANCH  17  19
HETATM   19  C   UNL     1      23.223  48.865  48.817  1.00  0.00     0.032 A 
HETATM   20  S   UNL     1      21.517  49.040  48.968  1.00  0.00    -0.076 SA
HETATM   21  C   UNL     1      21.663  50.722  48.642  1.00  0.00     0.071 A 
HETATM   22  C   UNL     1      20.456  51.593  48.622  1.00  0.00     0.078 C 
HETATM   23  N   UNL     1      22.890  51.141  48.426  1.00  0.00    -0.257 NA
HETATM   24  C   UNL     1      23.781  50.098  48.541  1.00  0.00     0.134 A 
ENDBRANCH  17  19
ENDBRANCH  14  17
ENDBRANCH  13  14
ENDBRANCH  12  13
ENDBRANCH  11  12
ENDBRANCH   1  11
BRANCH   6  25
HETATM   25  O   UNL     1      25.808  47.045  54.877  1.00  0.00    -0.355 OA
HETATM   26  C   UNL     1      26.330  48.313  55.271  1.00  0.00     0.210 C 
ENDBRANCH   6  25
BRANCH   8  27
HETATM   27  O   UNL     1      29.940  44.514  55.626  1.00  0.00    -0.356 OA
HETATM   28  C   UNL     1      30.604  43.321  55.225  1.00  0.00     0.210 C 
ENDBRANCH   8  27
TORSDOF 8
ENDMDL
MODEL 10
REMARK VINA RESULT:      -6.7     13.156     15.509
REMARK  8 active torsions:
REMARK  status: ('A' for Active; 'I' for Inactive)
REMARK    1  A    between atoms: C_4  and  C_5 
REMARK    2  A    between atoms: C_5  and  N_6 
REMARK    3  A    between atoms: N_6  and  C_9 
REMARK    4  A    between atoms: C_9  and  C_10 
REMARK    5  A    between atoms: C_10  and  C_11 
REMARK    6  A    between atoms: C_11  and  C_12 
REMARK    7  A    between atoms: C_17  and  O_18 
REMARK    8  A    between atoms: C_21  and  O_22 
ROOT
HETATM    1  C   UNL     1      28.493  51.333  38.640  1.00  0.00     0.010 C 
HETATM    2  N   UNL     1      29.601  50.946  37.922  1.00  0.00    -0.359 N 
HETATM    3  H   UNL     1      29.600  50.364  37.095  1.00  0.00     0.166 HD
HETATM    4  C   UNL     1      30.744  51.411  38.531  1.00  0.00     0.048 A 
HETATM    5  C   UNL     1      30.351  52.223  39.592  1.00  0.00     0.026 A 
HETATM    6  C   UNL     1      31.339  52.853  40.379  1.00  0.00     0.083 A 
HETATM    7  C   UNL     1      32.693  52.600  40.098  1.00  0.00     0.074 A 
HETATM    8  C   UNL     1      33.063  51.775  39.034  1.00  0.00     0.073 A 
HETATM    9  C   UNL     1      32.088  51.181  38.223  1.00  0.00     0.067 A 
HETATM   10  C   UNL     1      28.928  52.200  39.621  1.00  0.00     0.041 C 
ENDROOT
BRANCH   1  11
HETATM   11  C   UNL     1      27.125  50.826  38.338  1.00  0.00     0.059 C 
BRANCH  11  12
HETATM   12  C   UNL     1      27.103  49.292  38.285  1.00  0.00     0.033 C 
BRANCH  12  13
HETATM   13  C   UNL     1      26.429  48.672  39.508  1.00  0.00     0.233 C 
BRANCH  13  14
HETATM   14  N   UNL     1      27.482  48.143  40.427  1.00  0.00    -0.067 N 
HETATM   15  H   UNL     1      27.082  47.425  41.046  1.00  0.00     0.277 HD
HETATM   16  H   UNL     1      27.796  48.898  41.051  1.00  0.00     0.277 HD
BRANCH  14  17
HETATM   17  C   UNL     1      28.706  47.556  39.776  1.00  0.00     0.223 C 
HETATM   18  C   UNL     1      28.675  46.031  39.873  1.00  0.00     0.046 C 
BRANCH  17  19
HETATM   19  C   UNL     1      29.952  48.111  40.394  1.00  0.00     0.032 A 
HETATM   20  S   UNL     1      29.920  49.093  41.808  1.00  0.00    -0.076 SA
HETATM   21  C   UNL     1      31.633  49.223  41.754  1.00  0.00     0.071 A 
HETATM   22  C   UNL     1      32.363  50.004  42.790  1.00  0.00     0.078 C 
HETATM   23  N   UNL     1      32.206  48.591  40.754  1.00  0.00    -0.257 NA
HETATM   24  C   UNL     1      31.262  47.945  39.989  1.00  0.00     0.134 A 
ENDBRANCH  17  19
ENDBRANCH  14  17
ENDBRANCH  13  14
ENDBRANCH  12  13
ENDBRANCH  11  12
ENDBRANCH   1  11
BRANCH   6  25
HETATM   25  O   UNL     1      30.921  53.625  41.435  1.00  0.00    -0.355 OA
HETATM   26  C   UNL     1      30.547  52.884  42.595  1.00  0.00     0.210 C 
ENDBRANCH   6  25
BRANCH   8  27
HETATM   27  O   UNL     1      34.347  51.454  38.679  1.00  0.00    -0.356 OA
HETATM   28  C   UNL     1      35.393  51.930  39.517  1.00  0.00     0.210 C 
ENDBRANCH   8  27
TORSDOF 8
ENDMDL
