MODEL 1
REMARK VINA RESULT:      -8.7      0.000      0.000
REMARK  5 active torsions:
REMARK  status: ('A' for Active; 'I' for Inactive)
REMARK    1  A    between atoms: C_2  and  C_3 
REMARK    2  A    between atoms: C_11  and  N_12 
REMARK       I    between atoms: N_12  and  C_13 
REMARK    3  A    between atoms: C_13  and  C_14 
REMARK    4  A    between atoms: C_16  and  O_17 
REMARK    5  A    between atoms: O_17  and  C_18 
ROOT
HETATM    1  N   UNL     1      25.487  46.270  52.038  1.00  0.00    -0.323 N 
HETATM    2  C   UNL     1      25.522  47.141  50.964  1.00  0.00     0.256 C 
HETATM    3  O   UNL     1      26.387  47.978  50.730  1.00  0.00    -0.267 OA
HETATM    4  H   UNL     1      24.676  45.678  52.139  1.00  0.00     0.169 HD
ENDROOT
BRANCH   1   5
HETATM    5  C   UNL     1      26.424  46.188  53.093  1.00  0.00     0.035 A 
HETATM    6  C   UNL     1      26.663  47.213  54.009  1.00  0.00     0.030 A 
HETATM    7  C   UNL     1      27.578  47.040  55.057  1.00  0.00     0.016 A 
HETATM    8  C   UNL     1      28.280  45.839  55.209  1.00  0.00    -0.005 A 
HETATM    9  C   UNL     1      28.059  44.823  54.270  1.00  0.00     0.016 A 
HETATM   10  C   UNL     1      27.139  44.994  53.227  1.00  0.00     0.030 A 
BRANCH   8  11
HETATM   11  C   UNL     1      29.213  45.638  56.324  1.00  0.00     0.088 A 
HETATM   12  N   UNL     1      30.335  44.908  56.186  1.00  0.00    -0.175 NA
HETATM   13  N   UNL     1      30.915  44.938  57.394  1.00  0.00    -0.289 N 
HETATM   14  H   UNL     1      31.793  44.443  57.517  1.00  0.00     0.188 HD
HETATM   15  C   UNL     1      30.217  45.651  58.317  1.00  0.00     0.111 A 
HETATM   16  C   UNL     1      29.108  46.121  57.660  1.00  0.00     0.053 A 
ENDBRANCH   8  11
ENDBRANCH   1   5
BRANCH   2  17
HETATM   17  C   UNL     1      24.371  47.062  50.020  1.00  0.00     0.037 A 
HETATM   18  C   UNL     1      23.844  48.262  49.543  1.00  0.00     0.075 A 
HETATM   19  C   UNL     1      22.796  48.203  48.649  1.00  0.00     0.165 A 
HETATM   20  N   UNL     1      22.243  47.053  48.213  1.00  0.00    -0.237 NA
HETATM   21  C   UNL     1      22.777  45.906  48.682  1.00  0.00     0.120 A 
HETATM   22  C   UNL     1      23.836  45.853  49.574  1.00  0.00     0.036 A 
BRANCH  19  23
HETATM   23  O   UNL     1      22.307  49.411  48.191  1.00  0.00    -0.329 OA
BRANCH  23  24
HETATM   24  C   UNL     1      21.050  49.846  48.749  1.00  0.00     0.130 C 
HETATM   25  C   UNL     1      21.105  50.885  49.901  1.00  0.00     0.032 C 
HETATM   26  C   UNL     1      19.887  51.571  49.256  1.00  0.00     0.005 C 
HETATM   27  C   UNL     1      20.327  50.943  47.922  1.00  0.00     0.032 C 
ENDBRANCH  23  24
ENDBRANCH  19  23
ENDBRANCH   2  17
TORSDOF 5
ENDMDL
MODEL 2
REMARK VINA RESULT:      -8.7      1.268      1.709
REMARK  5 active torsions:
REMARK  status: ('A' for Active; 'I' for Inactive)
REMARK    1  A    between atoms: C_2  and  C_3 
REMARK    2  A    between atoms: C_11  and  N_12 
REMARK       I    between atoms: N_12  and  C_13 
REMARK    3  A    between atoms: C_13  and  C_14 
REMARK    4  A    between atoms: C_16  and  O_17 
REMARK    5  A    between atoms: O_17  and  C_18 
ROOT
HETATM    1  N   UNL     1      25.983  45.986  52.629  1.00  0.00    -0.323 N 
HETATM    2  C   UNL     1      26.103  45.685  51.284  1.00  0.00     0.256 C 
HETATM    3  O   UNL     1      27.042  45.112  50.745  1.00  0.00    -0.267 OA
HETATM    4  H   UNL     1      25.180  46.522  52.923  1.00  0.00     0.169 HD
ENDROOT
BRANCH   1   5
HETATM    5  C   UNL     1      26.929  45.717  53.644  1.00  0.00     0.035 A 
HETATM    6  C   UNL     1      27.494  44.462  53.874  1.00  0.00     0.030 A 
HETATM    7  C   UNL     1      28.461  44.284  54.874  1.00  0.00     0.016 A 
HETATM    8  C   UNL     1      28.881  45.355  55.669  1.00  0.00    -0.005 A 
HETATM    9  C   UNL     1      28.291  46.607  55.453  1.00  0.00     0.016 A 
HETATM   10  C   UNL     1      27.329  46.787  54.450  1.00  0.00     0.030 A 
BRANCH   8  11
HETATM   11  C   UNL     1      29.919  45.183  56.693  1.00  0.00     0.088 A 
HETATM   12  N   UNL     1      29.987  45.982  57.774  1.00  0.00    -0.175 NA
HETATM   13  N   UNL     1      31.048  45.538  58.462  1.00  0.00    -0.289 N 
HETATM   14  H   UNL     1      31.286  46.006  59.331  1.00  0.00     0.188 HD
HETATM   15  C   UNL     1      31.681  44.489  57.873  1.00  0.00     0.111 A 
HETATM   16  C   UNL     1      30.977  44.229  56.725  1.00  0.00     0.053 A 
ENDBRANCH   8  11
ENDBRANCH   1   5
BRANCH   2  17
HETATM   17  C   UNL     1      24.981  46.136  50.411  1.00  0.00     0.037 A 
HETATM   18  C   UNL     1      24.665  47.495  50.417  1.00  0.00     0.075 A 
HETATM   19  C   UNL     1      23.648  47.930  49.595  1.00  0.00     0.165 A 
HETATM   20  N   UNL     1      22.932  47.120  48.790  1.00  0.00    -0.237 NA
HETATM   21  C   UNL     1      23.264  45.811  48.795  1.00  0.00     0.120 A 
HETATM   22  C   UNL     1      24.275  45.272  49.575  1.00  0.00     0.036 A 
BRANCH  19  23
HETATM   23  O   UNL     1      23.370  49.283  49.622  1.00  0.00    -0.329 OA
BRANCH  23  24
HETATM   24  C   UNL     1      22.050  49.675  49.194  1.00  0.00     0.130 C 
HETATM   25  C   UNL     1      21.384  50.862  49.940  1.00  0.00     0.032 C 
HETATM   26  C   UNL     1      20.855  51.341  48.576  1.00  0.00     0.005 C 
HETATM   27  C   UNL     1      22.027  50.579  47.932  1.00  0.00     0.032 C 
ENDBRANCH  23  24
ENDBRANCH  19  23
ENDBRANCH   2  17
TORSDOF 5
ENDMDL
MODEL 3
REMARK VINA RESULT:      -8.4      1.448      1.903
REMARK  5 active torsions:
REMARK  status: ('A' for Active; 'I' for Inactive)
REMARK    1  A    between atoms: C_2  and  C_3 
REMARK    2  A    between atoms: C_11  and  N_12 
REMARK       I    between atoms: N_12  and  C_13 
REMARK    3  A    between atoms: C_13  and  C_14 
REMARK    4  A    between atoms: C_16  and  O_17 
REMARK    5  A    between atoms: O_17  and  C_18 
ROOT
HETATM    1  N   UNL     1      24.933  46.089  51.145  1.00  0.00    -0.323 N 
HETATM    2  C   UNL     1      24.960  47.238  50.374  1.00  0.00     0.256 C 
HETATM    3  O   UNL     1      25.884  48.037  50.286  1.00  0.00    -0.267 OA
HETATM    4  H   UNL     1      24.076  45.558  51.171  1.00  0.00     0.169 HD
ENDROOT
BRANCH   1   5
HETATM    5  C   UNL     1      25.954  45.624  52.005  1.00  0.00     0.035 A 
HETATM    6  C   UNL     1      26.865  44.623  51.667  1.00  0.00     0.030 A 
HETATM    7  C   UNL     1      27.880  44.246  52.560  1.00  0.00     0.016 A 
HETATM    8  C   UNL     1      28.002  44.858  53.812  1.00  0.00    -0.005 A 
HETATM    9  C   UNL     1      27.067  45.842  54.158  1.00  0.00     0.016 A 
HETATM   10  C   UNL     1      26.057  46.224  53.264  1.00  0.00     0.030 A 
BRANCH   8  11
HETATM   11  C   UNL     1      29.082  44.493  54.736  1.00  0.00     0.088 A 
HETATM   12  N   UNL     1      29.477  45.316  55.723  1.00  0.00    -0.175 NA
HETATM   13  N   UNL     1      30.473  44.662  56.338  1.00  0.00    -0.289 N 
HETATM   14  H   UNL     1      30.923  45.109  57.130  1.00  0.00     0.188 HD
HETATM   15  C   UNL     1      30.750  43.450  55.789  1.00  0.00     0.111 A 
HETATM   16  C   UNL     1      29.867  43.304  54.749  1.00  0.00     0.053 A 
ENDBRANCH   8  11
ENDBRANCH   1   5
BRANCH   2  17
HETATM   17  C   UNL     1      23.721  47.533  49.599  1.00  0.00     0.037 A 
HETATM   18  C   UNL     1      23.261  48.850  49.595  1.00  0.00     0.075 A 
HETATM   19  C   UNL     1      22.131  49.143  48.861  1.00  0.00     0.165 A 
HETATM   20  N   UNL     1      21.437  48.230  48.152  1.00  0.00    -0.237 NA
HETATM   21  C   UNL     1      21.908  46.965  48.164  1.00  0.00     0.120 A 
HETATM   22  C   UNL     1      23.039  46.567  48.860  1.00  0.00     0.036 A 
BRANCH  19  23
HETATM   23  O   UNL     1      21.711  50.459  48.874  1.00  0.00    -0.329 OA
BRANCH  23  24
HETATM   24  C   UNL     1      20.286  50.677  48.872  1.00  0.00     0.130 C 
HETATM   25  C   UNL     1      19.622  51.042  50.226  1.00  0.00     0.032 C 
HETATM   26  C   UNL     1      18.745  52.045  49.454  1.00  0.00     0.005 C 
HETATM   27  C   UNL     1      19.854  52.087  48.388  1.00  0.00     0.032 C 
ENDBRANCH  23  24
ENDBRANCH  19  23
ENDBRANCH   2  17
TORSDOF 5
ENDMDL
MODEL 4
REMARK VINA RESULT:      -8.4      3.067      9.615
REMARK  5 active torsions:
REMARK  status: ('A' for Active; 'I' for Inactive)
REMARK    1  A    between atoms: C_2  and  C_3 
REMARK    2  A    between atoms: C_11  and  N_12 
REMARK       I    between atoms: N_12  and  C_13 
REMARK    3  A    between atoms: C_13  and  C_14 
REMARK    4  A    between atoms: C_16  and  O_17 
REMARK    5  A    between atoms: O_17  and  C_18 
ROOT
HETATM    1  N   UNL     1      26.671  45.071  51.301  1.00  0.00    -0.323 N 
HETATM    2  C   UNL     1      27.238  43.957  50.708  1.00  0.00     0.256 C 
HETATM    3  O   UNL     1      27.199  43.663  49.519  1.00  0.00    -0.267 OA
HETATM    4  H   UNL     1      26.726  45.151  52.306  1.00  0.00     0.169 HD
ENDROOT
BRANCH   1   5
HETATM    5  C   UNL     1      25.913  46.077  50.660  1.00  0.00     0.035 A 
HETATM    6  C   UNL     1      24.529  46.024  50.489  1.00  0.00     0.030 A 
HETATM    7  C   UNL     1      23.840  47.084  49.881  1.00  0.00     0.016 A 
HETATM    8  C   UNL     1      24.521  48.220  49.427  1.00  0.00    -0.005 A 
HETATM    9  C   UNL     1      25.914  48.256  49.577  1.00  0.00     0.016 A 
HETATM   10  C   UNL     1      26.601  47.200  50.189  1.00  0.00     0.030 A 
BRANCH   8  11
HETATM   11  C   UNL     1      23.802  49.347  48.824  1.00  0.00     0.088 A 
HETATM   12  N   UNL     1      24.173  49.871  47.641  1.00  0.00    -0.175 NA
HETATM   13  N   UNL     1      23.308  50.872  47.422  1.00  0.00    -0.289 N 
HETATM   14  H   UNL     1      23.406  51.412  46.569  1.00  0.00     0.188 HD
HETATM   15  C   UNL     1      22.393  51.029  48.416  1.00  0.00     0.111 A 
HETATM   16  C   UNL     1      22.681  50.058  49.341  1.00  0.00     0.053 A 
ENDBRANCH   8  11
ENDBRANCH   1   5
BRANCH   2  17
HETATM   17  C   UNL     1      27.939  43.014  51.626  1.00  0.00     0.037 A 
HETATM   18  C   UNL     1      28.964  43.529  52.420  1.00  0.00     0.075 A 
HETATM   19  C   UNL     1      29.603  42.674  53.293  1.00  0.00     0.165 A 
HETATM   20  N   UNL     1      29.303  41.366  53.420  1.00  0.00    -0.237 NA
HETATM   21  C   UNL     1      28.300  40.895  52.648  1.00  0.00     0.120 A 
HETATM   22  C   UNL     1      27.588  41.670  51.747  1.00  0.00     0.036 A 
BRANCH  19  23
HETATM   23  O   UNL     1      30.606  43.222  54.069  1.00  0.00    -0.329 OA
BRANCH  23  24
HETATM   24  C   UNL     1      30.303  43.418  55.465  1.00  0.00     0.130 C 
HETATM   25  C   UNL     1      31.469  43.251  56.475  1.00  0.00     0.032 C 
HETATM   26  C   UNL     1      30.901  44.464  57.235  1.00  0.00     0.005 C 
HETATM   27  C   UNL     1      30.256  44.904  55.909  1.00  0.00     0.032 C 
ENDBRANCH  23  24
ENDBRANCH  19  23
ENDBRANCH   2  17
TORSDOF 5
ENDMDL
MODEL 5
REMARK VINA RESULT:      -8.2      1.328      1.509
REMARK  5 active torsions:
REMARK  status: ('A' for Active; 'I' for Inactive)
REMARK    1  A    between atoms: C_2  and  C_3 
REMARK    2  A    between atoms: C_11  and  N_12 
REMARK       I    between atoms: N_12  and  C_13 
REMARK    3  A    between atoms: C_13  and  C_14 
REMARK    4  A    between atoms: C_16  and  O_17 
REMARK    5  A    between atoms: O_17  and  C_18 
ROOT
HETATM    1  N   UNL     1      25.331  45.452  51.093  1.00  0.00    -0.323 N 
HETATM    2  C   UNL     1      24.972  46.636  50.474  1.00  0.00     0.256 C 
HETATM    3  O   UNL     1      25.476  47.738  50.657  1.00  0.00    -0.267 OA
HETATM    4  H   UNL     1      24.782  44.629  50.893  1.00  0.00     0.169 HD
ENDROOT
BRANCH   1   5
HETATM    5  C   UNL     1      26.331  45.281  52.077  1.00  0.00     0.035 A 
HETATM    6  C   UNL     1      26.335  45.934  53.310  1.00  0.00     0.030 A 
HETATM    7  C   UNL     1      27.340  45.678  54.254  1.00  0.00     0.016 A 
HETATM    8  C   UNL     1      28.367  44.766  53.984  1.00  0.00    -0.005 A 
HETATM    9  C   UNL     1      28.374  44.133  52.734  1.00  0.00     0.016 A 
HETATM   10  C   UNL     1      27.366  44.385  51.793  1.00  0.00     0.030 A 
BRANCH   8  11
HETATM   11  C   UNL     1      29.401  44.467  54.981  1.00  0.00     0.088 A 
HETATM   12  N   UNL     1      29.763  45.364  55.916  1.00  0.00    -0.175 NA
HETATM   13  N   UNL     1      30.723  44.753  56.626  1.00  0.00    -0.289 N 
HETATM   14  H   UNL     1      31.144  45.259  57.398  1.00  0.00     0.188 HD
HETATM   15  C   UNL     1      31.008  43.498  56.189  1.00  0.00     0.111 A 
HETATM   16  C   UNL     1      30.171  43.277  55.125  1.00  0.00     0.053 A 
ENDBRANCH   8  11
ENDBRANCH   1   5
BRANCH   2  17
HETATM   17  C   UNL     1      23.836  46.551  49.512  1.00  0.00     0.037 A 
HETATM   18  C   UNL     1      23.374  47.743  48.953  1.00  0.00     0.075 A 
HETATM   19  C   UNL     1      22.342  47.677  48.041  1.00  0.00     0.165 A 
HETATM   20  N   UNL     1      21.745  46.529  47.662  1.00  0.00    -0.237 NA
HETATM   21  C   UNL     1      22.218  45.389  48.209  1.00  0.00     0.120 A 
HETATM   22  C   UNL     1      23.256  45.343  49.126  1.00  0.00     0.036 A 
BRANCH  19  23
HETATM   23  O   UNL     1      21.917  48.876  47.503  1.00  0.00    -0.329 OA
BRANCH  23  24
HETATM   24  C   UNL     1      21.133  49.724  48.366  1.00  0.00     0.130 C 
HETATM   25  C   UNL     1      21.693  51.138  48.674  1.00  0.00     0.032 C 
HETATM   26  C   UNL     1      20.252  51.668  48.547  1.00  0.00     0.005 C 
HETATM   27  C   UNL     1      19.956  50.447  47.658  1.00  0.00     0.032 C 
ENDBRANCH  23  24
ENDBRANCH  19  23
ENDBRANCH   2  17
TORSDOF 5
ENDMDL
MODEL 6
REMARK VINA RESULT:      -7.8      3.345      3.791
REMARK  5 active torsions:
REMARK  status: ('A' for Active; 'I' for Inactive)
REMARK    1  A    between atoms: C_2  and  C_3 
REMARK    2  A    between atoms: C_11  and  N_12 
REMARK       I    between atoms: N_12  and  C_13 
REMARK    3  A    between atoms: C_13  and  C_14 
REMARK    4  A    between atoms: C_16  and  O_17 
REMARK    5  A    between atoms: O_17  and  C_18 
ROOT
HETATM    1  N   UNL     1      23.840  45.955  49.611  1.00  0.00    -0.323 N 
HETATM    2  C   UNL     1      23.712  47.331  49.555  1.00  0.00     0.256 C 
HETATM    3  O   UNL     1      24.458  48.156  50.070  1.00  0.00    -0.267 OA
HETATM    4  H   UNL     1      23.111  45.395  49.195  1.00  0.00     0.169 HD
ENDROOT
BRANCH   1   5
HETATM    5  C   UNL     1      24.840  45.225  50.294  1.00  0.00     0.035 A 
HETATM    6  C   UNL     1      24.714  44.763  51.604  1.00  0.00     0.030 A 
HETATM    7  C   UNL     1      25.734  44.006  52.198  1.00  0.00     0.016 A 
HETATM    8  C   UNL     1      26.905  43.697  51.497  1.00  0.00    -0.005 A 
HETATM    9  C   UNL     1      27.038  44.187  50.191  1.00  0.00     0.016 A 
HETATM   10  C   UNL     1      26.017  44.938  49.595  1.00  0.00     0.030 A 
BRANCH   8  11
HETATM   11  C   UNL     1      27.960  42.875  52.100  1.00  0.00     0.088 A 
HETATM   12  N   UNL     1      29.204  43.350  52.293  1.00  0.00    -0.175 NA
HETATM   13  N   UNL     1      29.880  42.331  52.843  1.00  0.00    -0.289 N 
HETATM   14  H   UNL     1      30.857  42.474  53.077  1.00  0.00     0.188 HD
HETATM   15  C   UNL     1      29.132  41.208  53.010  1.00  0.00     0.111 A 
HETATM   16  C   UNL     1      27.881  41.523  52.542  1.00  0.00     0.053 A 
ENDBRANCH   8  11
ENDBRANCH   1   5
BRANCH   2  17
HETATM   17  C   UNL     1      22.525  47.847  48.815  1.00  0.00     0.037 A 
HETATM   18  C   UNL     1      22.115  49.153  49.083  1.00  0.00     0.075 A 
HETATM   19  C   UNL     1      21.036  49.653  48.386  1.00  0.00     0.165 A 
HETATM   20  N   UNL     1      20.344  48.951  47.465  1.00  0.00    -0.237 NA
HETATM   21  C   UNL     1      20.768  47.694  47.217  1.00  0.00     0.120 A 
HETATM   22  C   UNL     1      21.846  47.100  47.853  1.00  0.00     0.036 A 
BRANCH  19  23
HETATM   23  O   UNL     1      20.665  50.952  48.673  1.00  0.00    -0.329 OA
BRANCH  23  24
HETATM   24  C   UNL     1      19.249  51.225  48.695  1.00  0.00     0.130 C 
HETATM   25  C   UNL     1      18.625  51.635  50.056  1.00  0.00     0.032 C 
HETATM   26  C   UNL     1      17.772  52.659  49.285  1.00  0.00     0.005 C 
HETATM   27  C   UNL     1      18.861  52.643  48.197  1.00  0.00     0.032 C 
ENDBRANCH  23  24
ENDBRANCH  19  23
ENDBRANCH   2  17
TORSDOF 5
ENDMDL
MODEL 7
REMARK VINA RESULT:      -7.6      6.585      8.700
REMARK  5 active torsions:
REMARK  status: ('A' for Active; 'I' for Inactive)
REMARK    1  A    between atoms: C_2  and  C_3 
REMARK    2  A    between atoms: C_11  and  N_12 
REMARK       I    between atoms: N_12  and  C_13 
REMARK    3  A    between atoms: C_13  and  C_14 
REMARK    4  A    between atoms: C_16  and  O_17 
REMARK    5  A    between atoms: O_17  and  C_18 
ROOT
HETATM    1  N   UNL     1      28.542  42.515  51.666  1.00  0.00    -0.323 N 
HETATM    2  C   UNL     1      28.527  41.155  51.411  1.00  0.00     0.256 C 
HETATM    3  O   UNL     1      28.836  40.262  52.192  1.00  0.00    -0.267 OA
HETATM    4  H   UNL     1      28.325  43.140  50.904  1.00  0.00     0.169 HD
ENDROOT
BRANCH   1   5
HETATM    5  C   UNL     1      28.939  43.147  52.866  1.00  0.00     0.035 A 
HETATM    6  C   UNL     1      28.182  44.112  53.530  1.00  0.00     0.030 A 
HETATM    7  C   UNL     1      28.624  44.662  54.742  1.00  0.00     0.016 A 
HETATM    8  C   UNL     1      29.837  44.262  55.315  1.00  0.00    -0.005 A 
HETATM    9  C   UNL     1      30.607  43.313  54.630  1.00  0.00     0.016 A 
HETATM   10  C   UNL     1      30.162  42.759  53.422  1.00  0.00     0.030 A 
BRANCH   8  11
HETATM   11  C   UNL     1      30.288  44.807  56.600  1.00  0.00     0.088 A 
HETATM   12  N   UNL     1      31.181  44.159  57.370  1.00  0.00    -0.175 NA
HETATM   13  N   UNL     1      31.336  44.940  58.449  1.00  0.00    -0.289 N 
HETATM   14  H   UNL     1      31.979  44.636  59.172  1.00  0.00     0.188 HD
HETATM   15  C   UNL     1      30.576  46.067  58.420  1.00  0.00     0.111 A 
HETATM   16  C   UNL     1      29.885  46.017  57.236  1.00  0.00     0.053 A 
ENDBRANCH   8  11
ENDBRANCH   1   5
BRANCH   2  17
HETATM   17  C   UNL     1      28.121  40.752  50.035  1.00  0.00     0.037 A 
HETATM   18  C   UNL     1      28.652  39.567  49.526  1.00  0.00     0.075 A 
HETATM   19  C   UNL     1      28.264  39.169  48.264  1.00  0.00     0.165 A 
HETATM   20  N   UNL     1      27.407  39.861  47.487  1.00  0.00    -0.237 NA
HETATM   21  C   UNL     1      26.900  40.999  48.006  1.00  0.00     0.120 A 
HETATM   22  C   UNL     1      27.215  41.483  49.266  1.00  0.00     0.036 A 
BRANCH  19  23
HETATM   23  O   UNL     1      28.804  37.986  47.798  1.00  0.00    -0.329 OA
BRANCH  23  24
HETATM   24  C   UNL     1      28.372  37.555  46.492  1.00  0.00     0.130 C 
HETATM   25  C   UNL     1      29.390  36.759  45.633  1.00  0.00     0.032 C 
HETATM   26  C   UNL     1      28.220  35.860  45.191  1.00  0.00     0.005 C 
HETATM   27  C   UNL     1      27.509  36.264  46.495  1.00  0.00     0.032 C 
ENDBRANCH  23  24
ENDBRANCH  19  23
ENDBRANCH   2  17
TORSDOF 5
ENDMDL
MODEL 8
REMARK VINA RESULT:      -7.5      6.520      7.904
REMARK  5 active torsions:
REMARK  status: ('A' for Active; 'I' for Inactive)
REMARK    1  A    between atoms: C_2  and  C_3 
REMARK    2  A    between atoms: C_11  and  N_12 
REMARK       I    between atoms: N_12  and  C_13 
REMARK    3  A    between atoms: C_13  and  C_14 
REMARK    4  A    between atoms: C_16  and  O_17 
REMARK    5  A    between atoms: O_17  and  C_18 
ROOT
HETATM    1  N   UNL     1      28.663  41.908  51.244  1.00  0.00    -0.323 N 
HETATM    2  C   UNL     1      28.650  40.526  51.182  1.00  0.00     0.256 C 
HETATM    3  O   UNL     1      28.786  39.752  52.123  1.00  0.00    -0.267 OA
HETATM    4  H   UNL     1      28.605  42.420  50.376  1.00  0.00     0.169 HD
ENDROOT
BRANCH   1   5
HETATM    5  C   UNL     1      28.860  42.702  52.396  1.00  0.00     0.035 A 
HETATM    6  C   UNL     1      27.932  43.624  52.880  1.00  0.00     0.030 A 
HETATM    7  C   UNL     1      28.182  44.344  54.057  1.00  0.00     0.016 A 
HETATM    8  C   UNL     1      29.370  44.162  54.775  1.00  0.00    -0.005 A 
HETATM    9  C   UNL     1      30.311  43.255  54.270  1.00  0.00     0.016 A 
HETATM   10  C   UNL     1      30.059  42.532  53.097  1.00  0.00     0.030 A 
BRANCH   8  11
HETATM   11  C   UNL     1      29.622  44.885  56.026  1.00  0.00     0.088 A 
HETATM   12  N   UNL     1      28.763  45.809  56.495  1.00  0.00    -0.175 NA
HETATM   13  N   UNL     1      29.323  46.255  57.628  1.00  0.00    -0.289 N 
HETATM   14  H   UNL     1      28.833  46.969  58.157  1.00  0.00     0.188 HD
HETATM   15  C   UNL     1      30.515  45.668  57.915  1.00  0.00     0.111 A 
HETATM   16  C   UNL     1      30.741  44.773  56.900  1.00  0.00     0.053 A 
ENDBRANCH   8  11
ENDBRANCH   1   5
BRANCH   2  17
HETATM   17  C   UNL     1      28.482  39.934  49.824  1.00  0.00     0.037 A 
HETATM   18  C   UNL     1      28.388  40.813  48.745  1.00  0.00     0.075 A 
HETATM   19  C   UNL     1      28.259  40.279  47.480  1.00  0.00     0.165 A 
HETATM   20  N   UNL     1      28.210  38.956  47.223  1.00  0.00    -0.237 NA
HETATM   21  C   UNL     1      28.314  38.127  48.284  1.00  0.00     0.120 A 
HETATM   22  C   UNL     1      28.457  38.559  49.593  1.00  0.00     0.036 A 
BRANCH  19  23
HETATM   23  O   UNL     1      28.177  41.180  46.436  1.00  0.00    -0.329 OA
BRANCH  23  24
HETATM   24  C   UNL     1      27.948  40.623  45.126  1.00  0.00     0.130 C 
HETATM   25  C   UNL     1      26.986  41.395  44.184  1.00  0.00     0.032 C 
HETATM   26  C   UNL     1      27.953  41.070  43.032  1.00  0.00     0.005 C 
HETATM   27  C   UNL     1      29.062  40.940  44.092  1.00  0.00     0.032 C 
ENDBRANCH  23  24
ENDBRANCH  19  23
ENDBRANCH   2  17
TORSDOF 5
ENDMDL
MODEL 9
REMARK VINA RESULT:      -7.4      2.593      3.771
REMARK  5 active torsions:
REMARK  status: ('A' for Active; 'I' for Inactive)
REMARK    1  A    between atoms: C_2  and  C_3 
REMARK    2  A    between atoms: C_11  and  N_12 
REMARK       I    between atoms: N_12  and  C_13 
REMARK    3  A    between atoms: C_13  and  C_14 
REMARK    4  A    between atoms: C_16  and  O_17 
REMARK    5  A    between atoms: O_17  and  C_18 
ROOT
HETATM    1  N   UNL     1      23.907  47.285  50.348  1.00  0.00    -0.323 N 
HETATM    2  C   UNL     1      24.083  48.435  49.599  1.00  0.00     0.256 C 
HETATM    3  O   UNL     1      25.148  48.992  49.356  1.00  0.00    -0.267 OA
HETATM    4  H   UNL     1      22.962  46.976  50.522  1.00  0.00     0.169 HD
ENDROOT
BRANCH   1   5
HETATM    5  C   UNL     1      24.912  46.539  51.003  1.00  0.00     0.035 A 
HETATM    6  C   UNL     1      25.471  46.890  52.233  1.00  0.00     0.030 A 
HETATM    7  C   UNL     1      26.435  46.074  52.842  1.00  0.00     0.016 A 
HETATM    8  C   UNL     1      26.865  44.890  52.233  1.00  0.00    -0.005 A 
HETATM    9  C   UNL     1      26.322  44.556  50.985  1.00  0.00     0.016 A 
HETATM   10  C   UNL     1      25.354  45.369  50.379  1.00  0.00     0.030 A 
BRANCH   8  11
HETATM   11  C   UNL     1      27.847  44.013  52.881  1.00  0.00     0.088 A 
HETATM   12  N   UNL     1      28.979  43.637  52.260  1.00  0.00    -0.175 NA
HETATM   13  N   UNL     1      29.607  42.844  53.141  1.00  0.00    -0.289 N 
HETATM   14  H   UNL     1      30.501  42.444  52.873  1.00  0.00     0.188 HD
HETATM   15  C   UNL     1      28.929  42.680  54.307  1.00  0.00     0.111 A 
HETATM   16  C   UNL     1      27.784  43.424  54.177  1.00  0.00     0.053 A 
ENDBRANCH   8  11
ENDBRANCH   1   5
BRANCH   2  17
HETATM   17  C   UNL     1      22.842  49.064  49.065  1.00  0.00     0.037 A 
HETATM   18  C   UNL     1      21.741  48.235  48.848  1.00  0.00     0.075 A 
HETATM   19  C   UNL     1      20.577  48.807  48.379  1.00  0.00     0.165 A 
HETATM   20  N   UNL     1      20.441  50.121  48.109  1.00  0.00    -0.237 NA
HETATM   21  C   UNL     1      21.517  50.903  48.337  1.00  0.00     0.120 A 
HETATM   22  C   UNL     1      22.729  50.432  48.816  1.00  0.00     0.036 A 
BRANCH  19  23
HETATM   23  O   UNL     1      19.506  47.956  48.185  1.00  0.00    -0.329 OA
BRANCH  23  24
HETATM   24  C   UNL     1      18.201  48.490  48.483  1.00  0.00     0.130 C 
HETATM   25  C   UNL     1      17.240  48.727  47.288  1.00  0.00     0.032 C 
HETATM   26  C   UNL     1      16.101  48.197  48.180  1.00  0.00     0.005 C 
HETATM   27  C   UNL     1      17.175  47.435  48.977  1.00  0.00     0.032 C 
ENDBRANCH  23  24
ENDBRANCH  19  23
ENDBRANCH   2  17
TORSDOF 5
ENDMDL
MODEL 10
REMARK VINA RESULT:      -7.4      4.095      6.158
REMARK  5 active torsions:
REMARK  status: ('A' for Active; 'I' for Inactive)
REMARK    1  A    between atoms: C_2  and  C_3 
REMARK    2  A    between atoms: C_11  and  N_12 
REMARK       I    between atoms: N_12  and  C_13 
REMARK    3  A    between atoms: C_13  and  C_14 
REMARK    4  A    between atoms: C_16  and  O_17 
REMARK    5  A    between atoms: O_17  and  C_18 
ROOT
HETATM    1  N   UNL     1      26.880  43.885  52.095  1.00  0.00    -0.323 N 
HETATM    2  C   UNL     1      25.497  43.910  52.046  1.00  0.00     0.256 C 
HETATM    3  O   UNL     1      24.737  44.116  52.986  1.00  0.00    -0.267 OA
HETATM    4  H   UNL     1      27.377  43.636  51.253  1.00  0.00     0.169 HD
ENDROOT
BRANCH   1   5
HETATM    5  C   UNL     1      27.690  44.065  53.239  1.00  0.00     0.035 A 
HETATM    6  C   UNL     1      28.701  43.186  53.628  1.00  0.00     0.030 A 
HETATM    7  C   UNL     1      29.494  43.457  54.753  1.00  0.00     0.016 A 
HETATM    8  C   UNL     1      29.288  44.611  55.518  1.00  0.00    -0.005 A 
HETATM    9  C   UNL     1      28.253  45.476  55.140  1.00  0.00     0.016 A 
HETATM   10  C   UNL     1      27.466  45.209  54.012  1.00  0.00     0.030 A 
BRANCH   8  11
HETATM   11  C   UNL     1      30.137  44.918  56.675  1.00  0.00     0.088 A 
HETATM   12  N   UNL     1      29.966  46.038  57.401  1.00  0.00    -0.175 NA
HETATM   13  N   UNL     1      30.913  45.981  58.348  1.00  0.00    -0.289 N 
HETATM   14  H   UNL     1      30.965  46.740  59.020  1.00  0.00     0.188 HD
HETATM   15  C   UNL     1      31.701  44.876  58.267  1.00  0.00     0.111 A 
HETATM   16  C   UNL     1      31.227  44.162  57.195  1.00  0.00     0.053 A 
ENDBRANCH   8  11
ENDBRANCH   1   5
BRANCH   2  17
HETATM   17  C   UNL     1      24.885  43.628  50.717  1.00  0.00     0.037 A 
HETATM   18  C   UNL     1      25.555  42.740  49.874  1.00  0.00     0.075 A 
HETATM   19  C   UNL     1      24.987  42.449  48.652  1.00  0.00     0.165 A 
HETATM   20  N   UNL     1      23.825  42.978  48.217  1.00  0.00    -0.237 NA
HETATM   21  C   UNL     1      23.192  43.826  49.055  1.00  0.00     0.120 A 
HETATM   22  C   UNL     1      23.671  44.177  50.307  1.00  0.00     0.036 A 
BRANCH  19  23
HETATM   23  O   UNL     1      25.674  41.560  47.849  1.00  0.00    -0.329 OA
BRANCH  23  24
HETATM   24  C   UNL     1      26.927  41.067  48.364  1.00  0.00     0.130 C 
HETATM   25  C   UNL     1      27.049  39.536  48.592  1.00  0.00     0.032 C 
HETATM   26  C   UNL     1      28.485  39.633  48.044  1.00  0.00     0.005 C 
HETATM   27  C   UNL     1      28.040  40.901  47.294  1.00  0.00     0.032 C 
ENDBRANCH  23  24
ENDBRANCH  19  23
ENDBRANCH   2  17
TORSDOF 5
ENDMDL
