MODEL 1
REMARK VINA RESULT:      -9.9      0.000      0.000
REMARK  4 active torsions:
REMARK  status: ('A' for Active; 'I' for Inactive)
REMARK    1  A    between atoms: C_7  and  C_8 
REMARK    2  A    between atoms: N_9  and  N_10 
REMARK       I    between atoms: N_10  and  C_11 
REMARK    3  A    between atoms: C_11  and  C_12 
REMARK    4  A    between atoms: C_16  and  C_17 
ROOT
HETATM    1  N   UNL     1      26.021  45.316  51.348  1.00  0.00    -0.242 N 
HETATM    2  C   UNL     1      26.024  45.815  50.053  1.00  0.00     0.289 C 
HETATM    3  O   UNL     1      26.967  45.712  49.274  1.00  0.00    -0.264 OA
HETATM    4  H   UNL     1      25.210  45.428  51.939  1.00  0.00     0.192 HD
ENDROOT
BRANCH   1   5
HETATM    5  N   UNL     1      27.124  44.676  51.837  1.00  0.00    -0.183 NA
HETATM    6  C   UNL     1      27.049  44.271  53.063  1.00  0.00     0.153 C 
BRANCH   6   7
HETATM    7  C   UNL     1      28.167  43.586  53.685  1.00  0.00     0.018 A 
HETATM    8  C   UNL     1      28.609  42.295  53.423  1.00  0.00     0.018 A 
HETATM    9  C   UNL     1      28.108  41.260  52.478  1.00  0.00     0.069 C 
HETATM   10  N   UNL     1      29.691  42.052  54.231  1.00  0.00    -0.358 N 
HETATM   11  H   UNL     1      30.216  41.188  54.252  1.00  0.00     0.166 HD
HETATM   12  C   UNL     1      29.970  43.147  55.013  1.00  0.00     0.043 A 
HETATM   13  C   UNL     1      29.031  44.127  54.695  1.00  0.00     0.004 A 
HETATM   14  C   UNL     1      30.976  43.336  55.968  1.00  0.00     0.030 A 
HETATM   15  C   UNL     1      29.104  45.364  55.373  1.00  0.00     0.014 A 
HETATM   16  C   UNL     1      30.103  45.571  56.332  1.00  0.00     0.001 A 
HETATM   17  C   UNL     1      31.025  44.569  56.623  1.00  0.00     0.002 A 
ENDBRANCH   6   7
ENDBRANCH   1   5
BRANCH   2  18
HETATM   18  C   UNL     1      24.808  46.486  49.663  1.00  0.00     0.121 A 
HETATM   19  N   UNL     1      23.790  45.804  49.059  1.00  0.00    -0.272 N 
HETATM   20  H   UNL     1      23.775  44.813  48.832  1.00  0.00     0.189 HD
HETATM   21  N   UNL     1      22.728  46.560  48.750  1.00  0.00    -0.174 NA
HETATM   22  C   UNL     1      23.051  47.794  49.166  1.00  0.00     0.089 A 
HETATM   23  C   UNL     1      24.353  47.787  49.748  1.00  0.00     0.071 A 
BRANCH  22  24
HETATM   24  C   UNL     1      22.129  48.927  48.997  1.00  0.00    -0.006 A 
HETATM   25  C   UNL     1      22.624  50.198  48.654  1.00  0.00     0.015 A 
HETATM   26  C   UNL     1      21.763  51.287  48.491  1.00  0.00     0.024 A 
HETATM   27  C   UNL     1      20.394  51.118  48.670  1.00  0.00     0.034 A 
HETATM   28 CL   UNL     1      19.330  52.454  48.472  1.00  0.00    -0.084 Cl
HETATM   29  C   UNL     1      19.881  49.868  49.009  1.00  0.00     0.024 A 
HETATM   30  C   UNL     1      20.744  48.778  49.171  1.00  0.00     0.015 A 
ENDBRANCH  22  24
ENDBRANCH   2  18
TORSDOF 4
ENDMDL
MODEL 2
REMARK VINA RESULT:      -9.6      3.710     10.797
REMARK  4 active torsions:
REMARK  status: ('A' for Active; 'I' for Inactive)
REMARK    1  A    between atoms: C_7  and  C_8 
REMARK    2  A    between atoms: N_9  and  N_10 
REMARK       I    between atoms: N_10  and  C_11 
REMARK    3  A    between atoms: C_11  and  C_12 
REMARK    4  A    between atoms: C_16  and  C_17 
ROOT
HETATM    1  N   UNL     1      23.135  46.804  49.374  1.00  0.00    -0.242 N 
HETATM    2  C   UNL     1      24.208  47.382  50.037  1.00  0.00     0.289 C 
HETATM    3  O   UNL     1      24.554  48.553  49.906  1.00  0.00    -0.264 OA
HETATM    4  H   UNL     1      22.898  45.834  49.529  1.00  0.00     0.192 HD
ENDROOT
BRANCH   1   5
HETATM    5  N   UNL     1      22.395  47.543  48.495  1.00  0.00    -0.183 NA
HETATM    6  C   UNL     1      21.145  47.692  48.791  1.00  0.00     0.153 C 
BRANCH   6   7
HETATM    7  C   UNL     1      20.266  48.452  47.922  1.00  0.00     0.018 A 
HETATM    8  C   UNL     1      19.676  48.019  46.741  1.00  0.00     0.018 A 
HETATM    9  C   UNL     1      19.751  46.713  46.029  1.00  0.00     0.069 C 
HETATM   10  N   UNL     1      18.925  49.054  46.244  1.00  0.00    -0.358 N 
HETATM   11  H   UNL     1      18.382  49.020  45.391  1.00  0.00     0.166 HD
HETATM   12  C   UNL     1      19.006  50.152  47.066  1.00  0.00     0.043 A 
HETATM   13  C   UNL     1      19.841  49.808  48.128  1.00  0.00     0.004 A 
HETATM   14  C   UNL     1      18.406  51.410  46.946  1.00  0.00     0.030 A 
HETATM   15  C   UNL     1      20.089  50.779  49.123  1.00  0.00     0.014 A 
HETATM   16  C   UNL     1      19.498  52.044  49.019  1.00  0.00     0.001 A 
HETATM   17  C   UNL     1      18.668  52.353  47.945  1.00  0.00     0.002 A 
ENDBRANCH   6   7
ENDBRANCH   1   5
BRANCH   2  18
HETATM   18  C   UNL     1      24.920  46.492  50.921  1.00  0.00     0.121 A 
HETATM   19  N   UNL     1      24.383  45.294  51.295  1.00  0.00    -0.272 N 
HETATM   20  H   UNL     1      23.482  44.918  51.011  1.00  0.00     0.189 HD
HETATM   21  N   UNL     1      25.157  44.578  52.123  1.00  0.00    -0.174 NA
HETATM   22  C   UNL     1      26.253  45.330  52.307  1.00  0.00     0.089 A 
HETATM   23  C   UNL     1      26.141  46.543  51.565  1.00  0.00     0.071 A 
BRANCH  22  24
HETATM   24  C   UNL     1      27.354  44.883  53.173  1.00  0.00    -0.006 A 
HETATM   25  C   UNL     1      28.145  43.782  52.802  1.00  0.00     0.015 A 
HETATM   26  C   UNL     1      29.195  43.342  53.614  1.00  0.00     0.024 A 
HETATM   27  C   UNL     1      29.466  44.000  54.809  1.00  0.00     0.034 A 
HETATM   28 CL   UNL     1      30.755  43.463  55.812  1.00  0.00    -0.084 Cl
HETATM   29  C   UNL     1      28.696  45.094  55.196  1.00  0.00     0.024 A 
HETATM   30  C   UNL     1      27.646  45.534  54.382  1.00  0.00     0.015 A 
ENDBRANCH  22  24
ENDBRANCH   2  18
TORSDOF 4
ENDMDL
MODEL 3
REMARK VINA RESULT:      -9.5      1.292      1.669
REMARK  4 active torsions:
REMARK  status: ('A' for Active; 'I' for Inactive)
REMARK    1  A    between atoms: C_7  and  C_8 
REMARK    2  A    between atoms: N_9  and  N_10 
REMARK       I    between atoms: N_10  and  C_11 
REMARK    3  A    between atoms: C_11  and  C_12 
REMARK    4  A    between atoms: C_16  and  C_17 
ROOT
HETATM    1  N   UNL     1      25.632  45.548  50.174  1.00  0.00    -0.242 N 
HETATM    2  C   UNL     1      25.317  46.876  50.424  1.00  0.00     0.289 C 
HETATM    3  O   UNL     1      26.012  47.638  51.090  1.00  0.00    -0.264 OA
HETATM    4  H   UNL     1      25.019  44.972  49.613  1.00  0.00     0.192 HD
ENDROOT
BRANCH   1   5
HETATM    5  N   UNL     1      26.771  45.004  50.696  1.00  0.00    -0.183 NA
HETATM    6  C   UNL     1      26.603  44.081  51.586  1.00  0.00     0.153 C 
BRANCH   6   7
HETATM    7  C   UNL     1      27.746  43.441  52.211  1.00  0.00     0.018 A 
HETATM    8  C   UNL     1      28.374  42.269  51.808  1.00  0.00     0.018 A 
HETATM    9  C   UNL     1      28.094  41.346  50.674  1.00  0.00     0.069 C 
HETATM   10  N   UNL     1      29.408  42.028  52.678  1.00  0.00    -0.358 N 
HETATM   11  H   UNL     1      30.039  41.239  52.624  1.00  0.00     0.166 HD
HETATM   12  C   UNL     1      29.475  43.009  53.637  1.00  0.00     0.043 A 
HETATM   13  C   UNL     1      28.445  43.911  53.373  1.00  0.00     0.004 A 
HETATM   14  C   UNL     1      30.364  43.161  54.707  1.00  0.00     0.030 A 
HETATM   15  C   UNL     1      28.298  45.025  54.230  1.00  0.00     0.014 A 
HETATM   16  C   UNL     1      29.178  45.191  55.306  1.00  0.00     0.001 A 
HETATM   17  C   UNL     1      30.196  44.271  55.539  1.00  0.00     0.002 A 
ENDBRANCH   6   7
ENDBRANCH   1   5
BRANCH   2  18
HETATM   18  C   UNL     1      24.079  47.323  49.834  1.00  0.00     0.121 A 
HETATM   19  N   UNL     1      23.187  46.432  49.310  1.00  0.00    -0.272 N 
HETATM   20  H   UNL     1      23.287  45.421  49.279  1.00  0.00     0.189 HD
HETATM   21  N   UNL     1      22.086  46.995  48.792  1.00  0.00    -0.174 NA
HETATM   22  C   UNL     1      22.253  48.313  48.979  1.00  0.00     0.089 A 
HETATM   23  C   UNL     1      23.496  48.559  49.634  1.00  0.00     0.071 A 
BRANCH  22  24
HETATM   24  C   UNL     1      21.244  49.285  48.534  1.00  0.00    -0.006 A 
HETATM   25  C   UNL     1      20.245  48.902  47.622  1.00  0.00     0.015 A 
HETATM   26  C   UNL     1      19.279  49.814  47.185  1.00  0.00     0.024 A 
HETATM   27  C   UNL     1      19.301  51.122  47.657  1.00  0.00     0.034 A 
HETATM   28 CL   UNL     1      18.117  52.248  47.122  1.00  0.00    -0.084 Cl
HETATM   29  C   UNL     1      20.281  51.524  48.561  1.00  0.00     0.024 A 
HETATM   30  C   UNL     1      21.247  50.610  48.998  1.00  0.00     0.015 A 
ENDBRANCH  22  24
ENDBRANCH   2  18
TORSDOF 4
ENDMDL
MODEL 4
REMARK VINA RESULT:      -9.4      6.535      8.927
REMARK  4 active torsions:
REMARK  status: ('A' for Active; 'I' for Inactive)
REMARK    1  A    between atoms: C_7  and  C_8 
REMARK    2  A    between atoms: N_9  and  N_10 
REMARK       I    between atoms: N_10  and  C_11 
REMARK    3  A    between atoms: C_11  and  C_12 
REMARK    4  A    between atoms: C_16  and  C_17 
ROOT
HETATM    1  N   UNL     1      28.998  41.334  52.551  1.00  0.00    -0.242 N 
HETATM    2  C   UNL     1      27.986  41.263  51.606  1.00  0.00     0.289 C 
HETATM    3  O   UNL     1      26.941  41.906  51.661  1.00  0.00    -0.264 OA
HETATM    4  H   UNL     1      29.838  40.782  52.447  1.00  0.00     0.192 HD
ENDROOT
BRANCH   1   5
HETATM    5  N   UNL     1      28.862  42.146  53.641  1.00  0.00    -0.183 NA
HETATM    6  C   UNL     1      29.342  43.341  53.522  1.00  0.00     0.153 C 
BRANCH   6   7
HETATM    7  C   UNL     1      29.258  44.284  54.622  1.00  0.00     0.018 A 
HETATM    8  C   UNL     1      28.367  45.342  54.751  1.00  0.00     0.018 A 
HETATM    9  C   UNL     1      27.277  45.821  53.857  1.00  0.00     0.069 C 
HETATM   10  N   UNL     1      28.635  45.972  55.941  1.00  0.00    -0.358 N 
HETATM   11  H   UNL     1      28.138  46.778  56.295  1.00  0.00     0.166 HD
HETATM   12  C   UNL     1      29.675  45.356  56.593  1.00  0.00     0.043 A 
HETATM   13  C   UNL     1      30.090  44.293  55.791  1.00  0.00     0.004 A 
HETATM   14  C   UNL     1      30.272  45.661  57.821  1.00  0.00     0.030 A 
HETATM   15  C   UNL     1      31.162  43.493  56.246  1.00  0.00     0.014 A 
HETATM   16  C   UNL     1      31.771  43.785  57.472  1.00  0.00     0.001 A 
HETATM   17  C   UNL     1      31.330  44.853  58.248  1.00  0.00     0.002 A 
ENDBRANCH   6   7
ENDBRANCH   1   5
BRANCH   2  18
HETATM   18  C   UNL     1      28.243  40.355  50.515  1.00  0.00     0.121 A 
HETATM   19  N   UNL     1      29.002  39.234  50.696  1.00  0.00    -0.272 N 
HETATM   20  H   UNL     1      29.441  38.932  51.562  1.00  0.00     0.189 HD
HETATM   21  N   UNL     1      29.158  38.490  49.592  1.00  0.00    -0.174 NA
HETATM   22  C   UNL     1      28.476  39.142  48.638  1.00  0.00     0.089 A 
HETATM   23  C   UNL     1      27.885  40.321  49.181  1.00  0.00     0.071 A 
BRANCH  22  24
HETATM   24  C   UNL     1      28.411  38.637  47.259  1.00  0.00    -0.006 A 
HETATM   25  C   UNL     1      27.871  39.436  46.236  1.00  0.00     0.015 A 
HETATM   26  C   UNL     1      27.799  38.971  44.919  1.00  0.00     0.024 A 
HETATM   27  C   UNL     1      28.268  37.698  44.610  1.00  0.00     0.034 A 
HETATM   28 CL   UNL     1      28.181  37.120  42.993  1.00  0.00    -0.084 Cl
HETATM   29  C   UNL     1      28.807  36.889  45.607  1.00  0.00     0.024 A 
HETATM   30  C   UNL     1      28.880  37.356  46.925  1.00  0.00     0.015 A 
ENDBRANCH  22  24
ENDBRANCH   2  18
TORSDOF 4
ENDMDL
MODEL 5
REMARK VINA RESULT:      -8.6      2.549      4.449
REMARK  4 active torsions:
REMARK  status: ('A' for Active; 'I' for Inactive)
REMARK    1  A    between atoms: C_7  and  C_8 
REMARK    2  A    between atoms: N_9  and  N_10 
REMARK       I    between atoms: N_10  and  C_11 
REMARK    3  A    between atoms: C_11  and  C_12 
REMARK    4  A    between atoms: C_16  and  C_17 
ROOT
HETATM    1  N   UNL     1      26.301  44.869  49.712  1.00  0.00    -0.242 N 
HETATM    2  C   UNL     1      25.017  44.929  49.191  1.00  0.00     0.289 C 
HETATM    3  O   UNL     1      24.434  43.978  48.675  1.00  0.00    -0.264 OA
HETATM    4  H   UNL     1      26.724  45.686  50.129  1.00  0.00     0.192 HD
ENDROOT
BRANCH   1   5
HETATM    5  N   UNL     1      27.009  43.702  49.657  1.00  0.00    -0.183 NA
HETATM    6  C   UNL     1      26.930  42.940  50.699  1.00  0.00     0.153 C 
BRANCH   6   7
HETATM    7  C   UNL     1      27.650  41.680  50.748  1.00  0.00     0.018 A 
HETATM    8  C   UNL     1      28.265  41.111  51.856  1.00  0.00     0.018 A 
HETATM    9  C   UNL     1      28.379  41.580  53.264  1.00  0.00     0.069 C 
HETATM   10  N   UNL     1      28.823  39.922  51.459  1.00  0.00    -0.358 N 
HETATM   11  H   UNL     1      29.336  39.292  52.062  1.00  0.00     0.166 HD
HETATM   12  C   UNL     1      28.590  39.698  50.124  1.00  0.00     0.043 A 
HETATM   13  C   UNL     1      27.857  40.783  49.648  1.00  0.00     0.004 A 
HETATM   14  C   UNL     1      28.973  38.623  49.313  1.00  0.00     0.030 A 
HETATM   15  C   UNL     1      27.488  40.792  48.284  1.00  0.00     0.014 A 
HETATM   16  C   UNL     1      27.863  39.725  47.458  1.00  0.00     0.001 A 
HETATM   17  C   UNL     1      28.594  38.656  47.968  1.00  0.00     0.002 A 
ENDBRANCH   6   7
ENDBRANCH   1   5
BRANCH   2  18
HETATM   18  C   UNL     1      24.384  46.221  49.293  1.00  0.00     0.121 A 
HETATM   19  N   UNL     1      24.908  47.199  50.089  1.00  0.00    -0.272 N 
HETATM   20  H   UNL     1      25.747  47.133  50.660  1.00  0.00     0.189 HD
HETATM   21  N   UNL     1      24.209  48.343  50.087  1.00  0.00    -0.174 NA
HETATM   22  C   UNL     1      23.180  48.117  49.257  1.00  0.00     0.089 A 
HETATM   23  C   UNL     1      23.257  46.791  48.736  1.00  0.00     0.071 A 
BRANCH  22  24
HETATM   24  C   UNL     1      22.167  49.149  48.991  1.00  0.00    -0.006 A 
HETATM   25  C   UNL     1      22.106  50.304  49.789  1.00  0.00     0.015 A 
HETATM   26  C   UNL     1      21.147  51.295  49.552  1.00  0.00     0.024 A 
HETATM   27  C   UNL     1      20.237  51.139  48.512  1.00  0.00     0.034 A 
HETATM   28 CL   UNL     1      19.055  52.353  48.216  1.00  0.00    -0.084 Cl
HETATM   29  C   UNL     1      20.279  50.003  47.708  1.00  0.00     0.024 A 
HETATM   30  C   UNL     1      21.240  49.013  47.946  1.00  0.00     0.015 A 
ENDBRANCH  22  24
ENDBRANCH   2  18
TORSDOF 4
ENDMDL
MODEL 6
REMARK VINA RESULT:      -8.5      3.933      4.970
REMARK  4 active torsions:
REMARK  status: ('A' for Active; 'I' for Inactive)
REMARK    1  A    between atoms: C_7  and  C_8 
REMARK    2  A    between atoms: N_9  and  N_10 
REMARK       I    between atoms: N_10  and  C_11 
REMARK    3  A    between atoms: C_11  and  C_12 
REMARK    4  A    between atoms: C_16  and  C_17 
ROOT
HETATM    1  N   UNL     1      25.179  45.774  51.800  1.00  0.00    -0.242 N 
HETATM    2  C   UNL     1      24.826  46.669  50.801  1.00  0.00     0.289 C 
HETATM    3  O   UNL     1      25.230  47.827  50.735  1.00  0.00    -0.264 OA
HETATM    4  H   UNL     1      24.816  44.831  51.796  1.00  0.00     0.192 HD
ENDROOT
BRANCH   1   5
HETATM    5  N   UNL     1      26.014  46.166  52.807  1.00  0.00    -0.183 NA
HETATM    6  C   UNL     1      26.762  45.242  53.317  1.00  0.00     0.153 C 
BRANCH   6   7
HETATM    7  C   UNL     1      27.681  45.549  54.398  1.00  0.00     0.018 A 
HETATM    8  C   UNL     1      27.644  46.653  55.241  1.00  0.00     0.018 A 
HETATM    9  C   UNL     1      26.706  47.808  55.304  1.00  0.00     0.069 C 
HETATM   10  N   UNL     1      28.695  46.546  56.117  1.00  0.00    -0.358 N 
HETATM   11  H   UNL     1      28.912  47.212  56.846  1.00  0.00     0.166 HD
HETATM   12  C   UNL     1      29.418  45.404  55.871  1.00  0.00     0.043 A 
HETATM   13  C   UNL     1      28.808  44.756  54.797  1.00  0.00     0.004 A 
HETATM   14  C   UNL     1      30.555  44.904  56.515  1.00  0.00     0.030 A 
HETATM   15  C   UNL     1      29.371  43.542  54.345  1.00  0.00     0.014 A 
HETATM   16  C   UNL     1      30.509  43.028  54.977  1.00  0.00     0.001 A 
HETATM   17  C   UNL     1      31.091  43.701  56.048  1.00  0.00     0.002 A 
ENDBRANCH   6   7
ENDBRANCH   1   5
BRANCH   2  18
HETATM   18  C   UNL     1      23.924  46.139  49.808  1.00  0.00     0.121 A 
HETATM   19  N   UNL     1      23.044  46.952  49.152  1.00  0.00    -0.272 N 
HETATM   20  H   UNL     1      22.934  47.955  49.279  1.00  0.00     0.189 HD
HETATM   21  N   UNL     1      22.267  46.318  48.263  1.00  0.00    -0.174 NA
HETATM   22  C   UNL     1      22.644  45.032  48.330  1.00  0.00     0.089 A 
HETATM   23  C   UNL     1      23.687  44.881  49.292  1.00  0.00     0.071 A 
BRANCH  22  24
HETATM   24  C   UNL     1      22.010  44.001  47.496  1.00  0.00    -0.006 A 
HETATM   25  C   UNL     1      22.572  42.715  47.411  1.00  0.00     0.015 A 
HETATM   26  C   UNL     1      21.984  41.722  46.621  1.00  0.00     0.024 A 
HETATM   27  C   UNL     1      20.825  42.006  45.904  1.00  0.00     0.034 A 
HETATM   28 CL   UNL     1      20.099  40.790  44.930  1.00  0.00    -0.084 Cl
HETATM   29  C   UNL     1      20.252  43.273  45.974  1.00  0.00     0.024 A 
HETATM   30  C   UNL     1      20.841  44.265  46.766  1.00  0.00     0.015 A 
ENDBRANCH  22  24
ENDBRANCH   2  18
TORSDOF 4
ENDMDL
MODEL 7
REMARK VINA RESULT:      -8.3      6.251      9.757
REMARK  4 active torsions:
REMARK  status: ('A' for Active; 'I' for Inactive)
REMARK    1  A    between atoms: C_7  and  C_8 
REMARK    2  A    between atoms: N_9  and  N_10 
REMARK       I    between atoms: N_10  and  C_11 
REMARK    3  A    between atoms: C_11  and  C_12 
REMARK    4  A    between atoms: C_16  and  C_17 
ROOT
HETATM    1  N   UNL     1      26.933  41.090  50.260  1.00  0.00    -0.242 N 
HETATM    2  C   UNL     1      27.105  42.466  50.296  1.00  0.00     0.289 C 
HETATM    3  O   UNL     1      27.108  43.189  49.303  1.00  0.00    -0.264 OA
HETATM    4  H   UNL     1      26.936  40.550  51.113  1.00  0.00     0.192 HD
ENDROOT
BRANCH   1   5
HETATM    5  N   UNL     1      26.770  40.451  49.063  1.00  0.00    -0.183 NA
HETATM    6  C   UNL     1      27.722  39.650  48.712  1.00  0.00     0.153 C 
BRANCH   6   7
HETATM    7  C   UNL     1      27.654  38.927  47.456  1.00  0.00     0.018 A 
HETATM    8  C   UNL     1      27.311  37.593  47.275  1.00  0.00     0.018 A 
HETATM    9  C   UNL     1      26.926  36.538  48.253  1.00  0.00     0.069 C 
HETATM   10  N   UNL     1      27.373  37.324  45.931  1.00  0.00    -0.358 N 
HETATM   11  H   UNL     1      27.171  36.427  45.509  1.00  0.00     0.166 HD
HETATM   12  C   UNL     1      27.746  38.443  45.228  1.00  0.00     0.043 A 
HETATM   13  C   UNL     1      27.931  39.467  46.155  1.00  0.00     0.004 A 
HETATM   14  C   UNL     1      27.930  38.620  43.851  1.00  0.00     0.030 A 
HETATM   15  C   UNL     1      28.324  40.737  45.677  1.00  0.00     0.014 A 
HETATM   16  C   UNL     1      28.514  40.932  44.304  1.00  0.00     0.001 A 
HETATM   17  C   UNL     1      28.318  39.886  43.405  1.00  0.00     0.002 A 
ENDBRANCH   6   7
ENDBRANCH   1   5
BRANCH   2  18
HETATM   18  C   UNL     1      27.287  43.016  51.617  1.00  0.00     0.121 A 
HETATM   19  N   UNL     1      26.225  43.190  52.459  1.00  0.00    -0.272 N 
HETATM   20  H   UNL     1      25.253  42.966  52.263  1.00  0.00     0.189 HD
HETATM   21  N   UNL     1      26.548  43.716  53.649  1.00  0.00    -0.174 NA
HETATM   22  C   UNL     1      27.876  43.898  53.597  1.00  0.00     0.089 A 
HETATM   23  C   UNL     1      28.377  43.468  52.333  1.00  0.00     0.071 A 
BRANCH  22  24
HETATM   24  C   UNL     1      28.617  44.471  54.730  1.00  0.00    -0.006 A 
HETATM   25  C   UNL     1      28.063  45.524  55.479  1.00  0.00     0.015 A 
HETATM   26  C   UNL     1      28.755  46.083  56.558  1.00  0.00     0.024 A 
HETATM   27  C   UNL     1      30.011  45.594  56.901  1.00  0.00     0.034 A 
HETATM   28 CL   UNL     1      30.867  46.278  58.226  1.00  0.00    -0.084 Cl
HETATM   29  C   UNL     1      30.579  44.552  56.173  1.00  0.00     0.024 A 
HETATM   30  C   UNL     1      29.885  43.992  55.093  1.00  0.00     0.015 A 
ENDBRANCH  22  24
ENDBRANCH   2  18
TORSDOF 4
ENDMDL
MODEL 8
REMARK VINA RESULT:      -8.3     14.287     17.082
REMARK  4 active torsions:
REMARK  status: ('A' for Active; 'I' for Inactive)
REMARK    1  A    between atoms: C_7  and  C_8 
REMARK    2  A    between atoms: N_9  and  N_10 
REMARK       I    between atoms: N_10  and  C_11 
REMARK    3  A    between atoms: C_11  and  C_12 
REMARK    4  A    between atoms: C_16  and  C_17 
ROOT
HETATM    1  N   UNL     1      34.864  51.952  43.518  1.00  0.00    -0.242 N 
HETATM    2  C   UNL     1      36.027  52.554  43.059  1.00  0.00     0.289 C 
HETATM    3  O   UNL     1      36.220  52.885  41.892  1.00  0.00    -0.264 OA
HETATM    4  H   UNL     1      34.764  51.707  44.493  1.00  0.00     0.192 HD
ENDROOT
BRANCH   1   5
HETATM    5  N   UNL     1      33.847  51.675  42.650  1.00  0.00    -0.183 NA
HETATM    6  C   UNL     1      32.693  51.439  43.184  1.00  0.00     0.153 C 
BRANCH   6   7
HETATM    7  C   UNL     1      31.545  51.127  42.353  1.00  0.00     0.018 A 
HETATM    8  C   UNL     1      30.919  49.894  42.220  1.00  0.00     0.018 A 
HETATM    9  C   UNL     1      31.206  48.575  42.849  1.00  0.00     0.069 C 
HETATM   10  N   UNL     1      29.879  50.046  41.338  1.00  0.00    -0.358 N 
HETATM   11  H   UNL     1      29.247  49.309  41.053  1.00  0.00     0.166 HD
HETATM   12  C   UNL     1      29.807  51.343  40.891  1.00  0.00     0.043 A 
HETATM   13  C   UNL     1      30.839  52.047  41.508  1.00  0.00     0.004 A 
HETATM   14  C   UNL     1      28.910  51.935  39.994  1.00  0.00     0.030 A 
HETATM   15  C   UNL     1      30.981  53.420  41.209  1.00  0.00     0.014 A 
HETATM   16  C   UNL     1      30.095  54.029  40.313  1.00  0.00     0.001 A 
HETATM   17  C   UNL     1      29.074  53.295  39.715  1.00  0.00     0.002 A 
ENDBRANCH   6   7
ENDBRANCH   1   5
BRANCH   2  18
HETATM   18  C   UNL     1      37.032  52.775  44.070  1.00  0.00     0.121 A 
HETATM   19  N   UNL     1      37.052  52.031  45.215  1.00  0.00    -0.272 N 
HETATM   20  H   UNL     1      36.406  51.288  45.467  1.00  0.00     0.189 HD
HETATM   21  N   UNL     1      38.040  52.353  46.063  1.00  0.00    -0.174 NA
HETATM   22  C   UNL     1      38.702  53.350  45.457  1.00  0.00     0.089 A 
HETATM   23  C   UNL     1      38.097  53.643  44.198  1.00  0.00     0.071 A 
BRANCH  22  24
HETATM   24  C   UNL     1      39.869  53.989  46.084  1.00  0.00    -0.006 A 
HETATM   25  C   UNL     1      40.696  54.844  45.334  1.00  0.00     0.015 A 
HETATM   26  C   UNL     1      41.811  55.458  45.913  1.00  0.00     0.024 A 
HETATM   27  C   UNL     1      42.112  55.223  47.251  1.00  0.00     0.034 A 
HETATM   28 CL   UNL     1      43.482  55.974  47.967  1.00  0.00    -0.084 Cl
HETATM   29  C   UNL     1      41.306  54.380  48.012  1.00  0.00     0.024 A 
HETATM   30  C   UNL     1      40.190  53.767  47.432  1.00  0.00     0.015 A 
ENDBRANCH  22  24
ENDBRANCH   2  18
TORSDOF 4
ENDMDL
MODEL 9
REMARK VINA RESULT:      -8.2      7.887     11.902
REMARK  4 active torsions:
REMARK  status: ('A' for Active; 'I' for Inactive)
REMARK    1  A    between atoms: C_7  and  C_8 
REMARK    2  A    between atoms: N_9  and  N_10 
REMARK       I    between atoms: N_10  and  C_11 
REMARK    3  A    between atoms: C_11  and  C_12 
REMARK    4  A    between atoms: C_16  and  C_17 
ROOT
HETATM    1  N   UNL     1      17.511  52.963  49.485  1.00  0.00    -0.242 N 
HETATM    2  C   UNL     1      16.160  52.901  49.797  1.00  0.00     0.289 C 
HETATM    3  O   UNL     1      15.501  51.865  49.814  1.00  0.00    -0.264 OA
HETATM    4  H   UNL     1      17.999  53.847  49.492  1.00  0.00     0.192 HD
ENDROOT
BRANCH   1   5
HETATM    5  N   UNL     1      18.190  51.825  49.153  1.00  0.00    -0.183 NA
HETATM    6  C   UNL     1      19.157  51.490  49.944  1.00  0.00     0.153 C 
BRANCH   6   7
HETATM    7  C   UNL     1      19.949  50.303  49.680  1.00  0.00     0.018 A 
HETATM    8  C   UNL     1      19.595  48.985  49.942  1.00  0.00     0.018 A 
HETATM    9  C   UNL     1      18.364  48.401  50.541  1.00  0.00     0.069 C 
HETATM   10  N   UNL     1      20.633  48.185  49.536  1.00  0.00    -0.358 N 
HETATM   11  H   UNL     1      20.649  47.176  49.606  1.00  0.00     0.166 HD
HETATM   12  C   UNL     1      21.655  48.942  49.015  1.00  0.00     0.043 A 
HETATM   13  C   UNL     1      21.258  50.275  49.092  1.00  0.00     0.004 A 
HETATM   14  C   UNL     1      22.889  48.543  48.488  1.00  0.00     0.030 A 
HETATM   15  C   UNL     1      22.147  51.264  48.615  1.00  0.00     0.014 A 
HETATM   16  C   UNL     1      23.386  50.884  48.086  1.00  0.00     0.001 A 
HETATM   17  C   UNL     1      23.749  49.542  48.023  1.00  0.00     0.002 A 
ENDBRANCH   6   7
ENDBRANCH   1   5
BRANCH   2  18
HETATM   18  C   UNL     1      15.555  54.172  50.110  1.00  0.00     0.121 A 
HETATM   19  N   UNL     1      15.101  54.998  49.121  1.00  0.00    -0.272 N 
HETATM   20  H   UNL     1      15.135  54.821  48.120  1.00  0.00     0.189 HD
HETATM   21  N   UNL     1      14.568  56.145  49.563  1.00  0.00    -0.174 NA
HETATM   22  C   UNL     1      14.672  56.081  50.899  1.00  0.00     0.089 A 
HETATM   23  C   UNL     1      15.288  54.852  51.281  1.00  0.00     0.071 A 
BRANCH  22  24
HETATM   24  C   UNL     1      14.196  57.174  51.760  1.00  0.00    -0.006 A 
HETATM   25  C   UNL     1      14.979  58.328  51.938  1.00  0.00     0.015 A 
HETATM   26  C   UNL     1      14.544  59.376  52.755  1.00  0.00     0.024 A 
HETATM   27  C   UNL     1      13.317  59.282  53.404  1.00  0.00     0.034 A 
HETATM   28 CL   UNL     1      12.777  60.567  54.410  1.00  0.00    -0.084 Cl
HETATM   29  C   UNL     1      12.524  58.148  53.241  1.00  0.00     0.024 A 
HETATM   30  C   UNL     1      12.961  57.100  52.422  1.00  0.00     0.015 A 
ENDBRANCH  22  24
ENDBRANCH   2  18
TORSDOF 4
ENDMDL
MODEL 10
REMARK VINA RESULT:      -8.0      5.337      6.803
REMARK  4 active torsions:
REMARK  status: ('A' for Active; 'I' for Inactive)
REMARK    1  A    between atoms: C_7  and  C_8 
REMARK    2  A    between atoms: N_9  and  N_10 
REMARK       I    between atoms: N_10  and  C_11 
REMARK    3  A    between atoms: C_11  and  C_12 
REMARK    4  A    between atoms: C_16  and  C_17 
ROOT
HETATM    1  N   UNL     1      26.220  43.526  51.051  1.00  0.00    -0.242 N 
HETATM    2  C   UNL     1      25.141  44.108  50.401  1.00  0.00     0.289 C 
HETATM    3  O   UNL     1      24.848  45.299  50.476  1.00  0.00    -0.264 OA
HETATM    4  H   UNL     1      26.411  42.540  50.945  1.00  0.00     0.192 HD
ENDROOT
BRANCH   1   5
HETATM    5  N   UNL     1      27.027  44.284  51.851  1.00  0.00    -0.183 NA
HETATM    6  C   UNL     1      26.813  44.192  53.123  1.00  0.00     0.153 C 
BRANCH   6   7
HETATM    7  C   UNL     1      27.608  44.960  54.063  1.00  0.00     0.018 A 
HETATM    8  C   UNL     1      27.366  46.256  54.502  1.00  0.00     0.018 A 
HETATM    9  C   UNL     1      26.279  47.217  54.169  1.00  0.00     0.069 C 
HETATM   10  N   UNL     1      28.362  46.592  55.384  1.00  0.00    -0.358 N 
HETATM   11  H   UNL     1      28.439  47.480  55.862  1.00  0.00     0.166 HD
HETATM   12  C   UNL     1      29.248  45.553  55.535  1.00  0.00     0.043 A 
HETATM   13  C   UNL     1      28.804  44.514  54.719  1.00  0.00     0.004 A 
HETATM   14  C   UNL     1      30.398  45.461  56.328  1.00  0.00     0.030 A 
HETATM   15  C   UNL     1      29.555  43.317  54.696  1.00  0.00     0.014 A 
HETATM   16  C   UNL     1      30.708  43.208  55.481  1.00  0.00     0.001 A 
HETATM   17  C   UNL     1      31.121  44.266  56.286  1.00  0.00     0.002 A 
ENDBRANCH   6   7
ENDBRANCH   1   5
BRANCH   2  18
HETATM   18  C   UNL     1      24.356  43.199  49.603  1.00  0.00     0.121 A 
HETATM   19  N   UNL     1      23.014  43.388  49.437  1.00  0.00    -0.272 N 
HETATM   20  H   UNL     1      22.454  44.142  49.828  1.00  0.00     0.189 HD
HETATM   21  N   UNL     1      22.417  42.461  48.675  1.00  0.00    -0.174 NA
HETATM   22  C   UNL     1      23.401  41.621  48.321  1.00  0.00     0.089 A 
HETATM   23  C   UNL     1      24.638  42.053  48.886  1.00  0.00     0.071 A 
BRANCH  22  24
HETATM   24  C   UNL     1      23.142  40.447  47.474  1.00  0.00    -0.006 A 
HETATM   25  C   UNL     1      24.193  39.837  46.768  1.00  0.00     0.015 A 
HETATM   26  C   UNL     1      23.964  38.721  45.956  1.00  0.00     0.024 A 
HETATM   27  C   UNL     1      22.679  38.203  45.840  1.00  0.00     0.034 A 
HETATM   28 CL   UNL     1      22.391  36.833  44.842  1.00  0.00    -0.084 Cl
HETATM   29  C   UNL     1      21.622  38.792  46.531  1.00  0.00     0.024 A 
HETATM   30  C   UNL     1      21.852  39.908  47.344  1.00  0.00     0.015 A 
ENDBRANCH  22  24
ENDBRANCH   2  18
TORSDOF 4
ENDMDL
