MODEL 1
REMARK VINA RESULT:     -10.1      0.000      0.000
REMARK  7 active torsions:
REMARK  status: ('A' for Active; 'I' for Inactive)
REMARK    1  A    between atoms: C_7  and  C_8 
REMARK    2  A    between atoms: N_9  and  N_10 
REMARK       I    between atoms: N_10  and  C_11 
REMARK    3  A    between atoms: C_11  and  C_12 
REMARK    4  A    between atoms: C_12  and  N_13 
REMARK       I    between atoms: N_13  and  C_14 
REMARK    5  A    between atoms: C_14  and  C_15 
REMARK    6  A    between atoms: C_16  and  C_17 
REMARK    7  A    between atoms: C_18  and  O_19 
ROOT
HETATM    1  N   UNL     1      25.272  44.454  50.451  1.00  0.00    -0.246 N 
HETATM    2  C   UNL     1      26.275  43.543  50.150  1.00  0.00     0.255 C 
HETATM    3  O   UNL     1      27.090  43.644  49.236  1.00  0.00    -0.270 OA
HETATM    4  H   UNL     1      24.600  44.228  51.189  1.00  0.00     0.192 HD
ENDROOT
BRANCH   2   5
HETATM    5  C   UNL     1      26.291  42.352  51.109  1.00  0.00     0.227 C 
BRANCH   5   6
HETATM    6  N   UNL     1      26.895  42.693  52.387  1.00  0.00    -0.349 N 
HETATM    7  C   UNL     1      28.105  42.176  52.765  1.00  0.00     0.241 C 
HETATM    8  O   UNL     1      28.763  41.428  52.049  1.00  0.00    -0.269 OA
HETATM    9  H   UNL     1      26.447  43.410  52.944  1.00  0.00     0.163 HD
BRANCH   7  10
HETATM   10  C   UNL     1      28.570  42.666  54.081  1.00  0.00     0.075 C 
HETATM   11  C   UNL     1      29.681  43.412  54.159  1.00  0.00     0.020 C 
BRANCH  11  12
HETATM   12  C   UNL     1      30.139  43.962  55.440  1.00  0.00    -0.003 A 
HETATM   13  C   UNL     1      29.721  45.221  55.912  1.00  0.00     0.078 A 
HETATM   14  C   UNL     1      30.211  45.684  57.140  1.00  0.00     0.037 A 
HETATM   15  C   UNL     1      31.101  44.908  57.887  1.00  0.00     0.003 A 
HETATM   16  C   UNL     1      31.513  43.665  57.418  1.00  0.00     0.001 A 
HETATM   17  C   UNL     1      31.034  43.192  56.198  1.00  0.00     0.014 A 
BRANCH  13  18
HETATM   18  O   UNL     1      28.849  45.915  55.110  1.00  0.00    -0.355 OA
HETATM   19  C   UNL     1      27.943  46.806  55.749  1.00  0.00     0.210 C 
ENDBRANCH  13  18
ENDBRANCH  11  12
ENDBRANCH   7  10
ENDBRANCH   5   6
ENDBRANCH   2   5
BRANCH   1  20
HETATM   20  N   UNL     1      25.101  45.569  49.682  1.00  0.00    -0.184 NA
HETATM   21  C   UNL     1      25.432  46.685  50.244  1.00  0.00     0.153 C 
BRANCH  21  22
HETATM   22  C   UNL     1      25.289  47.936  49.520  1.00  0.00     0.018 A 
HETATM   23  C   UNL     1      26.356  48.724  49.104  1.00  0.00     0.018 A 
HETATM   24  C   UNL     1      27.823  48.541  49.256  1.00  0.00     0.069 C 
HETATM   25  N   UNL     1      25.840  49.818  48.455  1.00  0.00    -0.358 N 
HETATM   26  H   UNL     1      26.384  50.562  48.043  1.00  0.00     0.166 HD
HETATM   27  C   UNL     1      24.467  49.770  48.437  1.00  0.00     0.043 A 
HETATM   28  C   UNL     1      24.088  48.600  49.098  1.00  0.00     0.004 A 
HETATM   29  C   UNL     1      23.544  50.669  47.888  1.00  0.00     0.030 A 
HETATM   30  C   UNL     1      22.709  48.323  49.213  1.00  0.00     0.014 A 
HETATM   31  C   UNL     1      21.771  49.210  48.671  1.00  0.00     0.001 A 
HETATM   32  C   UNL     1      22.186  50.367  48.018  1.00  0.00     0.002 A 
ENDBRANCH  21  22
ENDBRANCH   1  20
TORSDOF 7
ENDMDL
MODEL 2
REMARK VINA RESULT:      -9.8      3.324     10.390
REMARK  7 active torsions:
REMARK  status: ('A' for Active; 'I' for Inactive)
REMARK    1  A    between atoms: C_7  and  C_8 
REMARK    2  A    between atoms: N_9  and  N_10 
REMARK       I    between atoms: N_10  and  C_11 
REMARK    3  A    between atoms: C_11  and  C_12 
REMARK    4  A    between atoms: C_12  and  N_13 
REMARK       I    between atoms: N_13  and  C_14 
REMARK    5  A    between atoms: C_14  and  C_15 
REMARK    6  A    between atoms: C_16  and  C_17 
REMARK    7  A    between atoms: C_18  and  O_19 
ROOT
HETATM    1  N   UNL     1      25.165  45.958  51.343  1.00  0.00    -0.246 N 
HETATM    2  C   UNL     1      25.287  45.817  49.967  1.00  0.00     0.255 C 
HETATM    3  O   UNL     1      26.342  45.754  49.340  1.00  0.00    -0.270 OA
HETATM    4  H   UNL     1      24.234  46.078  51.750  1.00  0.00     0.192 HD
ENDROOT
BRANCH   2   5
HETATM    5  C   UNL     1      23.931  45.727  49.266  1.00  0.00     0.227 C 
BRANCH   5   6
HETATM    6  N   UNL     1      23.140  46.932  49.458  1.00  0.00    -0.349 N 
HETATM    7  C   UNL     1      22.414  47.479  48.434  1.00  0.00     0.241 C 
HETATM    8  O   UNL     1      22.357  46.979  47.315  1.00  0.00    -0.269 OA
HETATM    9  H   UNL     1      23.054  47.295  50.398  1.00  0.00     0.163 HD
BRANCH   7  10
HETATM   10  C   UNL     1      21.649  48.681  48.831  1.00  0.00     0.075 C 
HETATM   11  C   UNL     1      20.472  48.946  48.244  1.00  0.00     0.020 C 
BRANCH  11  12
HETATM   12  C   UNL     1      19.661  50.097  48.654  1.00  0.00    -0.003 A 
HETATM   13  C   UNL     1      18.588  49.980  49.559  1.00  0.00     0.078 A 
HETATM   14  C   UNL     1      17.852  51.123  49.893  1.00  0.00     0.037 A 
HETATM   15  C   UNL     1      18.176  52.364  49.339  1.00  0.00     0.003 A 
HETATM   16  C   UNL     1      19.237  52.478  48.445  1.00  0.00     0.001 A 
HETATM   17  C   UNL     1      19.978  51.348  48.103  1.00  0.00     0.014 A 
BRANCH  13  18
HETATM   18  O   UNL     1      18.338  48.722  50.049  1.00  0.00    -0.355 OA
HETATM   19  C   UNL     1      18.536  48.514  51.442  1.00  0.00     0.210 C 
ENDBRANCH  13  18
ENDBRANCH  11  12
ENDBRANCH   7  10
ENDBRANCH   5   6
ENDBRANCH   2   5
BRANCH   1  20
HETATM   20  N   UNL     1      26.277  46.073  52.125  1.00  0.00    -0.184 NA
HETATM   21  C   UNL     1      26.139  45.675  53.347  1.00  0.00     0.153 C 
BRANCH  21  22
HETATM   22  C   UNL     1      27.257  45.754  54.270  1.00  0.00     0.018 A 
HETATM   23  C   UNL     1      27.473  46.812  55.147  1.00  0.00     0.018 A 
HETATM   24  C   UNL     1      26.699  48.058  55.383  1.00  0.00     0.069 C 
HETATM   25  N   UNL     1      28.617  46.540  55.856  1.00  0.00    -0.358 N 
HETATM   26  H   UNL     1      29.017  47.134  56.568  1.00  0.00     0.166 HD
HETATM   27  C   UNL     1      29.156  45.338  55.468  1.00  0.00     0.043 A 
HETATM   28  C   UNL     1      28.327  44.818  54.473  1.00  0.00     0.004 A 
HETATM   29  C   UNL     1      30.307  44.680  55.923  1.00  0.00     0.030 A 
HETATM   30  C   UNL     1      28.674  43.572  53.906  1.00  0.00     0.014 A 
HETATM   31  C   UNL     1      29.821  42.900  54.348  1.00  0.00     0.001 A 
HETATM   32  C   UNL     1      30.624  43.449  55.342  1.00  0.00     0.002 A 
ENDBRANCH  21  22
ENDBRANCH   1  20
TORSDOF 7
ENDMDL
MODEL 3
REMARK VINA RESULT:      -9.2      2.331      9.036
REMARK  7 active torsions:
REMARK  status: ('A' for Active; 'I' for Inactive)
REMARK    1  A    between atoms: C_7  and  C_8 
REMARK    2  A    between atoms: N_9  and  N_10 
REMARK       I    between atoms: N_10  and  C_11 
REMARK    3  A    between atoms: C_11  and  C_12 
REMARK    4  A    between atoms: C_12  and  N_13 
REMARK       I    between atoms: N_13  and  C_14 
REMARK    5  A    between atoms: C_14  and  C_15 
REMARK    6  A    between atoms: C_16  and  C_17 
REMARK    7  A    between atoms: C_18  and  O_19 
ROOT
HETATM    1  N   UNL     1      25.031  43.935  52.448  1.00  0.00    -0.246 N 
HETATM    2  C   UNL     1      25.352  43.090  51.395  1.00  0.00     0.255 C 
HETATM    3  O   UNL     1      26.387  42.438  51.284  1.00  0.00    -0.270 OA
HETATM    4  H   UNL     1      24.171  44.489  52.398  1.00  0.00     0.192 HD
ENDROOT
BRANCH   2   5
HETATM    5  C   UNL     1      24.246  43.023  50.341  1.00  0.00     0.227 C 
BRANCH   5   6
HETATM    6  N   UNL     1      23.786  44.347  49.952  1.00  0.00    -0.349 N 
HETATM    7  C   UNL     1      22.761  44.512  49.059  1.00  0.00     0.241 C 
HETATM    8  O   UNL     1      22.152  43.571  48.561  1.00  0.00    -0.269 OA
HETATM    9  H   UNL     1      24.171  45.143  50.443  1.00  0.00     0.163 HD
BRANCH   7  10
HETATM   10  C   UNL     1      22.414  45.930  48.817  1.00  0.00     0.075 C 
HETATM   11  C   UNL     1      23.305  46.891  49.102  1.00  0.00     0.020 C 
BRANCH  11  12
HETATM   12  C   UNL     1      23.016  48.302  48.820  1.00  0.00    -0.003 A 
HETATM   13  C   UNL     1      24.032  49.267  48.683  1.00  0.00     0.078 A 
HETATM   14  C   UNL     1      23.677  50.597  48.426  1.00  0.00     0.037 A 
HETATM   15  C   UNL     1      22.333  50.963  48.306  1.00  0.00     0.003 A 
HETATM   16  C   UNL     1      21.331  50.007  48.443  1.00  0.00     0.001 A 
HETATM   17  C   UNL     1      21.670  48.681  48.699  1.00  0.00     0.014 A 
BRANCH  13  18
HETATM   18  O   UNL     1      25.322  48.818  48.820  1.00  0.00    -0.355 OA
HETATM   19  C   UNL     1      26.366  49.700  48.425  1.00  0.00     0.210 C 
ENDBRANCH  13  18
ENDBRANCH  11  12
ENDBRANCH   7  10
ENDBRANCH   5   6
ENDBRANCH   2   5
BRANCH   1  20
HETATM   20  N   UNL     1      25.914  44.129  53.470  1.00  0.00    -0.184 NA
HETATM   21  C   UNL     1      26.659  45.181  53.367  1.00  0.00     0.153 C 
BRANCH  21  22
HETATM   22  C   UNL     1      27.637  45.485  54.396  1.00  0.00     0.018 A 
HETATM   23  C   UNL     1      27.606  46.624  55.192  1.00  0.00     0.018 A 
HETATM   24  C   UNL     1      26.653  47.764  55.228  1.00  0.00     0.069 C 
HETATM   25  N   UNL     1      28.681  46.569  56.044  1.00  0.00    -0.358 N 
HETATM   26  H   UNL     1      28.911  47.264  56.739  1.00  0.00     0.166 HD
HETATM   27  C   UNL     1      29.416  45.428  55.827  1.00  0.00     0.043 A 
HETATM   28  C   UNL     1      28.788  44.725  54.798  1.00  0.00     0.004 A 
HETATM   29  C   UNL     1      30.579  44.974  56.463  1.00  0.00     0.030 A 
HETATM   30  C   UNL     1      29.361  43.501  54.387  1.00  0.00     0.014 A 
HETATM   31  C   UNL     1      30.523  43.032  55.011  1.00  0.00     0.001 A 
HETATM   32  C   UNL     1      31.122  43.760  56.034  1.00  0.00     0.002 A 
ENDBRANCH  21  22
ENDBRANCH   1  20
TORSDOF 7
ENDMDL
MODEL 4
REMARK VINA RESULT:      -9.1      2.287      9.567
REMARK  7 active torsions:
REMARK  status: ('A' for Active; 'I' for Inactive)
REMARK    1  A    between atoms: C_7  and  C_8 
REMARK    2  A    between atoms: N_9  and  N_10 
REMARK       I    between atoms: N_10  and  C_11 
REMARK    3  A    between atoms: C_11  and  C_12 
REMARK    4  A    between atoms: C_12  and  N_13 
REMARK       I    between atoms: N_13  and  C_14 
REMARK    5  A    between atoms: C_14  and  C_15 
REMARK    6  A    between atoms: C_16  and  C_17 
REMARK    7  A    between atoms: C_18  and  O_19 
ROOT
HETATM    1  N   UNL     1      26.707  43.412  52.525  1.00  0.00    -0.246 N 
HETATM    2  C   UNL     1      25.343  43.632  52.392  1.00  0.00     0.255 C 
HETATM    3  O   UNL     1      24.598  44.085  53.258  1.00  0.00    -0.270 OA
HETATM    4  H   UNL     1      27.214  42.957  51.760  1.00  0.00     0.192 HD
ENDROOT
BRANCH   2   5
HETATM    5  C   UNL     1      24.824  43.262  51.002  1.00  0.00     0.227 C 
BRANCH   5   6
HETATM    6  N   UNL     1      24.064  44.346  50.400  1.00  0.00    -0.349 N 
HETATM    7  C   UNL     1      24.675  45.318  49.654  1.00  0.00     0.241 C 
HETATM    8  O   UNL     1      25.880  45.321  49.421  1.00  0.00    -0.269 OA
HETATM    9  H   UNL     1      23.055  44.302  50.457  1.00  0.00     0.163 HD
BRANCH   7  10
HETATM   10  C   UNL     1      23.733  46.314  49.098  1.00  0.00     0.075 C 
HETATM   11  C   UNL     1      23.781  47.585  49.522  1.00  0.00     0.020 C 
BRANCH  11  12
HETATM   12  C   UNL     1      22.901  48.610  48.951  1.00  0.00    -0.003 A 
HETATM   13  C   UNL     1      23.341  49.923  48.689  1.00  0.00     0.078 A 
HETATM   14  C   UNL     1      22.438  50.849  48.154  1.00  0.00     0.037 A 
HETATM   15  C   UNL     1      21.118  50.479  47.882  1.00  0.00     0.003 A 
HETATM   16  C   UNL     1      20.686  49.182  48.141  1.00  0.00     0.001 A 
HETATM   17  C   UNL     1      21.573  48.250  48.674  1.00  0.00     0.014 A 
BRANCH  13  18
HETATM   18  O   UNL     1      24.651  50.198  48.993  1.00  0.00    -0.355 OA
HETATM   19  C   UNL     1      25.608  50.048  47.950  1.00  0.00     0.210 C 
ENDBRANCH  13  18
ENDBRANCH  11  12
ENDBRANCH   7  10
ENDBRANCH   5   6
ENDBRANCH   2   5
BRANCH   1  20
HETATM   20  N   UNL     1      27.334  43.670  53.709  1.00  0.00    -0.184 NA
HETATM   21  C   UNL     1      27.916  44.822  53.788  1.00  0.00     0.153 C 
BRANCH  21  22
HETATM   22  C   UNL     1      28.617  45.201  55.002  1.00  0.00     0.018 A 
HETATM   23  C   UNL     1      28.335  46.343  55.743  1.00  0.00     0.018 A 
HETATM   24  C   UNL     1      27.326  47.416  55.538  1.00  0.00     0.069 C 
HETATM   25  N   UNL     1      29.193  46.369  56.814  1.00  0.00    -0.358 N 
HETATM   26  H   UNL     1      29.215  47.086  57.526  1.00  0.00     0.166 HD
HETATM   27  C   UNL     1      30.029  45.280  56.794  1.00  0.00     0.043 A 
HETATM   28  C   UNL     1      29.695  44.526  55.669  1.00  0.00     0.004 A 
HETATM   29  C   UNL     1      31.047  44.913  57.685  1.00  0.00     0.030 A 
HETATM   30  C   UNL     1      30.423  43.341  55.426  1.00  0.00     0.014 A 
HETATM   31  C   UNL     1      31.445  42.958  56.305  1.00  0.00     0.001 A 
HETATM   32  C   UNL     1      31.750  43.735  57.418  1.00  0.00     0.002 A 
ENDBRANCH  21  22
ENDBRANCH   1  20
TORSDOF 7
ENDMDL
MODEL 5
REMARK VINA RESULT:      -8.9      3.307     10.683
REMARK  7 active torsions:
REMARK  status: ('A' for Active; 'I' for Inactive)
REMARK    1  A    between atoms: C_7  and  C_8 
REMARK    2  A    between atoms: N_9  and  N_10 
REMARK       I    between atoms: N_10  and  C_11 
REMARK    3  A    between atoms: C_11  and  C_12 
REMARK    4  A    between atoms: C_12  and  N_13 
REMARK       I    between atoms: N_13  and  C_14 
REMARK    5  A    between atoms: C_14  and  C_15 
REMARK    6  A    between atoms: C_16  and  C_17 
REMARK    7  A    between atoms: C_18  and  O_19 
ROOT
HETATM    1  N   UNL     1      25.964  45.211  51.024  1.00  0.00    -0.246 N 
HETATM    2  C   UNL     1      25.374  46.444  50.780  1.00  0.00     0.255 C 
HETATM    3  O   UNL     1      25.692  47.511  51.301  1.00  0.00    -0.270 OA
HETATM    4  H   UNL     1      25.565  44.374  50.590  1.00  0.00     0.192 HD
ENDROOT
BRANCH   2   5
HETATM    5  C   UNL     1      24.251  46.360  49.746  1.00  0.00     0.227 C 
BRANCH   5   6
HETATM    6  N   UNL     1      23.341  47.490  49.841  1.00  0.00    -0.349 N 
HETATM    7  C   UNL     1      22.612  47.912  48.761  1.00  0.00     0.241 C 
HETATM    8  O   UNL     1      22.653  47.353  47.669  1.00  0.00    -0.269 OA
HETATM    9  H   UNL     1      23.179  47.889  50.756  1.00  0.00     0.163 HD
BRANCH   7  10
HETATM   10  C   UNL     1      21.719  49.052  49.062  1.00  0.00     0.075 C 
HETATM   11  C   UNL     1      20.543  49.162  48.427  1.00  0.00     0.020 C 
BRANCH  11  12
HETATM   12  C   UNL     1      19.608  50.248  48.743  1.00  0.00    -0.003 A 
HETATM   13  C   UNL     1      18.433  50.038  49.490  1.00  0.00     0.078 A 
HETATM   14  C   UNL     1      17.583  51.122  49.741  1.00  0.00     0.037 A 
HETATM   15  C   UNL     1      17.896  52.396  49.258  1.00  0.00     0.003 A 
HETATM   16  C   UNL     1      19.058  52.601  48.520  1.00  0.00     0.001 A 
HETATM   17  C   UNL     1      19.911  51.531  48.263  1.00  0.00     0.014 A 
BRANCH  13  18
HETATM   18  O   UNL     1      18.204  48.754  49.920  1.00  0.00    -0.355 OA
HETATM   19  C   UNL     1      17.277  47.972  49.176  1.00  0.00     0.210 C 
ENDBRANCH  13  18
ENDBRANCH  11  12
ENDBRANCH   7  10
ENDBRANCH   5   6
ENDBRANCH   2   5
BRANCH   1  20
HETATM   20  N   UNL     1      26.973  45.099  51.936  1.00  0.00    -0.184 NA
HETATM   21  C   UNL     1      27.208  43.899  52.357  1.00  0.00     0.153 C 
BRANCH  21  22
HETATM   22  C   UNL     1      28.258  43.662  53.331  1.00  0.00     0.018 A 
HETATM   23  C   UNL     1      28.999  42.488  53.411  1.00  0.00     0.018 A 
HETATM   24  C   UNL     1      28.948  41.243  52.600  1.00  0.00     0.069 C 
HETATM   25  N   UNL     1      29.893  42.627  54.444  1.00  0.00    -0.358 N 
HETATM   26  H   UNL     1      30.564  41.930  54.733  1.00  0.00     0.166 HD
HETATM   27  C   UNL     1      29.756  43.855  55.043  1.00  0.00     0.043 A 
HETATM   28  C   UNL     1      28.738  44.530  54.369  1.00  0.00     0.004 A 
HETATM   29  C   UNL     1      30.455  44.411  56.123  1.00  0.00     0.030 A 
HETATM   30  C   UNL     1      28.405  45.832  54.805  1.00  0.00     0.014 A 
HETATM   31  C   UNL     1      29.093  46.403  55.883  1.00  0.00     0.001 A 
HETATM   32  C   UNL     1      30.103  45.700  56.531  1.00  0.00     0.002 A 
ENDBRANCH  21  22
ENDBRANCH   1  20
TORSDOF 7
ENDMDL
MODEL 6
REMARK VINA RESULT:      -8.8      3.409      9.919
REMARK  7 active torsions:
REMARK  status: ('A' for Active; 'I' for Inactive)
REMARK    1  A    between atoms: C_7  and  C_8 
REMARK    2  A    between atoms: N_9  and  N_10 
REMARK       I    between atoms: N_10  and  C_11 
REMARK    3  A    between atoms: C_11  and  C_12 
REMARK    4  A    between atoms: C_12  and  N_13 
REMARK       I    between atoms: N_13  and  C_14 
REMARK    5  A    between atoms: C_14  and  C_15 
REMARK    6  A    between atoms: C_16  and  C_17 
REMARK    7  A    between atoms: C_18  and  O_19 
ROOT
HETATM    1  N   UNL     1      24.441  44.661  50.062  1.00  0.00    -0.246 N 
HETATM    2  C   UNL     1      23.175  44.105  49.940  1.00  0.00     0.255 C 
HETATM    3  O   UNL     1      22.591  43.447  50.798  1.00  0.00    -0.270 OA
HETATM    4  H   UNL     1      24.860  45.126  49.252  1.00  0.00     0.192 HD
ENDROOT
BRANCH   2   5
HETATM    5  C   UNL     1      22.530  44.410  48.588  1.00  0.00     0.227 C 
BRANCH   5   6
HETATM    6  N   UNL     1      21.780  45.656  48.612  1.00  0.00    -0.349 N 
HETATM    7  C   UNL     1      21.682  46.452  47.503  1.00  0.00     0.241 C 
HETATM    8  O   UNL     1      22.184  46.156  46.423  1.00  0.00    -0.269 OA
HETATM    9  H   UNL     1      21.241  45.864  49.443  1.00  0.00     0.163 HD
BRANCH   7  10
HETATM   10  C   UNL     1      20.851  47.657  47.714  1.00  0.00     0.075 C 
HETATM   11  C   UNL     1      21.012  48.390  48.826  1.00  0.00     0.020 C 
BRANCH  11  12
HETATM   12  C   UNL     1      20.245  49.622  49.040  1.00  0.00    -0.003 A 
HETATM   13  C   UNL     1      19.105  49.667  49.867  1.00  0.00     0.078 A 
HETATM   14  C   UNL     1      18.419  50.879  50.013  1.00  0.00     0.037 A 
HETATM   15  C   UNL     1      18.857  52.028  49.350  1.00  0.00     0.003 A 
HETATM   16  C   UNL     1      19.983  51.981  48.534  1.00  0.00     0.001 A 
HETATM   17  C   UNL     1      20.675  50.782  48.379  1.00  0.00     0.014 A 
BRANCH  13  18
HETATM   18  O   UNL     1      18.746  48.490  50.474  1.00  0.00    -0.355 OA
HETATM   19  C   UNL     1      18.564  48.512  51.885  1.00  0.00     0.210 C 
ENDBRANCH  13  18
ENDBRANCH  11  12
ENDBRANCH   7  10
ENDBRANCH   5   6
ENDBRANCH   2   5
BRANCH   1  20
HETATM   20  N   UNL     1      25.170  44.471  51.200  1.00  0.00    -0.184 NA
HETATM   21  C   UNL     1      26.011  45.412  51.483  1.00  0.00     0.153 C 
BRANCH  21  22
HETATM   22  C   UNL     1      26.842  45.313  52.669  1.00  0.00     0.018 A 
HETATM   23  C   UNL     1      26.745  46.165  53.764  1.00  0.00     0.018 A 
HETATM   24  C   UNL     1      25.847  47.320  54.027  1.00  0.00     0.069 C 
HETATM   25  N   UNL     1      27.681  45.768  54.686  1.00  0.00    -0.358 N 
HETATM   26  H   UNL     1      27.838  46.205  55.584  1.00  0.00     0.166 HD
HETATM   27  C   UNL     1      28.389  44.685  54.226  1.00  0.00     0.043 A 
HETATM   28  C   UNL     1      27.887  44.373  52.962  1.00  0.00     0.004 A 
HETATM   29  C   UNL     1      29.427  43.966  54.834  1.00  0.00     0.030 A 
HETATM   30  C   UNL     1      28.460  43.282  52.273  1.00  0.00     0.014 A 
HETATM   31  C   UNL     1      29.498  42.552  52.865  1.00  0.00     0.001 A 
HETATM   32  C   UNL     1      29.973  42.891  54.128  1.00  0.00     0.002 A 
ENDBRANCH  21  22
ENDBRANCH   1  20
TORSDOF 7
ENDMDL
MODEL 7
REMARK VINA RESULT:      -8.8      2.385      9.583
REMARK  7 active torsions:
REMARK  status: ('A' for Active; 'I' for Inactive)
REMARK    1  A    between atoms: C_7  and  C_8 
REMARK    2  A    between atoms: N_9  and  N_10 
REMARK       I    between atoms: N_10  and  C_11 
REMARK    3  A    between atoms: C_11  and  C_12 
REMARK    4  A    between atoms: C_12  and  N_13 
REMARK       I    between atoms: N_13  and  C_14 
REMARK    5  A    between atoms: C_14  and  C_15 
REMARK    6  A    between atoms: C_16  and  C_17 
REMARK    7  A    between atoms: C_18  and  O_19 
ROOT
HETATM    1  N   UNL     1      26.536  44.603  52.107  1.00  0.00    -0.246 N 
HETATM    2  C   UNL     1      26.919  43.615  51.212  1.00  0.00     0.255 C 
HETATM    3  O   UNL     1      27.678  42.679  51.452  1.00  0.00    -0.270 OA
HETATM    4  H   UNL     1      25.958  45.380  51.774  1.00  0.00     0.192 HD
ENDROOT
BRANCH   2   5
HETATM    5  C   UNL     1      26.270  43.787  49.838  1.00  0.00     0.227 C 
BRANCH   5   6
HETATM    6  N   UNL     1      25.718  45.121  49.662  1.00  0.00    -0.349 N 
HETATM    7  C   UNL     1      24.366  45.341  49.672  1.00  0.00     0.241 C 
HETATM    8  O   UNL     1      23.546  44.447  49.859  1.00  0.00    -0.269 OA
HETATM    9  H   UNL     1      26.364  45.899  49.641  1.00  0.00     0.163 HD
BRANCH   7  10
HETATM   10  C   UNL     1      24.000  46.765  49.512  1.00  0.00     0.075 C 
HETATM   11  C   UNL     1      22.917  47.098  48.796  1.00  0.00     0.020 C 
BRANCH  11  12
HETATM   12  C   UNL     1      22.493  48.496  48.665  1.00  0.00    -0.003 A 
HETATM   13  C   UNL     1      21.156  48.899  48.848  1.00  0.00     0.078 A 
HETATM   14  C   UNL     1      20.826  50.251  48.695  1.00  0.00     0.037 A 
HETATM   15  C   UNL     1      21.808  51.189  48.365  1.00  0.00     0.003 A 
HETATM   16  C   UNL     1      23.128  50.788  48.184  1.00  0.00     0.001 A 
HETATM   17  C   UNL     1      23.470  49.446  48.333  1.00  0.00     0.014 A 
BRANCH  13  18
HETATM   18  O   UNL     1      20.259  47.910  49.165  1.00  0.00    -0.355 OA
HETATM   19  C   UNL     1      19.123  48.281  49.938  1.00  0.00     0.210 C 
ENDBRANCH  13  18
ENDBRANCH  11  12
ENDBRANCH   7  10
ENDBRANCH   5   6
ENDBRANCH   2   5
BRANCH   1  20
HETATM   20  N   UNL     1      27.037  44.615  53.376  1.00  0.00    -0.184 NA
HETATM   21  C   UNL     1      27.853  45.582  53.642  1.00  0.00     0.153 C 
BRANCH  21  22
HETATM   22  C   UNL     1      28.448  45.691  54.962  1.00  0.00     0.018 A 
HETATM   23  C   UNL     1      28.089  46.647  55.905  1.00  0.00     0.018 A 
HETATM   24  C   UNL     1      27.081  47.738  55.854  1.00  0.00     0.069 C 
HETATM   25  N   UNL     1      28.858  46.441  57.023  1.00  0.00    -0.358 N 
HETATM   26  H   UNL     1      28.812  46.987  57.872  1.00  0.00     0.166 HD
HETATM   27  C   UNL     1      29.712  45.381  56.838  1.00  0.00     0.043 A 
HETATM   28  C   UNL     1      29.481  44.887  55.554  1.00  0.00     0.004 A 
HETATM   29  C   UNL     1      30.662  44.830  57.708  1.00  0.00     0.030 A 
HETATM   30  C   UNL     1      30.246  43.782  55.122  1.00  0.00     0.014 A 
HETATM   31  C   UNL     1      31.201  43.218  55.978  1.00  0.00     0.001 A 
HETATM   32  C   UNL     1      31.404  43.737  57.253  1.00  0.00     0.002 A 
ENDBRANCH  21  22
ENDBRANCH   1  20
TORSDOF 7
ENDMDL
MODEL 8
REMARK VINA RESULT:      -8.6      3.030     10.151
REMARK  7 active torsions:
REMARK  status: ('A' for Active; 'I' for Inactive)
REMARK    1  A    between atoms: C_7  and  C_8 
REMARK    2  A    between atoms: N_9  and  N_10 
REMARK       I    between atoms: N_10  and  C_11 
REMARK    3  A    between atoms: C_11  and  C_12 
REMARK    4  A    between atoms: C_12  and  N_13 
REMARK       I    between atoms: N_13  and  C_14 
REMARK    5  A    between atoms: C_14  and  C_15 
REMARK    6  A    between atoms: C_16  and  C_17 
REMARK    7  A    between atoms: C_18  and  O_19 
ROOT
HETATM    1  N   UNL     1      24.693  45.191  51.219  1.00  0.00    -0.246 N 
HETATM    2  C   UNL     1      24.746  45.013  49.843  1.00  0.00     0.255 C 
HETATM    3  O   UNL     1      25.761  45.044  49.151  1.00  0.00    -0.270 OA
HETATM    4  H   UNL     1      23.780  45.221  51.681  1.00  0.00     0.192 HD
ENDROOT
BRANCH   2   5
HETATM    5  C   UNL     1      23.369  44.745  49.235  1.00  0.00     0.227 C 
BRANCH   5   6
HETATM    6  N   UNL     1      22.551  45.946  49.192  1.00  0.00    -0.349 N 
HETATM    7  C   UNL     1      21.478  46.049  48.349  1.00  0.00     0.241 C 
HETATM    8  O   UNL     1      21.121  45.137  47.609  1.00  0.00    -0.269 OA
HETATM    9  H   UNL     1      22.732  46.664  49.882  1.00  0.00     0.163 HD
BRANCH   7  10
HETATM   10  C   UNL     1      20.751  47.331  48.474  1.00  0.00     0.075 C 
HETATM   11  C   UNL     1      21.122  48.383  47.729  1.00  0.00     0.020 C 
BRANCH  11  12
HETATM   12  C   UNL     1      20.388  49.651  47.787  1.00  0.00    -0.003 A 
HETATM   13  C   UNL     1      20.732  50.683  48.681  1.00  0.00     0.078 A 
HETATM   14  C   UNL     1      19.976  51.861  48.685  1.00  0.00     0.037 A 
HETATM   15  C   UNL     1      18.894  52.013  47.814  1.00  0.00     0.003 A 
HETATM   16  C   UNL     1      18.555  50.992  46.931  1.00  0.00     0.001 A 
HETATM   17  C   UNL     1      19.299  49.814  46.917  1.00  0.00     0.014 A 
BRANCH  13  18
HETATM   18  O   UNL     1      21.806  50.444  49.502  1.00  0.00    -0.355 OA
HETATM   19  C   UNL     1      23.022  51.118  49.200  1.00  0.00     0.210 C 
ENDBRANCH  13  18
ENDBRANCH  11  12
ENDBRANCH   7  10
ENDBRANCH   5   6
ENDBRANCH   2   5
BRANCH   1  20
HETATM   20  N   UNL     1      25.830  45.460  51.923  1.00  0.00    -0.184 NA
HETATM   21  C   UNL     1      25.762  45.234  53.194  1.00  0.00     0.153 C 
BRANCH  21  22
HETATM   22  C   UNL     1      26.912  45.488  54.043  1.00  0.00     0.018 A 
HETATM   23  C   UNL     1      27.115  46.665  54.753  1.00  0.00     0.018 A 
HETATM   24  C   UNL     1      26.292  47.900  54.852  1.00  0.00     0.069 C 
HETATM   25  N   UNL     1      28.298  46.543  55.438  1.00  0.00    -0.358 N 
HETATM   26  H   UNL     1      28.699  47.247  56.041  1.00  0.00     0.166 HD
HETATM   27  C   UNL     1      28.877  45.321  55.193  1.00  0.00     0.043 A 
HETATM   28  C   UNL     1      28.033  44.634  54.321  1.00  0.00     0.004 A 
HETATM   29  C   UNL     1      30.076  44.782  55.679  1.00  0.00     0.030 A 
HETATM   30  C   UNL     1      28.415  43.336  53.915  1.00  0.00     0.014 A 
HETATM   31  C   UNL     1      29.610  42.781  54.390  1.00  0.00     0.001 A 
HETATM   32  C   UNL     1      30.427  43.496  55.260  1.00  0.00     0.002 A 
ENDBRANCH  21  22
ENDBRANCH   1  20
TORSDOF 7
ENDMDL
MODEL 9
REMARK VINA RESULT:      -8.4      4.013     11.202
REMARK  7 active torsions:
REMARK  status: ('A' for Active; 'I' for Inactive)
REMARK    1  A    between atoms: C_7  and  C_8 
REMARK    2  A    between atoms: N_9  and  N_10 
REMARK       I    between atoms: N_10  and  C_11 
REMARK    3  A    between atoms: C_11  and  C_12 
REMARK    4  A    between atoms: C_12  and  N_13 
REMARK       I    between atoms: N_13  and  C_14 
REMARK    5  A    between atoms: C_14  and  C_15 
REMARK    6  A    between atoms: C_16  and  C_17 
REMARK    7  A    between atoms: C_18  and  O_19 
ROOT
HETATM    1  N   UNL     1      25.425  45.689  50.805  1.00  0.00    -0.246 N 
HETATM    2  C   UNL     1      24.635  46.692  50.260  1.00  0.00     0.255 C 
HETATM    3  O   UNL     1      24.717  47.891  50.513  1.00  0.00    -0.270 OA
HETATM    4  H   UNL     1      25.216  44.713  50.580  1.00  0.00     0.192 HD
ENDROOT
BRANCH   2   5
HETATM    5  C   UNL     1      23.616  46.152  49.257  1.00  0.00     0.227 C 
BRANCH   5   6
HETATM    6  N   UNL     1      22.382  46.922  49.269  1.00  0.00    -0.349 N 
HETATM    7  C   UNL     1      21.771  47.309  48.107  1.00  0.00     0.241 C 
HETATM    8  O   UNL     1      22.199  47.009  46.997  1.00  0.00    -0.269 OA
HETATM    9  H   UNL     1      21.928  47.070  50.161  1.00  0.00     0.163 HD
BRANCH   7  10
HETATM   10  C   UNL     1      20.511  48.053  48.324  1.00  0.00     0.075 C 
HETATM   11  C   UNL     1      19.464  47.841  47.512  1.00  0.00     0.020 C 
BRANCH  11  12
HETATM   12  C   UNL     1      18.182  48.519  47.733  1.00  0.00    -0.003 A 
HETATM   13  C   UNL     1      16.949  47.929  47.396  1.00  0.00     0.078 A 
HETATM   14  C   UNL     1      15.767  48.643  47.626  1.00  0.00     0.037 A 
HETATM   15  C   UNL     1      15.809  49.924  48.183  1.00  0.00     0.003 A 
HETATM   16  C   UNL     1      17.029  50.505  48.515  1.00  0.00     0.001 A 
HETATM   17  C   UNL     1      18.212  49.806  48.291  1.00  0.00     0.014 A 
BRANCH  13  18
HETATM   18  O   UNL     1      17.004  46.671  46.850  1.00  0.00    -0.355 OA
HETATM   19  C   UNL     1      16.746  46.552  45.456  1.00  0.00     0.210 C 
ENDBRANCH  13  18
ENDBRANCH  11  12
ENDBRANCH   7  10
ENDBRANCH   5   6
ENDBRANCH   2   5
BRANCH   1  20
HETATM   20  N   UNL     1      26.377  45.991  51.736  1.00  0.00    -0.184 NA
HETATM   21  C   UNL     1      26.294  45.335  52.847  1.00  0.00     0.153 C 
BRANCH  21  22
HETATM   22  C   UNL     1      27.253  45.578  53.909  1.00  0.00     0.018 A 
HETATM   23  C   UNL     1      27.215  46.676  54.760  1.00  0.00     0.018 A 
HETATM   24  C   UNL     1      26.271  47.822  54.835  1.00  0.00     0.069 C 
HETATM   25  N   UNL     1      28.272  46.568  55.630  1.00  0.00    -0.358 N 
HETATM   26  H   UNL     1      28.493  47.226  56.365  1.00  0.00     0.166 HD
HETATM   27  C   UNL     1      29.001  45.433  55.372  1.00  0.00     0.043 A 
HETATM   28  C   UNL     1      28.388  44.788  54.297  1.00  0.00     0.004 A 
HETATM   29  C   UNL     1      30.146  44.937  56.008  1.00  0.00     0.030 A 
HETATM   30  C   UNL     1      28.959  43.581  53.837  1.00  0.00     0.014 A 
HETATM   31  C   UNL     1      30.105  43.070  54.460  1.00  0.00     0.001 A 
HETATM   32  C   UNL     1      30.688  43.741  55.531  1.00  0.00     0.002 A 
ENDBRANCH  21  22
ENDBRANCH   1  20
TORSDOF 7
ENDMDL
MODEL 10
REMARK VINA RESULT:      -8.3      3.511     10.563
REMARK  7 active torsions:
REMARK  status: ('A' for Active; 'I' for Inactive)
REMARK    1  A    between atoms: C_7  and  C_8 
REMARK    2  A    between atoms: N_9  and  N_10 
REMARK       I    between atoms: N_10  and  C_11 
REMARK    3  A    between atoms: C_11  and  C_12 
REMARK    4  A    between atoms: C_12  and  N_13 
REMARK       I    between atoms: N_13  and  C_14 
REMARK    5  A    between atoms: C_14  and  C_15 
REMARK    6  A    between atoms: C_16  and  C_17 
REMARK    7  A    between atoms: C_18  and  O_19 
ROOT
HETATM    1  N   UNL     1      25.593  46.065  50.506  1.00  0.00    -0.246 N 
HETATM    2  C   UNL     1      24.659  46.656  49.666  1.00  0.00     0.255 C 
HETATM    3  O   UNL     1      23.769  46.072  49.053  1.00  0.00    -0.270 OA
HETATM    4  H   UNL     1      26.339  46.642  50.905  1.00  0.00     0.192 HD
ENDROOT
BRANCH   2   5
HETATM    5  C   UNL     1      24.829  48.173  49.579  1.00  0.00     0.227 C 
BRANCH   5   6
HETATM    6  N   UNL     1      23.563  48.849  49.345  1.00  0.00    -0.349 N 
HETATM    7  C   UNL     1      23.405  49.731  48.310  1.00  0.00     0.241 C 
HETATM    8  O   UNL     1      24.297  49.981  47.505  1.00  0.00    -0.269 OA
HETATM    9  H   UNL     1      22.768  48.566  49.903  1.00  0.00     0.163 HD
BRANCH   7  10
HETATM   10  C   UNL     1      22.038  50.289  48.214  1.00  0.00     0.075 C 
HETATM   11  C   UNL     1      21.352  50.564  49.333  1.00  0.00     0.020 C 
BRANCH  11  12
HETATM   12  C   UNL     1      20.017  51.171  49.276  1.00  0.00    -0.003 A 
HETATM   13  C   UNL     1      18.966  50.763  50.119  1.00  0.00     0.078 A 
HETATM   14  C   UNL     1      17.716  51.382  49.996  1.00  0.00     0.037 A 
HETATM   15  C   UNL     1      17.513  52.392  49.052  1.00  0.00     0.003 A 
HETATM   16  C   UNL     1      18.554  52.793  48.220  1.00  0.00     0.001 A 
HETATM   17  C   UNL     1      19.802  52.185  48.330  1.00  0.00     0.014 A 
BRANCH  13  18
HETATM   18  O   UNL     1      19.254  49.761  51.012  1.00  0.00    -0.355 OA
HETATM   19  C   UNL     1      18.519  48.550  50.895  1.00  0.00     0.210 C 
ENDBRANCH  13  18
ENDBRANCH  11  12
ENDBRANCH   7  10
ENDBRANCH   5   6
ENDBRANCH   2   5
BRANCH   1  20
HETATM   20  N   UNL     1      25.599  44.712  50.685  1.00  0.00    -0.184 NA
HETATM   21  C   UNL     1      26.770  44.165  50.735  1.00  0.00     0.153 C 
BRANCH  21  22
HETATM   22  C   UNL     1      26.896  42.731  50.920  1.00  0.00     0.018 A 
HETATM   23  C   UNL     1      27.260  42.127  52.118  1.00  0.00     0.018 A 
HETATM   24  C   UNL     1      27.595  42.710  53.444  1.00  0.00     0.069 C 
HETATM   25  N   UNL     1      27.273  40.769  51.915  1.00  0.00    -0.358 N 
HETATM   26  H   UNL     1      27.501  40.076  52.614  1.00  0.00     0.166 HD
HETATM   27  C   UNL     1      26.931  40.468  50.619  1.00  0.00     0.043 A 
HETATM   28  C   UNL     1      26.688  41.677  49.967  1.00  0.00     0.004 A 
HETATM   29  C   UNL     1      26.820  39.223  49.986  1.00  0.00     0.030 A 
HETATM   30  C   UNL     1      26.314  41.631  48.606  1.00  0.00     0.014 A 
HETATM   31  C   UNL     1      26.199  40.397  47.956  1.00  0.00     0.001 A 
HETATM   32  C   UNL     1      26.448  39.210  48.639  1.00  0.00     0.002 A 
ENDBRANCH  21  22
ENDBRANCH   1  20
TORSDOF 7
ENDMDL
