MODEL 1
REMARK VINA RESULT:      -8.8      0.000      0.000
REMARK  8 active torsions:
REMARK  status: ('A' for Active; 'I' for Inactive)
REMARK    1  A    between atoms: N_4  and  C_6 
REMARK    2  A    between atoms: C_6  and  C_7 
REMARK       I    between atoms: C_7  and  N_8 
REMARK    3  A    between atoms: N_8  and  C_9 
REMARK    4  A    between atoms: C_15  and  C_16 
REMARK    5  A    between atoms: C_21  and  C_22 
REMARK       I    between atoms: C_22  and  N_23 
REMARK    6  A    between atoms: N_23  and  C_24 
REMARK    7  A    between atoms: C_25  and  O_26 
REMARK    8  A    between atoms: C_29  and  O_30 
ROOT
HETATM    1  C   UNL     1      25.106  44.995  51.479  1.00  0.00     0.093 C 
HETATM    2  S   UNL     1      25.100  45.056  53.173  1.00  0.00    -0.075 SA
HETATM    3  C   UNL     1      26.269  43.841  53.284  1.00  0.00    -0.008 C 
HETATM    4  C   UNL     1      26.608  43.303  52.055  1.00  0.00    -0.026 C 
HETATM    5  C   UNL     1      27.549  42.135  51.990  1.00  0.00     0.041 C 
HETATM    6  C   UNL     1      27.893  41.543  53.361  1.00  0.00     0.010 C 
HETATM    7  C   UNL     1      28.102  42.580  54.489  1.00  0.00    -0.002 C 
HETATM    8  C   UNL     1      26.811  43.426  54.619  1.00  0.00     0.052 C 
HETATM    9  C   UNL     1      26.002  44.056  50.960  1.00  0.00     0.073 C 
ENDROOT
BRANCH   9  10
HETATM   10  C   UNL     1      26.249  44.020  49.499  1.00  0.00     0.259 C 
HETATM   11  N   UNL     1      26.064  42.825  48.861  1.00  0.00    -0.320 N 
HETATM   12  H   UNL     1      26.863  42.518  48.314  1.00  0.00     0.169 HD
HETATM   13  O   UNL     1      26.886  44.923  48.947  1.00  0.00    -0.267 OA
BRANCH  11  14
HETATM   14  C   UNL     1      24.868  42.330  48.292  1.00  0.00     0.068 A 
HETATM   15  C   UNL     1      24.842  40.952  47.992  1.00  0.00     0.097 A 
HETATM   16  C   UNL     1      23.663  40.355  47.536  1.00  0.00     0.075 A 
HETATM   17  C   UNL     1      22.511  41.126  47.375  1.00  0.00     0.070 A 
HETATM   18  C   UNL     1      22.561  42.502  47.624  1.00  0.00     0.039 A 
HETATM   19  C   UNL     1      23.737  43.111  48.070  1.00  0.00     0.035 A 
BRANCH  15  20
HETATM   20  O   UNL     1      26.031  40.286  48.188  1.00  0.00    -0.354 OA
HETATM   21  C   UNL     1      26.607  39.668  47.044  1.00  0.00     0.210 C 
ENDBRANCH  15  20
BRANCH  17  22
HETATM   22  O   UNL     1      21.285  40.662  46.983  1.00  0.00    -0.356 OA
HETATM   23  C   UNL     1      21.048  39.263  47.103  1.00  0.00     0.210 C 
ENDBRANCH  17  22
ENDBRANCH  11  14
ENDBRANCH   9  10
BRANCH   1  24
HETATM   24  N   UNL     1      24.376  45.939  50.763  1.00  0.00    -0.319 N 
HETATM   25  C   UNL     1      24.752  47.247  50.557  1.00  0.00     0.248 C 
HETATM   26  O   UNL     1      25.577  47.905  51.194  1.00  0.00    -0.271 OA
HETATM   27  H   UNL     1      23.432  45.632  50.516  1.00  0.00     0.169 HD
BRANCH  25  28
HETATM   28  C   UNL     1      24.074  47.921  49.360  1.00  0.00     0.337 C 
BRANCH  28  29
HETATM   29  N   UNL     1      22.601  47.484  49.290  1.00  0.00    -0.062 N 
HETATM   30  C   UNL     1      21.650  48.655  49.158  1.00  0.00     0.239 C 
HETATM   31  C   UNL     1      20.219  48.154  49.364  1.00  0.00     0.007 C 
HETATM   32  C   UNL     1      19.222  49.305  49.245  1.00  0.00     0.011 C 
HETATM   33  C   UNL     1      19.887  47.039  48.365  1.00  0.00     0.007 C 
HETATM   34  C   UNL     1      20.909  45.907  48.437  1.00  0.00     0.028 C 
HETATM   35  C   UNL     1      22.338  46.411  48.279  1.00  0.00     0.235 C 
HETATM   36  H   UNL     1      22.430  47.102  50.238  1.00  0.00     0.280 HD
ENDBRANCH  28  29
ENDBRANCH  25  28
ENDBRANCH   1  24
BRANCH   7  37
HETATM   37  C   UNL     1      29.461  43.383  54.458  1.00  0.00    -0.047 C 
HETATM   38  C   UNL     1      30.283  43.231  53.167  1.00  0.00     0.015 C 
HETATM   39  C   UNL     1      29.171  44.893  54.639  1.00  0.00     0.015 C 
HETATM   40  C   UNL     1      30.354  42.950  55.643  1.00  0.00     0.015 C 
ENDBRANCH   7  37
TORSDOF 8
ENDMDL
MODEL 2
REMARK VINA RESULT:      -8.3      2.607      9.029
REMARK  8 active torsions:
REMARK  status: ('A' for Active; 'I' for Inactive)
REMARK    1  A    between atoms: N_4  and  C_6 
REMARK    2  A    between atoms: C_6  and  C_7 
REMARK       I    between atoms: C_7  and  N_8 
REMARK    3  A    between atoms: N_8  and  C_9 
REMARK    4  A    between atoms: C_15  and  C_16 
REMARK    5  A    between atoms: C_21  and  C_22 
REMARK       I    between atoms: C_22  and  N_23 
REMARK    6  A    between atoms: N_23  and  C_24 
REMARK    7  A    between atoms: C_25  and  O_26 
REMARK    8  A    between atoms: C_29  and  O_30 
ROOT
HETATM    1  C   UNL     1      21.499  46.954  48.310  1.00  0.00     0.093 C 
HETATM    2  S   UNL     1      19.817  46.747  48.371  1.00  0.00    -0.075 SA
HETATM    3  C   UNL     1      19.584  48.308  48.971  1.00  0.00    -0.008 C 
HETATM    4  C   UNL     1      20.771  48.972  49.229  1.00  0.00    -0.026 C 
HETATM    5  C   UNL     1      20.739  50.328  49.873  1.00  0.00     0.041 C 
HETATM    6  C   UNL     1      19.344  50.751  50.351  1.00  0.00     0.010 C 
HETATM    7  C   UNL     1      18.183  50.372  49.402  1.00  0.00    -0.002 C 
HETATM    8  C   UNL     1      18.199  48.835  49.202  1.00  0.00     0.052 C 
HETATM    9  C   UNL     1      21.919  48.216  48.737  1.00  0.00     0.073 C 
ENDROOT
BRANCH   9  10
HETATM   10  C   UNL     1      23.340  48.604  48.566  1.00  0.00     0.259 C 
HETATM   11  N   UNL     1      24.179  48.394  49.625  1.00  0.00    -0.320 N 
HETATM   12  H   UNL     1      24.698  49.218  49.912  1.00  0.00     0.169 HD
HETATM   13  O   UNL     1      23.678  49.358  47.649  1.00  0.00    -0.267 OA
BRANCH  11  14
HETATM   14  C   UNL     1      24.923  47.227  49.915  1.00  0.00     0.068 A 
HETATM   15  C   UNL     1      26.267  47.220  49.488  1.00  0.00     0.097 A 
HETATM   16  C   UNL     1      27.108  46.159  49.833  1.00  0.00     0.075 A 
HETATM   17  C   UNL     1      26.614  45.103  50.601  1.00  0.00     0.070 A 
HETATM   18  C   UNL     1      25.266  45.092  50.974  1.00  0.00     0.039 A 
HETATM   19  C   UNL     1      24.413  46.143  50.625  1.00  0.00     0.035 A 
BRANCH  15  20
HETATM   20  O   UNL     1      26.651  48.311  48.740  1.00  0.00    -0.354 OA
HETATM   21  C   UNL     1      27.808  49.009  49.185  1.00  0.00     0.210 C 
ENDBRANCH  15  20
BRANCH  17  22
HETATM   22  O   UNL     1      27.337  44.029  51.046  1.00  0.00    -0.356 OA
HETATM   23  C   UNL     1      26.749  43.224  52.062  1.00  0.00     0.210 C 
ENDBRANCH  17  22
ENDBRANCH  11  14
ENDBRANCH   9  10
BRANCH   1  24
HETATM   24  N   UNL     1      22.284  45.964  47.726  1.00  0.00    -0.319 N 
HETATM   25  C   UNL     1      22.178  44.614  47.974  1.00  0.00     0.248 C 
HETATM   26  O   UNL     1      21.645  44.063  48.939  1.00  0.00    -0.271 OA
HETATM   27  H   UNL     1      23.078  46.326  47.191  1.00  0.00     0.169 HD
BRANCH  25  28
HETATM   28  C   UNL     1      22.768  43.720  46.879  1.00  0.00     0.337 C 
BRANCH  28  29
HETATM   29  N   UNL     1      23.429  42.488  47.521  1.00  0.00    -0.062 N 
HETATM   30  C   UNL     1      23.712  41.388  46.520  1.00  0.00     0.239 C 
HETATM   31  C   UNL     1      24.113  40.122  47.279  1.00  0.00     0.007 C 
HETATM   32  C   UNL     1      24.404  38.980  46.307  1.00  0.00     0.011 C 
HETATM   33  C   UNL     1      25.324  40.392  48.181  1.00  0.00     0.007 C 
HETATM   34  C   UNL     1      25.064  41.568  49.120  1.00  0.00     0.028 C 
HETATM   35  C   UNL     1      24.619  42.817  48.369  1.00  0.00     0.235 C 
HETATM   36  H   UNL     1      22.676  42.115  48.129  1.00  0.00     0.280 HD
ENDBRANCH  28  29
ENDBRANCH  25  28
ENDBRANCH   1  24
BRANCH   7  37
HETATM   37  C   UNL     1      18.036  51.242  48.094  1.00  0.00    -0.047 C 
HETATM   38  C   UNL     1      18.548  50.579  46.804  1.00  0.00     0.015 C 
HETATM   39  C   UNL     1      16.544  51.586  47.868  1.00  0.00     0.015 C 
HETATM   40  C   UNL     1      18.786  52.583  48.268  1.00  0.00     0.015 C 
ENDBRANCH   7  37
TORSDOF 8
ENDMDL
MODEL 3
REMARK VINA RESULT:      -8.1      1.963      7.867
REMARK  8 active torsions:
REMARK  status: ('A' for Active; 'I' for Inactive)
REMARK    1  A    between atoms: N_4  and  C_6 
REMARK    2  A    between atoms: C_6  and  C_7 
REMARK       I    between atoms: C_7  and  N_8 
REMARK    3  A    between atoms: N_8  and  C_9 
REMARK    4  A    between atoms: C_15  and  C_16 
REMARK    5  A    between atoms: C_21  and  C_22 
REMARK       I    between atoms: C_22  and  N_23 
REMARK    6  A    between atoms: N_23  and  C_24 
REMARK    7  A    between atoms: C_25  and  O_26 
REMARK    8  A    between atoms: C_29  and  O_30 
ROOT
HETATM    1  C   UNL     1      23.968  45.827  50.052  1.00  0.00     0.093 C 
HETATM    2  S   UNL     1      23.876  47.478  49.679  1.00  0.00    -0.075 SA
HETATM    3  C   UNL     1      22.699  47.209  48.497  1.00  0.00    -0.008 C 
HETATM    4  C   UNL     1      22.432  45.866  48.296  1.00  0.00    -0.026 C 
HETATM    5  C   UNL     1      21.494  45.452  47.199  1.00  0.00     0.041 C 
HETATM    6  C   UNL     1      21.069  46.605  46.282  1.00  0.00     0.010 C 
HETATM    7  C   UNL     1      20.797  47.947  47.001  1.00  0.00    -0.002 C 
HETATM    8  C   UNL     1      22.080  48.361  47.764  1.00  0.00     0.052 C 
HETATM    9  C   UNL     1      23.103  45.036  49.293  1.00  0.00     0.073 C 
ENDROOT
BRANCH   9  10
HETATM   10  C   UNL     1      22.941  43.602  49.635  1.00  0.00     0.259 C 
HETATM   11  N   UNL     1      23.316  42.687  48.691  1.00  0.00    -0.320 N 
HETATM   12  H   UNL     1      22.595  42.010  48.461  1.00  0.00     0.169 HD
HETATM   13  O   UNL     1      22.221  43.259  50.578  1.00  0.00    -0.267 OA
BRANCH  11  14
HETATM   14  C   UNL     1      24.596  42.112  48.510  1.00  0.00     0.068 A 
HETATM   15  C   UNL     1      24.746  41.258  47.398  1.00  0.00     0.097 A 
HETATM   16  C   UNL     1      26.003  40.739  47.076  1.00  0.00     0.075 A 
HETATM   17  C   UNL     1      27.111  41.067  47.858  1.00  0.00     0.070 A 
HETATM   18  C   UNL     1      26.943  41.872  48.990  1.00  0.00     0.039 A 
HETATM   19  C   UNL     1      25.688  42.388  49.328  1.00  0.00     0.035 A 
BRANCH  15  20
HETATM   20  O   UNL     1      23.590  41.002  46.694  1.00  0.00    -0.354 OA
HETATM   21  C   UNL     1      23.183  39.641  46.617  1.00  0.00     0.210 C 
ENDBRANCH  15  20
BRANCH  17  22
HETATM   22  O   UNL     1      28.400  40.669  47.629  1.00  0.00    -0.356 OA
HETATM   23  C   UNL     1      28.965  39.736  48.542  1.00  0.00     0.210 C 
ENDBRANCH  17  22
ENDBRANCH  11  14
ENDBRANCH   9  10
BRANCH   1  24
HETATM   24  N   UNL     1      24.742  45.418  51.135  1.00  0.00    -0.319 N 
HETATM   25  C   UNL     1      26.115  45.479  51.200  1.00  0.00     0.248 C 
HETATM   26  O   UNL     1      26.912  45.579  50.265  1.00  0.00    -0.271 OA
HETATM   27  H   UNL     1      24.217  44.909  51.851  1.00  0.00     0.169 HD
BRANCH  25  28
HETATM   28  C   UNL     1      26.685  45.458  52.621  1.00  0.00     0.337 C 
BRANCH  28  29
HETATM   29  N   UNL     1      27.663  44.280  52.767  1.00  0.00    -0.062 N 
HETATM   30  C   UNL     1      28.543  44.399  53.993  1.00  0.00     0.239 C 
HETATM   31  C   UNL     1      29.648  43.344  53.912  1.00  0.00     0.007 C 
HETATM   32  C   UNL     1      30.567  43.430  55.129  1.00  0.00     0.011 C 
HETATM   33  C   UNL     1      29.046  41.939  53.782  1.00  0.00     0.007 C 
HETATM   34  C   UNL     1      28.082  41.857  52.600  1.00  0.00     0.028 C 
HETATM   35  C   UNL     1      27.009  42.937  52.654  1.00  0.00     0.235 C 
HETATM   36  H   UNL     1      28.302  44.412  51.961  1.00  0.00     0.280 HD
ENDBRANCH  28  29
ENDBRANCH  25  28
ENDBRANCH   1  24
BRANCH   7  37
HETATM   37  C   UNL     1      19.444  48.046  47.809  1.00  0.00    -0.047 C 
HETATM   38  C   UNL     1      19.516  47.568  49.269  1.00  0.00     0.015 C 
HETATM   39  C   UNL     1      18.965  49.518  47.834  1.00  0.00     0.015 C 
HETATM   40  C   UNL     1      18.345  47.227  47.094  1.00  0.00     0.015 C 
ENDBRANCH   7  37
TORSDOF 8
ENDMDL
MODEL 4
REMARK VINA RESULT:      -8.1      3.787      9.551
REMARK  8 active torsions:
REMARK  status: ('A' for Active; 'I' for Inactive)
REMARK    1  A    between atoms: N_4  and  C_6 
REMARK    2  A    between atoms: C_6  and  C_7 
REMARK       I    between atoms: C_7  and  N_8 
REMARK    3  A    between atoms: N_8  and  C_9 
REMARK    4  A    between atoms: C_15  and  C_16 
REMARK    5  A    between atoms: C_21  and  C_22 
REMARK       I    between atoms: C_22  and  N_23 
REMARK    6  A    between atoms: N_23  and  C_24 
REMARK    7  A    between atoms: C_25  and  O_26 
REMARK    8  A    between atoms: C_29  and  O_30 
ROOT
HETATM    1  C   UNL     1      22.327  49.207  48.732  1.00  0.00     0.093 C 
HETATM    2  S   UNL     1      22.063  50.744  49.398  1.00  0.00    -0.075 SA
HETATM    3  C   UNL     1      20.657  50.966  48.487  1.00  0.00    -0.008 C 
HETATM    4  C   UNL     1      20.421  49.932  47.597  1.00  0.00    -0.026 C 
HETATM    5  C   UNL     1      19.274  50.031  46.632  1.00  0.00     0.041 C 
HETATM    6  C   UNL     1      18.586  51.401  46.631  1.00  0.00     0.010 C 
HETATM    7  C   UNL     1      18.420  52.053  48.023  1.00  0.00    -0.002 C 
HETATM    8  C   UNL     1      19.823  52.199  48.664  1.00  0.00     0.052 C 
HETATM    9  C   UNL     1      21.351  48.826  47.809  1.00  0.00     0.073 C 
ENDROOT
BRANCH   9  10
HETATM   10  C   UNL     1      21.350  47.439  47.285  1.00  0.00     0.259 C 
HETATM   11  N   UNL     1      20.194  46.720  47.416  1.00  0.00    -0.320 N 
HETATM   12  H   UNL     1      20.314  45.821  47.873  1.00  0.00     0.169 HD
HETATM   13  O   UNL     1      22.412  46.861  47.037  1.00  0.00    -0.267 OA
BRANCH  11  14
HETATM   14  C   UNL     1      19.109  46.663  46.511  1.00  0.00     0.068 A 
HETATM   15  C   UNL     1      17.841  46.997  47.032  1.00  0.00     0.097 A 
HETATM   16  C   UNL     1      16.734  47.080  46.185  1.00  0.00     0.075 A 
HETATM   17  C   UNL     1      16.883  46.831  44.820  1.00  0.00     0.070 A 
HETATM   18  C   UNL     1      18.132  46.449  44.320  1.00  0.00     0.039 A 
HETATM   19  C   UNL     1      19.245  46.351  45.161  1.00  0.00     0.035 A 
BRANCH  15  20
HETATM   20  O   UNL     1      17.807  47.226  48.390  1.00  0.00    -0.354 OA
HETATM   21  C   UNL     1      16.532  47.135  49.015  1.00  0.00     0.210 C 
ENDBRANCH  15  20
BRANCH  17  22
HETATM   22  O   UNL     1      15.896  46.923  43.876  1.00  0.00    -0.356 OA
HETATM   23  C   UNL     1      14.579  47.204  44.336  1.00  0.00     0.210 C 
ENDBRANCH  17  22
ENDBRANCH  11  14
ENDBRANCH   9  10
BRANCH   1  24
HETATM   24  N   UNL     1      23.354  48.415  49.239  1.00  0.00    -0.319 N 
HETATM   25  C   UNL     1      24.699  48.644  49.056  1.00  0.00     0.248 C 
HETATM   26  O   UNL     1      25.237  49.341  48.193  1.00  0.00    -0.271 OA
HETATM   27  H   UNL     1      23.035  47.533  49.646  1.00  0.00     0.169 HD
BRANCH  25  28
HETATM   28  C   UNL     1      25.604  47.968  50.090  1.00  0.00     0.337 C 
BRANCH  28  29
HETATM   29  N   UNL     1      25.014  46.600  50.475  1.00  0.00    -0.062 N 
HETATM   30  C   UNL     1      25.196  45.560  49.392  1.00  0.00     0.239 C 
HETATM   31  C   UNL     1      24.356  44.330  49.742  1.00  0.00     0.007 C 
HETATM   32  C   UNL     1      24.505  43.251  48.671  1.00  0.00     0.011 C 
HETATM   33  C   UNL     1      24.745  43.785  51.122  1.00  0.00     0.007 C 
HETATM   34  C   UNL     1      24.653  44.870  52.193  1.00  0.00     0.028 C 
HETATM   35  C   UNL     1      25.451  46.114  51.823  1.00  0.00     0.235 C 
HETATM   36  H   UNL     1      23.995  46.790  50.501  1.00  0.00     0.280 HD
ENDBRANCH  28  29
ENDBRANCH  25  28
ENDBRANCH   1  24
BRANCH   7  37
HETATM   37  C   UNL     1      17.292  51.450  48.948  1.00  0.00    -0.047 C 
HETATM   38  C   UNL     1      17.782  50.465  50.023  1.00  0.00     0.015 C 
HETATM   39  C   UNL     1      16.558  52.598  49.682  1.00  0.00     0.015 C 
HETATM   40  C   UNL     1      16.238  50.722  48.083  1.00  0.00     0.015 C 
ENDBRANCH   7  37
TORSDOF 8
ENDMDL
MODEL 5
REMARK VINA RESULT:      -8.0      3.315      8.768
REMARK  8 active torsions:
REMARK  status: ('A' for Active; 'I' for Inactive)
REMARK    1  A    between atoms: N_4  and  C_6 
REMARK    2  A    between atoms: C_6  and  C_7 
REMARK       I    between atoms: C_7  and  N_8 
REMARK    3  A    between atoms: N_8  and  C_9 
REMARK    4  A    between atoms: C_15  and  C_16 
REMARK    5  A    between atoms: C_21  and  C_22 
REMARK       I    between atoms: C_22  and  N_23 
REMARK    6  A    between atoms: N_23  and  C_24 
REMARK    7  A    between atoms: C_25  and  O_26 
REMARK    8  A    between atoms: C_29  and  O_30 
ROOT
HETATM    1  C   UNL     1      21.471  46.966  48.355  1.00  0.00     0.093 C 
HETATM    2  S   UNL     1      19.791  46.769  48.466  1.00  0.00    -0.075 SA
HETATM    3  C   UNL     1      19.581  48.343  49.042  1.00  0.00    -0.008 C 
HETATM    4  C   UNL     1      20.778  49.005  49.253  1.00  0.00    -0.026 C 
HETATM    5  C   UNL     1      20.770  50.374  49.872  1.00  0.00     0.041 C 
HETATM    6  C   UNL     1      19.392  50.813  50.380  1.00  0.00     0.010 C 
HETATM    7  C   UNL     1      18.203  50.421  49.472  1.00  0.00    -0.002 C 
HETATM    8  C   UNL     1      18.206  48.881  49.301  1.00  0.00     0.052 C 
HETATM    9  C   UNL     1      21.909  48.234  48.745  1.00  0.00     0.073 C 
ENDROOT
BRANCH   9  10
HETATM   10  C   UNL     1      23.326  48.611  48.526  1.00  0.00     0.259 C 
HETATM   11  N   UNL     1      24.194  48.415  49.565  1.00  0.00    -0.320 N 
HETATM   12  H   UNL     1      24.725  49.242  49.823  1.00  0.00     0.169 HD
HETATM   13  O   UNL     1      23.642  49.347  47.587  1.00  0.00    -0.267 OA
BRANCH  11  14
HETATM   14  C   UNL     1      24.940  47.249  49.854  1.00  0.00     0.068 A 
HETATM   15  C   UNL     1      26.290  47.254  49.447  1.00  0.00     0.097 A 
HETATM   16  C   UNL     1      27.132  46.193  49.794  1.00  0.00     0.075 A 
HETATM   17  C   UNL     1      26.633  45.128  50.544  1.00  0.00     0.070 A 
HETATM   18  C   UNL     1      25.280  45.106  50.899  1.00  0.00     0.039 A 
HETATM   19  C   UNL     1      24.426  46.156  50.547  1.00  0.00     0.035 A 
BRANCH  15  20
HETATM   20  O   UNL     1      26.678  48.353  48.714  1.00  0.00    -0.354 OA
HETATM   21  C   UNL     1      27.811  49.067  49.195  1.00  0.00     0.210 C 
ENDBRANCH  15  20
BRANCH  17  22
HETATM   22  O   UNL     1      27.355  44.054  50.990  1.00  0.00    -0.356 OA
HETATM   23  C   UNL     1      27.085  42.793  50.388  1.00  0.00     0.210 C 
ENDBRANCH  17  22
ENDBRANCH  11  14
ENDBRANCH   9  10
BRANCH   1  24
HETATM   24  N   UNL     1      22.235  45.961  47.767  1.00  0.00    -0.319 N 
HETATM   25  C   UNL     1      22.181  44.626  48.097  1.00  0.00     0.248 C 
HETATM   26  O   UNL     1      21.737  44.120  49.129  1.00  0.00    -0.271 OA
HETATM   27  H   UNL     1      22.977  46.308  47.155  1.00  0.00     0.169 HD
BRANCH  25  28
HETATM   28  C   UNL     1      22.710  43.683  47.012  1.00  0.00     0.337 C 
BRANCH  28  29
HETATM   29  N   UNL     1      22.197  44.141  45.636  1.00  0.00    -0.062 N 
HETATM   30  C   UNL     1      23.317  44.390  44.649  1.00  0.00     0.239 C 
HETATM   31  C   UNL     1      22.741  45.090  43.416  1.00  0.00     0.007 C 
HETATM   32  C   UNL     1      23.839  45.367  42.391  1.00  0.00     0.011 C 
HETATM   33  C   UNL     1      21.614  44.254  42.796  1.00  0.00     0.007 C 
HETATM   34  C   UNL     1      20.537  43.924  43.827  1.00  0.00     0.028 C 
HETATM   35  C   UNL     1      21.116  43.270  45.076  1.00  0.00     0.235 C 
HETATM   36  H   UNL     1      21.802  45.078  45.840  1.00  0.00     0.280 HD
ENDBRANCH  28  29
ENDBRANCH  25  28
ENDBRANCH   1  24
BRANCH   7  37
HETATM   37  C   UNL     1      18.023  51.267  48.151  1.00  0.00    -0.047 C 
HETATM   38  C   UNL     1      18.522  50.588  46.864  1.00  0.00     0.015 C 
HETATM   39  C   UNL     1      16.523  51.589  47.944  1.00  0.00     0.015 C 
HETATM   40  C   UNL     1      18.759  52.620  48.290  1.00  0.00     0.015 C 
ENDBRANCH   7  37
TORSDOF 8
ENDMDL
MODEL 6
REMARK VINA RESULT:      -8.0      4.739      9.405
REMARK  8 active torsions:
REMARK  status: ('A' for Active; 'I' for Inactive)
REMARK    1  A    between atoms: N_4  and  C_6 
REMARK    2  A    between atoms: C_6  and  C_7 
REMARK       I    between atoms: C_7  and  N_8 
REMARK    3  A    between atoms: N_8  and  C_9 
REMARK    4  A    between atoms: C_15  and  C_16 
REMARK    5  A    between atoms: C_21  and  C_22 
REMARK       I    between atoms: C_22  and  N_23 
REMARK    6  A    between atoms: N_23  and  C_24 
REMARK    7  A    between atoms: C_25  and  O_26 
REMARK    8  A    between atoms: C_29  and  O_30 
ROOT
HETATM    1  C   UNL     1      17.232  46.460  46.879  1.00  0.00     0.093 C 
HETATM    2  S   UNL     1      16.350  47.908  46.887  1.00  0.00    -0.075 SA
HETATM    3  C   UNL     1      17.282  48.542  48.145  1.00  0.00    -0.008 C 
HETATM    4  C   UNL     1      18.203  47.638  48.644  1.00  0.00    -0.026 C 
HETATM    5  C   UNL     1      19.032  48.006  49.842  1.00  0.00     0.041 C 
HETATM    6  C   UNL     1      18.611  49.325  50.501  1.00  0.00     0.010 C 
HETATM    7  C   UNL     1      18.215  50.452  49.519  1.00  0.00    -0.002 C 
HETATM    8  C   UNL     1      17.051  49.941  48.633  1.00  0.00     0.052 C 
HETATM    9  C   UNL     1      18.258  46.429  47.827  1.00  0.00     0.073 C 
ENDROOT
BRANCH   9  10
HETATM   10  C   UNL     1      19.226  45.306  47.812  1.00  0.00     0.259 C 
HETATM   11  N   UNL     1      20.495  45.578  47.383  1.00  0.00    -0.320 N 
HETATM   12  H   UNL     1      20.820  44.970  46.637  1.00  0.00     0.169 HD
HETATM   13  O   UNL     1      18.832  44.137  47.876  1.00  0.00    -0.267 OA
BRANCH  11  14
HETATM   14  C   UNL     1      21.590  46.018  48.162  1.00  0.00     0.068 A 
HETATM   15  C   UNL     1      22.377  45.010  48.759  1.00  0.00     0.097 A 
HETATM   16  C   UNL     1      23.545  45.348  49.449  1.00  0.00     0.075 A 
HETATM   17  C   UNL     1      23.931  46.686  49.548  1.00  0.00     0.070 A 
HETATM   18  C   UNL     1      23.117  47.682  48.998  1.00  0.00     0.039 A 
HETATM   19  C   UNL     1      21.941  47.356  48.316  1.00  0.00     0.035 A 
BRANCH  15  20
HETATM   20  O   UNL     1      21.907  43.726  48.599  1.00  0.00    -0.354 OA
HETATM   21  C   UNL     1      22.864  42.743  48.222  1.00  0.00     0.210 C 
ENDBRANCH  15  20
BRANCH  17  22
HETATM   22  O   UNL     1      25.069  47.149  50.151  1.00  0.00    -0.356 OA
HETATM   23  C   UNL     1      25.761  48.213  49.506  1.00  0.00     0.210 C 
ENDBRANCH  17  22
ENDBRANCH  11  14
ENDBRANCH   9  10
BRANCH   1  24
HETATM   24  N   UNL     1      16.986  45.521  45.882  1.00  0.00    -0.319 N 
HETATM   25  C   UNL     1      17.507  45.558  44.608  1.00  0.00     0.248 C 
HETATM   26  O   UNL     1      17.987  46.526  44.016  1.00  0.00    -0.271 OA
HETATM   27  H   UNL     1      16.245  44.854  46.113  1.00  0.00     0.169 HD
BRANCH  25  28
HETATM   28  C   UNL     1      17.511  44.208  43.885  1.00  0.00     0.337 C 
BRANCH  28  29
HETATM   29  N   UNL     1      18.677  43.349  44.404  1.00  0.00    -0.062 N 
HETATM   30  C   UNL     1      18.608  41.916  43.921  1.00  0.00     0.239 C 
HETATM   31  C   UNL     1      19.637  41.085  44.690  1.00  0.00     0.007 C 
HETATM   32  C   UNL     1      19.599  39.626  44.239  1.00  0.00     0.011 C 
HETATM   33  C   UNL     1      21.043  41.673  44.519  1.00  0.00     0.007 C 
HETATM   34  C   UNL     1      21.080  43.147  44.916  1.00  0.00     0.028 C 
HETATM   35  C   UNL     1      20.024  43.967  44.185  1.00  0.00     0.235 C 
HETATM   36  H   UNL     1      18.491  43.301  45.422  1.00  0.00     0.280 HD
ENDBRANCH  28  29
ENDBRANCH  25  28
ENDBRANCH   1  24
BRANCH   7  37
HETATM   37  C   UNL     1      19.401  51.169  48.763  1.00  0.00    -0.047 C 
HETATM   38  C   UNL     1      19.814  50.525  47.429  1.00  0.00     0.015 C 
HETATM   39  C   UNL     1      19.007  52.635  48.458  1.00  0.00     0.015 C 
HETATM   40  C   UNL     1      20.650  51.218  49.673  1.00  0.00     0.015 C 
ENDBRANCH   7  37
TORSDOF 8
ENDMDL
MODEL 7
REMARK VINA RESULT:      -7.9      2.597      8.263
REMARK  8 active torsions:
REMARK  status: ('A' for Active; 'I' for Inactive)
REMARK    1  A    between atoms: N_4  and  C_6 
REMARK    2  A    between atoms: C_6  and  C_7 
REMARK       I    between atoms: C_7  and  N_8 
REMARK    3  A    between atoms: N_8  and  C_9 
REMARK    4  A    between atoms: C_15  and  C_16 
REMARK    5  A    between atoms: C_21  and  C_22 
REMARK       I    between atoms: C_22  and  N_23 
REMARK    6  A    between atoms: N_23  and  C_24 
REMARK    7  A    between atoms: C_25  and  O_26 
REMARK    8  A    between atoms: C_29  and  O_30 
ROOT
HETATM    1  C   UNL     1      23.875  45.958  49.707  1.00  0.00     0.093 C 
HETATM    2  S   UNL     1      24.533  47.413  50.275  1.00  0.00    -0.075 SA
HETATM    3  C   UNL     1      23.515  48.332  49.289  1.00  0.00    -0.008 C 
HETATM    4  C   UNL     1      22.737  47.559  48.446  1.00  0.00    -0.026 C 
HETATM    5  C   UNL     1      21.861  48.225  47.424  1.00  0.00     0.041 C 
HETATM    6  C   UNL     1      22.082  49.739  47.316  1.00  0.00     0.010 C 
HETATM    7  C   UNL     1      22.309  50.466  48.661  1.00  0.00    -0.002 C 
HETATM    8  C   UNL     1      23.537  49.830  49.359  1.00  0.00     0.052 C 
HETATM    9  C   UNL     1      22.863  46.138  48.760  1.00  0.00     0.073 C 
ENDROOT
BRANCH   9  10
HETATM   10  C   UNL     1      22.072  44.967  48.312  1.00  0.00     0.259 C 
HETATM   11  N   UNL     1      20.746  44.943  48.645  1.00  0.00    -0.320 N 
HETATM   12  H   UNL     1      20.454  44.096  49.124  1.00  0.00     0.169 HD
HETATM   13  O   UNL     1      22.636  43.933  47.942  1.00  0.00    -0.267 OA
BRANCH  11  14
HETATM   14  C   UNL     1      19.664  45.481  47.909  1.00  0.00     0.068 A 
HETATM   15  C   UNL     1      19.019  44.604  47.013  1.00  0.00     0.097 A 
HETATM   16  C   UNL     1      17.871  45.015  46.332  1.00  0.00     0.075 A 
HETATM   17  C   UNL     1      17.363  46.298  46.539  1.00  0.00     0.070 A 
HETATM   18  C   UNL     1      18.039  47.180  47.389  1.00  0.00     0.039 A 
HETATM   19  C   UNL     1      19.195  46.782  48.067  1.00  0.00     0.035 A 
BRANCH  15  20
HETATM   20  O   UNL     1      19.602  43.362  46.885  1.00  0.00    -0.354 OA
HETATM   21  C   UNL     1      20.065  43.010  45.587  1.00  0.00     0.210 C 
ENDBRANCH  15  20
BRANCH  17  22
HETATM   22  O   UNL     1      16.225  46.811  45.976  1.00  0.00    -0.356 OA
HETATM   23  C   UNL     1      15.653  47.958  46.594  1.00  0.00     0.210 C 
ENDBRANCH  17  22
ENDBRANCH  11  14
ENDBRANCH   9  10
BRANCH   1  24
HETATM   24  N   UNL     1      24.259  44.760  50.303  1.00  0.00    -0.319 N 
HETATM   25  C   UNL     1      25.543  44.265  50.339  1.00  0.00     0.248 C 
HETATM   26  O   UNL     1      26.492  44.575  49.618  1.00  0.00    -0.271 OA
HETATM   27  H   UNL     1      23.474  44.172  50.595  1.00  0.00     0.169 HD
BRANCH  25  28
HETATM   28  C   UNL     1      25.795  43.237  51.446  1.00  0.00     0.337 C 
BRANCH  28  29
HETATM   29  N   UNL     1      27.138  43.539  52.133  1.00  0.00    -0.062 N 
HETATM   30  C   UNL     1      26.968  44.176  53.495  1.00  0.00     0.239 C 
HETATM   31  C   UNL     1      28.330  44.680  53.978  1.00  0.00     0.007 C 
HETATM   32  C   UNL     1      28.206  45.337  55.351  1.00  0.00     0.011 C 
HETATM   33  C   UNL     1      29.349  43.535  54.012  1.00  0.00     0.007 C 
HETATM   34  C   UNL     1      29.441  42.834  52.658  1.00  0.00     0.028 C 
HETATM   35  C   UNL     1      28.079  42.374  52.154  1.00  0.00     0.235 C 
HETATM   36  H   UNL     1      27.539  44.284  51.533  1.00  0.00     0.280 HD
ENDBRANCH  28  29
ENDBRANCH  25  28
ENDBRANCH   1  24
BRANCH   7  37
HETATM   37  C   UNL     1      21.031  50.683  49.563  1.00  0.00    -0.047 C 
HETATM   38  C   UNL     1      20.187  49.422  49.819  1.00  0.00     0.015 C 
HETATM   39  C   UNL     1      21.462  51.230  50.946  1.00  0.00     0.015 C 
HETATM   40  C   UNL     1      20.111  51.748  48.923  1.00  0.00     0.015 C 
ENDBRANCH   7  37
TORSDOF 8
ENDMDL
MODEL 8
REMARK VINA RESULT:      -7.9      3.069      8.662
REMARK  8 active torsions:
REMARK  status: ('A' for Active; 'I' for Inactive)
REMARK    1  A    between atoms: N_4  and  C_6 
REMARK    2  A    between atoms: C_6  and  C_7 
REMARK       I    between atoms: C_7  and  N_8 
REMARK    3  A    between atoms: N_8  and  C_9 
REMARK    4  A    between atoms: C_15  and  C_16 
REMARK    5  A    between atoms: C_21  and  C_22 
REMARK       I    between atoms: C_22  and  N_23 
REMARK    6  A    between atoms: N_23  and  C_24 
REMARK    7  A    between atoms: C_25  and  O_26 
REMARK    8  A    between atoms: C_29  and  O_30 
ROOT
HETATM    1  C   UNL     1      23.235  46.577  49.156  1.00  0.00     0.093 C 
HETATM    2  S   UNL     1      23.815  48.169  49.083  1.00  0.00    -0.075 SA
HETATM    3  C   UNL     1      22.394  48.720  48.353  1.00  0.00    -0.008 C 
HETATM    4  C   UNL     1      21.505  47.700  48.064  1.00  0.00    -0.026 C 
HETATM    5  C   UNL     1      20.243  48.007  47.310  1.00  0.00     0.041 C 
HETATM    6  C   UNL     1      20.178  49.442  46.775  1.00  0.00     0.010 C 
HETATM    7  C   UNL     1      20.733  50.524  47.730  1.00  0.00    -0.002 C 
HETATM    8  C   UNL     1      22.208  50.177  48.056  1.00  0.00     0.052 C 
HETATM    9  C   UNL     1      21.947  46.431  48.635  1.00  0.00     0.073 C 
ENDROOT
BRANCH   9  10
HETATM   10  C   UNL     1      21.241  45.137  48.799  1.00  0.00     0.259 C 
HETATM   11  N   UNL     1      19.910  45.106  48.490  1.00  0.00    -0.320 N 
HETATM   12  H   UNL     1      19.319  44.744  49.233  1.00  0.00     0.169 HD
HETATM   13  O   UNL     1      21.741  44.230  49.472  1.00  0.00    -0.267 OA
BRANCH  11  14
HETATM   14  C   UNL     1      19.326  44.837  47.230  1.00  0.00     0.068 A 
HETATM   15  C   UNL     1      17.952  45.132  47.103  1.00  0.00     0.097 A 
HETATM   16  C   UNL     1      17.320  45.007  45.863  1.00  0.00     0.075 A 
HETATM   17  C   UNL     1      18.050  44.588  44.750  1.00  0.00     0.070 A 
HETATM   18  C   UNL     1      19.398  44.246  44.897  1.00  0.00     0.039 A 
HETATM   19  C   UNL     1      20.039  44.357  46.135  1.00  0.00     0.035 A 
BRANCH  15  20
HETATM   20  O   UNL     1      17.329  45.539  48.261  1.00  0.00    -0.354 OA
HETATM   21  C   UNL     1      16.804  46.861  48.267  1.00  0.00     0.210 C 
ENDBRANCH  15  20
BRANCH  17  22
HETATM   22  O   UNL     1      17.568  44.468  43.474  1.00  0.00    -0.356 OA
HETATM   23  C   UNL     1      16.551  43.498  43.251  1.00  0.00     0.210 C 
ENDBRANCH  17  22
ENDBRANCH  11  14
ENDBRANCH   9  10
BRANCH   1  24
HETATM   24  N   UNL     1      23.978  45.615  49.834  1.00  0.00    -0.319 N 
HETATM   25  C   UNL     1      24.615  45.805  51.039  1.00  0.00     0.248 C 
HETATM   26  O   UNL     1      24.929  46.872  51.568  1.00  0.00    -0.271 OA
HETATM   27  H   UNL     1      24.156  44.768  49.288  1.00  0.00     0.169 HD
BRANCH  25  28
HETATM   28  C   UNL     1      24.921  44.514  51.805  1.00  0.00     0.337 C 
BRANCH  28  29
HETATM   29  N   UNL     1      26.377  44.542  52.301  1.00  0.00    -0.062 N 
HETATM   30  C   UNL     1      26.487  44.887  53.770  1.00  0.00     0.239 C 
HETATM   31  C   UNL     1      27.956  45.153  54.106  1.00  0.00     0.007 C 
HETATM   32  C   UNL     1      28.117  45.512  55.582  1.00  0.00     0.011 C 
HETATM   33  C   UNL     1      28.822  43.940  53.743  1.00  0.00     0.007 C 
HETATM   34  C   UNL     1      28.629  43.538  52.282  1.00  0.00     0.028 C 
HETATM   35  C   UNL     1      27.161  43.319  51.935  1.00  0.00     0.235 C 
HETATM   36  H   UNL     1      26.774  45.358  51.800  1.00  0.00     0.280 HD
ENDBRANCH  28  29
ENDBRANCH  25  28
ENDBRANCH   1  24
BRANCH   7  37
HETATM   37  C   UNL     1      19.821  50.905  48.961  1.00  0.00    -0.047 C 
HETATM   38  C   UNL     1      18.703  49.899  49.286  1.00  0.00     0.015 C 
HETATM   39  C   UNL     1      20.696  51.040  50.231  1.00  0.00     0.015 C 
HETATM   40  C   UNL     1      19.163  52.283  48.719  1.00  0.00     0.015 C 
ENDBRANCH   7  37
TORSDOF 8
ENDMDL
MODEL 9
REMARK VINA RESULT:      -7.7     19.095     22.248
REMARK  8 active torsions:
REMARK  status: ('A' for Active; 'I' for Inactive)
REMARK    1  A    between atoms: N_4  and  C_6 
REMARK    2  A    between atoms: C_6  and  C_7 
REMARK       I    between atoms: C_7  and  N_8 
REMARK    3  A    between atoms: N_8  and  C_9 
REMARK    4  A    between atoms: C_15  and  C_16 
REMARK    5  A    between atoms: C_21  and  C_22 
REMARK       I    between atoms: C_22  and  N_23 
REMARK    6  A    between atoms: N_23  and  C_24 
REMARK    7  A    between atoms: C_25  and  O_26 
REMARK    8  A    between atoms: C_29  and  O_30 
ROOT
HETATM    1  C   UNL     1      40.308  45.024  65.873  1.00  0.00     0.093 C 
HETATM    2  S   UNL     1      41.143  46.455  65.511  1.00  0.00    -0.075 SA
HETATM    3  C   UNL     1      39.704  47.314  65.298  1.00  0.00    -0.008 C 
HETATM    4  C   UNL     1      38.578  46.516  65.398  1.00  0.00    -0.026 C 
HETATM    5  C   UNL     1      37.224  47.104  65.120  1.00  0.00     0.041 C 
HETATM    6  C   UNL     1      37.274  48.531  64.562  1.00  0.00     0.010 C 
HETATM    7  C   UNL     1      38.345  49.447  65.199  1.00  0.00    -0.002 C 
HETATM    8  C   UNL     1      39.732  48.784  65.003  1.00  0.00     0.052 C 
HETATM    9  C   UNL     1      38.919  45.169  65.848  1.00  0.00     0.073 C 
ENDROOT
BRANCH   9  10
HETATM   10  C   UNL     1      38.064  44.055  66.323  1.00  0.00     0.259 C 
HETATM   11  N   UNL     1      37.432  43.302  65.373  1.00  0.00    -0.320 N 
HETATM   12  H   UNL     1      36.428  43.224  65.506  1.00  0.00     0.169 HD
HETATM   13  O   UNL     1      37.692  44.006  67.499  1.00  0.00    -0.267 OA
BRANCH  11  14
HETATM   14  C   UNL     1      37.925  42.148  64.721  1.00  0.00     0.068 A 
HETATM   15  C   UNL     1      38.169  42.268  63.336  1.00  0.00     0.097 A 
HETATM   16  C   UNL     1      38.765  41.217  62.635  1.00  0.00     0.075 A 
HETATM   17  C   UNL     1      39.118  40.046  63.306  1.00  0.00     0.070 A 
HETATM   18  C   UNL     1      38.825  39.915  64.667  1.00  0.00     0.039 A 
HETATM   19  C   UNL     1      38.218  40.956  65.377  1.00  0.00     0.035 A 
BRANCH  15  20
HETATM   20  O   UNL     1      37.784  43.466  62.775  1.00  0.00    -0.354 OA
HETATM   21  C   UNL     1      38.830  44.351  62.393  1.00  0.00     0.210 C 
ENDBRANCH  15  20
BRANCH  17  22
HETATM   22  O   UNL     1      39.747  38.964  62.752  1.00  0.00    -0.356 OA
HETATM   23  C   UNL     1      39.556  38.741  61.359  1.00  0.00     0.210 C 
ENDBRANCH  17  22
ENDBRANCH  11  14
ENDBRANCH   9  10
BRANCH   1  24
HETATM   24  N   UNL     1      41.025  43.909  66.299  1.00  0.00    -0.319 N 
HETATM   25  C   UNL     1      41.601  42.971  65.473  1.00  0.00     0.248 C 
HETATM   26  O   UNL     1      41.339  42.742  64.291  1.00  0.00    -0.271 OA
HETATM   27  H   UNL     1      40.970  43.740  67.307  1.00  0.00     0.169 HD
BRANCH  25  28
HETATM   28  C   UNL     1      42.725  42.158  66.123  1.00  0.00     0.337 C 
BRANCH  28  29
HETATM   29  N   UNL     1      42.374  40.661  66.072  1.00  0.00    -0.062 N 
HETATM   30  C   UNL     1      43.501  39.816  65.517  1.00  0.00     0.239 C 
HETATM   31  C   UNL     1      42.975  38.403  65.254  1.00  0.00     0.007 C 
HETATM   32  C   UNL     1      44.079  37.513  64.687  1.00  0.00     0.011 C 
HETATM   33  C   UNL     1      42.390  37.797  66.535  1.00  0.00     0.007 C 
HETATM   34  C   UNL     1      41.323  38.705  67.142  1.00  0.00     0.028 C 
HETATM   35  C   UNL     1      41.831  40.125  67.360  1.00  0.00     0.235 C 
HETATM   36  H   UNL     1      41.629  40.625  65.352  1.00  0.00     0.280 HD
ENDBRANCH  28  29
ENDBRANCH  25  28
ENDBRANCH   1  24
BRANCH   7  37
HETATM   37  C   UNL     1      38.031  49.988  66.648  1.00  0.00    -0.047 C 
HETATM   38  C   UNL     1      36.899  49.258  67.390  1.00  0.00     0.015 C 
HETATM   39  C   UNL     1      39.300  49.875  67.527  1.00  0.00     0.015 C 
HETATM   40  C   UNL     1      37.663  51.488  66.579  1.00  0.00     0.015 C 
ENDBRANCH   7  37
TORSDOF 8
ENDMDL
MODEL 10
REMARK VINA RESULT:      -7.7      5.055      9.902
REMARK  8 active torsions:
REMARK  status: ('A' for Active; 'I' for Inactive)
REMARK    1  A    between atoms: N_4  and  C_6 
REMARK    2  A    between atoms: C_6  and  C_7 
REMARK       I    between atoms: C_7  and  N_8 
REMARK    3  A    between atoms: N_8  and  C_9 
REMARK    4  A    between atoms: C_15  and  C_16 
REMARK    5  A    between atoms: C_21  and  C_22 
REMARK       I    between atoms: C_22  and  N_23 
REMARK    6  A    between atoms: N_23  and  C_24 
REMARK    7  A    between atoms: C_25  and  O_26 
REMARK    8  A    between atoms: C_29  and  O_30 
ROOT
HETATM    1  C   UNL     1      17.137  46.477  47.084  1.00  0.00     0.093 C 
HETATM    2  S   UNL     1      16.243  47.918  47.068  1.00  0.00    -0.075 SA
HETATM    3  C   UNL     1      17.213  48.607  48.267  1.00  0.00    -0.008 C 
HETATM    4  C   UNL     1      18.158  47.729  48.768  1.00  0.00    -0.026 C 
HETATM    5  C   UNL     1      19.025  48.149  49.921  1.00  0.00     0.041 C 
HETATM    6  C   UNL     1      18.615  49.489  50.543  1.00  0.00     0.010 C 
HETATM    7  C   UNL     1      18.176  50.574  49.534  1.00  0.00    -0.002 C 
HETATM    8  C   UNL     1      16.986  50.021  48.709  1.00  0.00     0.052 C 
HETATM    9  C   UNL     1      18.195  46.490  47.996  1.00  0.00     0.073 C 
ENDROOT
BRANCH   9  10
HETATM   10  C   UNL     1      19.171  45.374  47.989  1.00  0.00     0.259 C 
HETATM   11  N   UNL     1      20.424  45.640  47.510  1.00  0.00    -0.320 N 
HETATM   12  H   UNL     1      20.730  45.009  46.775  1.00  0.00     0.169 HD
HETATM   13  O   UNL     1      18.790  44.206  48.109  1.00  0.00    -0.267 OA
BRANCH  11  14
HETATM   14  C   UNL     1      21.540  46.116  48.236  1.00  0.00     0.068 A 
HETATM   15  C   UNL     1      22.374  45.136  48.814  1.00  0.00     0.097 A 
HETATM   16  C   UNL     1      23.561  45.510  49.449  1.00  0.00     0.075 A 
HETATM   17  C   UNL     1      23.920  46.857  49.513  1.00  0.00     0.070 A 
HETATM   18  C   UNL     1      23.061  47.827  48.984  1.00  0.00     0.039 A 
HETATM   19  C   UNL     1      21.865  47.465  48.356  1.00  0.00     0.035 A 
BRANCH  15  20
HETATM   20  O   UNL     1      21.928  43.839  48.691  1.00  0.00    -0.354 OA
HETATM   21  C   UNL     1      22.829  42.912  48.098  1.00  0.00     0.210 C 
ENDBRANCH  15  20
BRANCH  17  22
HETATM   22  O   UNL     1      25.071  47.355  50.061  1.00  0.00    -0.356 OA
HETATM   23  C   UNL     1      25.729  48.402  49.356  1.00  0.00     0.210 C 
ENDBRANCH  17  22
ENDBRANCH  11  14
ENDBRANCH   9  10
BRANCH   1  24
HETATM   24  N   UNL     1      16.864  45.499  46.132  1.00  0.00    -0.319 N 
HETATM   25  C   UNL     1      17.423  45.434  44.876  1.00  0.00     0.248 C 
HETATM   26  O   UNL     1      17.976  46.338  44.247  1.00  0.00    -0.271 OA
HETATM   27  H   UNL     1      16.079  44.890  46.376  1.00  0.00     0.169 HD
BRANCH  25  28
HETATM   28  C   UNL     1      17.368  44.047  44.228  1.00  0.00     0.337 C 
BRANCH  28  29
HETATM   29  N   UNL     1      16.549  44.117  42.928  1.00  0.00    -0.062 N 
HETATM   30  C   UNL     1      16.841  42.965  41.990  1.00  0.00     0.239 C 
HETATM   31  C   UNL     1      16.195  43.257  40.634  1.00  0.00     0.007 C 
HETATM   32  C   UNL     1      16.469  42.121  39.650  1.00  0.00     0.011 C 
HETATM   33  C   UNL     1      14.688  43.492  40.791  1.00  0.00     0.007 C 
HETATM   34  C   UNL     1      14.401  44.589  41.814  1.00  0.00     0.028 C 
HETATM   35  C   UNL     1      15.082  44.323  43.151  1.00  0.00     0.235 C 
HETATM   36  H   UNL     1      16.938  44.955  42.458  1.00  0.00     0.280 HD
ENDBRANCH  28  29
ENDBRANCH  25  28
ENDBRANCH   1  24
BRANCH   7  37
HETATM   37  C   UNL     1      19.329  51.271  48.710  1.00  0.00    -0.047 C 
HETATM   38  C   UNL     1      19.054  52.728  48.301  1.00  0.00     0.015 C 
HETATM   39  C   UNL     1      20.632  51.270  49.545  1.00  0.00     0.015 C 
HETATM   40  C   UNL     1      19.617  50.463  47.424  1.00  0.00     0.015 C 
ENDBRANCH   7  37
TORSDOF 8
ENDMDL
