MODEL 1
REMARK VINA RESULT:      -8.7      0.000      0.000
REMARK  7 active torsions:
REMARK  status: ('A' for Active; 'I' for Inactive)
REMARK    1  A    between atoms: C_3  and  N_4 
REMARK       I    between atoms: N_4  and  C_5 
REMARK    2  A    between atoms: C_5  and  C_6 
REMARK    3  A    between atoms: C_7  and  C_8 
REMARK    4  A    between atoms: C_19  and  C_20 
REMARK    5  A    between atoms: C_20  and  C_21 
REMARK    6  A    between atoms: C_21  and  C_22 
REMARK    7  A    between atoms: C_22  and  O_23 
ROOT
HETATM    1  C   UNL     1      27.684  42.565  52.821  1.00  0.00     0.062 C 
HETATM    2  C   UNL     1      26.541  42.098  51.911  1.00  0.00     0.202 C 
HETATM    3  N   UNL     1      26.947  40.930  51.119  1.00  0.00    -0.083 N 
HETATM    4  C   UNL     1      28.246  40.529  50.968  1.00  0.00     0.726 A 
HETATM    5  N   UNL     1      29.211  41.142  51.677  1.00  0.00    -0.192 N 
HETATM    6  N   UNL     1      26.111  40.192  50.358  1.00  0.00    -0.140 NA
HETATM    7  C   UNL     1      26.987  39.403  49.720  1.00  0.00     0.166 A 
HETATM    8  N   UNL     1      28.309  39.576  50.074  1.00  0.00    -0.046 NA
HETATM    9  C   UNL     1      28.955  42.124  52.629  1.00  0.00     0.037 C 
HETATM   10  C   UNL     1      30.174  42.654  53.344  1.00  0.00     0.070 C 
HETATM   11  H   UNL     1      30.172  40.835  51.558  1.00  0.00     0.184 HD
ENDROOT
BRANCH   1  12
HETATM   12  C   UNL     1      27.273  43.540  53.879  1.00  0.00     0.256 C 
HETATM   13  N   UNL     1      27.763  44.812  53.693  1.00  0.00    -0.323 N 
HETATM   14  H   UNL     1      28.565  44.893  53.081  1.00  0.00     0.169 HD
HETATM   15  O   UNL     1      26.682  43.143  54.874  1.00  0.00    -0.267 OA
BRANCH  13  16
HETATM   16  C   UNL     1      27.397  45.998  54.373  1.00  0.00     0.041 A 
HETATM   17  C   UNL     1      27.982  46.495  55.553  1.00  0.00    -0.035 A 
HETATM   18  C   UNL     1      29.071  45.814  56.335  1.00  0.00     0.050 C 
HETATM   19  C   UNL     1      27.497  47.708  56.091  1.00  0.00     0.009 A 
HETATM   20  C   UNL     1      26.423  48.383  55.517  1.00  0.00     0.001 A 
HETATM   21  C   UNL     1      25.811  47.860  54.388  1.00  0.00     0.002 A 
HETATM   22  C   UNL     1      26.291  46.676  53.826  1.00  0.00     0.030 A 
ENDBRANCH  13  16
ENDBRANCH   1  12
BRANCH   2  23
HETATM   23  C   UNL     1      26.041  43.182  50.952  1.00  0.00    -0.027 A 
HETATM   24  C   UNL     1      24.682  43.287  50.602  1.00  0.00     0.028 A 
HETATM   25  C   UNL     1      24.254  44.292  49.734  1.00  0.00     0.011 A 
HETATM   26 BR   UNL     1      22.425  44.414  49.276  1.00  0.00    -0.051 Br
HETATM   27  C   UNL     1      25.162  45.205  49.203  1.00  0.00     0.019 A 
HETATM   28  C   UNL     1      26.509  45.114  49.545  1.00  0.00     0.002 A 
HETATM   29  C   UNL     1      26.947  44.112  50.413  1.00  0.00     0.010 A 
ENDBRANCH   2  23
BRANCH   7  30
HETATM   30  C   UNL     1      26.601  38.501  48.607  1.00  0.00     0.085 C 
BRANCH  30  31
HETATM   31  C   UNL     1      27.314  37.146  48.670  1.00  0.00     0.034 C 
BRANCH  31  32
HETATM   32  C   UNL     1      27.154  36.399  49.993  1.00  0.00     0.164 C 
BRANCH  32  33
HETATM   33  O   UNL     1      28.360  36.408  50.743  1.00  0.00    -0.401 OA
HETATM   34  H   UNL     1      28.103  36.568  51.676  1.00  0.00     0.209 HD
ENDBRANCH  32  33
ENDBRANCH  31  32
ENDBRANCH  30  31
ENDBRANCH   7  30
TORSDOF 7
ENDMDL
MODEL 2
REMARK VINA RESULT:      -8.4      3.539      5.546
REMARK  7 active torsions:
REMARK  status: ('A' for Active; 'I' for Inactive)
REMARK    1  A    between atoms: C_3  and  N_4 
REMARK       I    between atoms: N_4  and  C_5 
REMARK    2  A    between atoms: C_5  and  C_6 
REMARK    3  A    between atoms: C_7  and  C_8 
REMARK    4  A    between atoms: C_19  and  C_20 
REMARK    5  A    between atoms: C_20  and  C_21 
REMARK    6  A    between atoms: C_21  and  C_22 
REMARK    7  A    between atoms: C_22  and  O_23 
ROOT
HETATM    1  C   UNL     1      24.887  43.842  51.141  1.00  0.00     0.062 C 
HETATM    2  C   UNL     1      23.949  44.859  50.479  1.00  0.00     0.202 C 
HETATM    3  N   UNL     1      23.296  44.277  49.299  1.00  0.00    -0.083 N 
HETATM    4  C   UNL     1      23.713  43.124  48.692  1.00  0.00     0.726 A 
HETATM    5  N   UNL     1      24.689  42.395  49.262  1.00  0.00    -0.192 N 
HETATM    6  N   UNL     1      22.295  44.864  48.610  1.00  0.00    -0.140 NA
HETATM    7  C   UNL     1      22.202  44.041  47.556  1.00  0.00     0.166 A 
HETATM    8  N   UNL     1      23.053  42.955  47.575  1.00  0.00    -0.046 NA
HETATM    9  C   UNL     1      25.258  42.707  50.492  1.00  0.00     0.037 C 
HETATM   10  C   UNL     1      26.309  41.737  50.974  1.00  0.00     0.070 C 
HETATM   11  H   UNL     1      24.988  41.540  48.802  1.00  0.00     0.184 HD
ENDROOT
BRANCH   1  12
HETATM   12  C   UNL     1      25.352  44.230  52.509  1.00  0.00     0.256 C 
HETATM   13  N   UNL     1      26.692  44.535  52.582  1.00  0.00    -0.323 N 
HETATM   14  H   UNL     1      27.269  44.181  51.829  1.00  0.00     0.169 HD
HETATM   15  O   UNL     1      24.595  44.118  53.463  1.00  0.00    -0.267 OA
BRANCH  13  16
HETATM   16  C   UNL     1      27.395  45.136  53.653  1.00  0.00     0.041 A 
HETATM   17  C   UNL     1      27.169  46.421  54.180  1.00  0.00    -0.035 A 
HETATM   18  C   UNL     1      26.166  47.410  53.653  1.00  0.00     0.050 C 
HETATM   19  C   UNL     1      27.961  46.859  55.264  1.00  0.00     0.009 A 
HETATM   20  C   UNL     1      28.992  46.076  55.777  1.00  0.00     0.001 A 
HETATM   21  C   UNL     1      29.252  44.834  55.216  1.00  0.00     0.002 A 
HETATM   22  C   UNL     1      28.463  44.372  54.162  1.00  0.00     0.030 A 
ENDBRANCH  13  16
ENDBRANCH   1  12
BRANCH   2  23
HETATM   23  C   UNL     1      24.653  46.151  50.053  1.00  0.00    -0.027 A 
HETATM   24  C   UNL     1      23.926  47.310  49.719  1.00  0.00     0.028 A 
HETATM   25  C   UNL     1      24.595  48.476  49.345  1.00  0.00     0.011 A 
HETATM   26 BR   UNL     1      23.600  50.020  48.900  1.00  0.00    -0.051 Br
HETATM   27  C   UNL     1      25.986  48.513  49.298  1.00  0.00     0.019 A 
HETATM   28  C   UNL     1      26.716  47.374  49.630  1.00  0.00     0.002 A 
HETATM   29  C   UNL     1      26.056  46.202  50.006  1.00  0.00     0.010 A 
ENDBRANCH   2  23
BRANCH   7  30
HETATM   30  C   UNL     1      21.353  44.331  46.375  1.00  0.00     0.085 C 
BRANCH  30  31
HETATM   31  C   UNL     1      19.909  43.851  46.551  1.00  0.00     0.034 C 
BRANCH  31  32
HETATM   32  C   UNL     1      18.978  44.855  47.230  1.00  0.00     0.164 C 
BRANCH  32  33
HETATM   33  O   UNL     1      18.992  44.704  48.641  1.00  0.00    -0.401 OA
HETATM   34  H   UNL     1      18.407  45.404  49.000  1.00  0.00     0.209 HD
ENDBRANCH  32  33
ENDBRANCH  31  32
ENDBRANCH  30  31
ENDBRANCH   7  30
TORSDOF 7
ENDMDL
MODEL 3
REMARK VINA RESULT:      -8.4      4.199      7.067
REMARK  7 active torsions:
REMARK  status: ('A' for Active; 'I' for Inactive)
REMARK    1  A    between atoms: C_3  and  N_4 
REMARK       I    between atoms: N_4  and  C_5 
REMARK    2  A    between atoms: C_5  and  C_6 
REMARK    3  A    between atoms: C_7  and  C_8 
REMARK    4  A    between atoms: C_19  and  C_20 
REMARK    5  A    between atoms: C_20  and  C_21 
REMARK    6  A    between atoms: C_21  and  C_22 
REMARK    7  A    between atoms: C_22  and  O_23 
ROOT
HETATM    1  C   UNL     1      24.370  46.626  50.061  1.00  0.00     0.062 C 
HETATM    2  C   UNL     1      24.067  45.369  50.885  1.00  0.00     0.202 C 
HETATM    3  N   UNL     1      25.010  45.237  52.003  1.00  0.00    -0.083 N 
HETATM    4  C   UNL     1      26.181  45.939  52.097  1.00  0.00     0.726 A 
HETATM    5  N   UNL     1      26.443  46.904  51.197  1.00  0.00    -0.192 N 
HETATM    6  N   UNL     1      24.896  44.332  52.999  1.00  0.00    -0.140 NA
HETATM    7  C   UNL     1      26.072  44.499  53.622  1.00  0.00     0.166 A 
HETATM    8  N   UNL     1      26.885  45.484  53.101  1.00  0.00    -0.046 NA
HETATM    9  C   UNL     1      25.548  47.290  50.205  1.00  0.00     0.037 C 
HETATM   10  C   UNL     1      26.019  48.421  49.324  1.00  0.00     0.070 C 
HETATM   11  H   UNL     1      27.315  47.420  51.278  1.00  0.00     0.184 HD
ENDROOT
BRANCH   1  12
HETATM   12  C   UNL     1      23.290  47.011  49.101  1.00  0.00     0.256 C 
HETATM   13  N   UNL     1      22.447  47.994  49.566  1.00  0.00    -0.323 N 
HETATM   14  H   UNL     1      22.436  48.130  50.570  1.00  0.00     0.169 HD
HETATM   15  O   UNL     1      23.130  46.365  48.075  1.00  0.00    -0.267 OA
BRANCH  13  16
HETATM   16  C   UNL     1      21.475  48.727  48.845  1.00  0.00     0.041 A 
HETATM   17  C   UNL     1      21.704  49.889  48.084  1.00  0.00    -0.035 A 
HETATM   18  C   UNL     1      23.027  50.592  47.952  1.00  0.00     0.050 C 
HETATM   19  C   UNL     1      20.614  50.489  47.416  1.00  0.00     0.009 A 
HETATM   20  C   UNL     1      19.319  49.992  47.542  1.00  0.00     0.001 A 
HETATM   21  C   UNL     1      19.087  48.882  48.341  1.00  0.00     0.002 A 
HETATM   22  C   UNL     1      20.155  48.260  48.989  1.00  0.00     0.030 A 
ENDBRANCH  13  16
ENDBRANCH   1  12
BRANCH   2  23
HETATM   23  C   UNL     1      24.107  44.076  50.065  1.00  0.00    -0.027 A 
HETATM   24  C   UNL     1      25.324  43.509  49.643  1.00  0.00     0.028 A 
HETATM   25  C   UNL     1      25.330  42.324  48.906  1.00  0.00     0.011 A 
HETATM   26 BR   UNL     1      26.975  41.579  48.348  1.00  0.00    -0.051 Br
HETATM   27  C   UNL     1      24.137  41.686  48.578  1.00  0.00     0.019 A 
HETATM   28  C   UNL     1      22.925  42.236  48.994  1.00  0.00     0.002 A 
HETATM   29  C   UNL     1      22.909  43.420  49.732  1.00  0.00     0.010 A 
ENDBRANCH   2  23
BRANCH   7  30
HETATM   30  C   UNL     1      26.545  43.606  54.708  1.00  0.00     0.085 C 
BRANCH  30  31
HETATM   31  C   UNL     1      27.885  42.938  54.384  1.00  0.00     0.034 C 
BRANCH  31  32
HETATM   32  C   UNL     1      27.859  42.006  53.174  1.00  0.00     0.164 C 
BRANCH  32  33
HETATM   33  O   UNL     1      27.394  40.712  53.525  1.00  0.00    -0.401 OA
HETATM   34  H   UNL     1      26.856  40.397  52.769  1.00  0.00     0.209 HD
ENDBRANCH  32  33
ENDBRANCH  31  32
ENDBRANCH  30  31
ENDBRANCH   7  30
TORSDOF 7
ENDMDL
MODEL 4
REMARK VINA RESULT:      -8.0      5.364      7.918
REMARK  7 active torsions:
REMARK  status: ('A' for Active; 'I' for Inactive)
REMARK    1  A    between atoms: C_3  and  N_4 
REMARK       I    between atoms: N_4  and  C_5 
REMARK    2  A    between atoms: C_5  and  C_6 
REMARK    3  A    between atoms: C_7  and  C_8 
REMARK    4  A    between atoms: C_19  and  C_20 
REMARK    5  A    between atoms: C_20  and  C_21 
REMARK    6  A    between atoms: C_21  and  C_22 
REMARK    7  A    between atoms: C_22  and  O_23 
ROOT
HETATM    1  C   UNL     1      23.503  47.959  49.107  1.00  0.00     0.062 C 
HETATM    2  C   UNL     1      23.220  46.563  49.675  1.00  0.00     0.202 C 
HETATM    3  N   UNL     1      24.394  46.040  50.386  1.00  0.00    -0.083 N 
HETATM    4  C   UNL     1      25.650  46.571  50.273  1.00  0.00     0.726 A 
HETATM    5  N   UNL     1      25.823  47.711  49.581  1.00  0.00    -0.192 N 
HETATM    6  N   UNL     1      24.399  44.917  51.135  1.00  0.00    -0.140 NA
HETATM    7  C   UNL     1      25.710  44.790  51.386  1.00  0.00     0.166 A 
HETATM    8  N   UNL     1      26.510  45.793  50.879  1.00  0.00    -0.046 NA
HETATM    9  C   UNL     1      24.773  48.438  49.029  1.00  0.00     0.037 C 
HETATM   10  C   UNL     1      25.178  49.712  48.327  1.00  0.00     0.070 C 
HETATM   11  H   UNL     1      26.760  48.096  49.504  1.00  0.00     0.184 HD
ENDROOT
BRANCH   1  12
HETATM   12  C   UNL     1      22.287  48.695  48.642  1.00  0.00     0.256 C 
HETATM   13  N   UNL     1      21.526  49.224  49.658  1.00  0.00    -0.323 N 
HETATM   14  H   UNL     1      21.670  48.821  50.576  1.00  0.00     0.169 HD
HETATM   15  O   UNL     1      21.972  48.661  47.460  1.00  0.00    -0.267 OA
BRANCH  13  16
HETATM   16  C   UNL     1      20.454  50.143  49.561  1.00  0.00     0.041 A 
HETATM   17  C   UNL     1      19.187  50.009  50.159  1.00  0.00    -0.035 A 
HETATM   18  C   UNL     1      18.730  48.825  50.966  1.00  0.00     0.050 C 
HETATM   19  C   UNL     1      18.234  51.033  49.966  1.00  0.00     0.009 A 
HETATM   20  C   UNL     1      18.500  52.133  49.155  1.00  0.00     0.001 A 
HETATM   21  C   UNL     1      19.729  52.233  48.519  1.00  0.00     0.002 A 
HETATM   22  C   UNL     1      20.693  51.245  48.718  1.00  0.00     0.030 A 
ENDBRANCH  13  16
ENDBRANCH   1  12
BRANCH   2  23
HETATM   23  C   UNL     1      22.808  45.542  48.610  1.00  0.00    -0.027 A 
HETATM   24  C   UNL     1      21.467  45.402  48.204  1.00  0.00     0.028 A 
HETATM   25  C   UNL     1      21.123  44.471  47.223  1.00  0.00     0.011 A 
HETATM   26 BR   UNL     1      19.317  44.299  46.693  1.00  0.00    -0.051 Br
HETATM   27  C   UNL     1      22.096  43.670  46.632  1.00  0.00     0.019 A 
HETATM   28  C   UNL     1      23.427  43.802  47.023  1.00  0.00     0.002 A 
HETATM   29  C   UNL     1      23.782  44.731  48.003  1.00  0.00     0.010 A 
ENDBRANCH   2  23
BRANCH   7  30
HETATM   30  C   UNL     1      26.297  43.595  52.040  1.00  0.00     0.085 C 
BRANCH  30  31
HETATM   31  C   UNL     1      26.821  43.889  53.449  1.00  0.00     0.034 C 
BRANCH  31  32
HETATM   32  C   UNL     1      25.826  44.594  54.369  1.00  0.00     0.164 C 
BRANCH  32  33
HETATM   33  O   UNL     1      24.564  43.945  54.363  1.00  0.00    -0.401 OA
HETATM   34  H   UNL     1      23.949  44.539  53.884  1.00  0.00     0.209 HD
ENDBRANCH  32  33
ENDBRANCH  31  32
ENDBRANCH  30  31
ENDBRANCH   7  30
TORSDOF 7
ENDMDL
MODEL 5
REMARK VINA RESULT:      -8.0     17.025     18.295
REMARK  7 active torsions:
REMARK  status: ('A' for Active; 'I' for Inactive)
REMARK    1  A    between atoms: C_3  and  N_4 
REMARK       I    between atoms: N_4  and  C_5 
REMARK    2  A    between atoms: C_5  and  C_6 
REMARK    3  A    between atoms: C_7  and  C_8 
REMARK    4  A    between atoms: C_19  and  C_20 
REMARK    5  A    between atoms: C_20  and  C_21 
REMARK    6  A    between atoms: C_21  and  C_22 
REMARK    7  A    between atoms: C_22  and  O_23 
ROOT
HETATM    1  C   UNL     1      37.549  44.600  64.699  1.00  0.00     0.062 C 
HETATM    2  C   UNL     1      38.713  44.057  63.861  1.00  0.00     0.202 C 
HETATM    3  N   UNL     1      38.624  42.597  63.727  1.00  0.00    -0.083 N 
HETATM    4  C   UNL     1      37.820  41.810  64.505  1.00  0.00     0.726 A 
HETATM    5  N   UNL     1      36.959  42.391  65.359  1.00  0.00    -0.192 N 
HETATM    6  N   UNL     1      39.401  41.854  62.911  1.00  0.00    -0.140 NA
HETATM    7  C   UNL     1      39.060  40.618  63.301  1.00  0.00     0.166 A 
HETATM    8  N   UNL     1      38.085  40.550  64.274  1.00  0.00    -0.046 NA
HETATM    9  C   UNL     1      36.777  43.767  65.446  1.00  0.00     0.037 C 
HETATM   10  C   UNL     1      35.731  44.212  66.439  1.00  0.00     0.070 C 
HETATM   11  H   UNL     1      36.366  41.796  65.932  1.00  0.00     0.184 HD
ENDROOT
BRANCH   1  12
HETATM   12  C   UNL     1      37.379  46.085  64.632  1.00  0.00     0.256 C 
HETATM   13  N   UNL     1      37.918  46.761  65.702  1.00  0.00    -0.323 N 
HETATM   14  H   UNL     1      38.081  46.212  66.537  1.00  0.00     0.169 HD
HETATM   15  O   UNL     1      36.681  46.577  63.757  1.00  0.00    -0.267 OA
BRANCH  13  16
HETATM   16  C   UNL     1      38.120  48.155  65.844  1.00  0.00     0.041 A 
HETATM   17  C   UNL     1      39.210  48.893  65.347  1.00  0.00    -0.035 A 
HETATM   18  C   UNL     1      40.391  48.311  64.619  1.00  0.00     0.050 C 
HETATM   19  C   UNL     1      39.246  50.286  65.572  1.00  0.00     0.009 A 
HETATM   20  C   UNL     1      38.263  50.929  66.321  1.00  0.00     0.001 A 
HETATM   21  C   UNL     1      37.221  50.190  66.860  1.00  0.00     0.002 A 
HETATM   22  C   UNL     1      37.154  48.816  66.627  1.00  0.00     0.030 A 
ENDBRANCH  13  16
ENDBRANCH   1  12
BRANCH   2  23
HETATM   23  C   UNL     1      40.091  44.406  64.431  1.00  0.00    -0.027 A 
HETATM   24  C   UNL     1      40.390  44.232  65.795  1.00  0.00     0.028 A 
HETATM   25  C   UNL     1      41.658  44.549  66.284  1.00  0.00     0.011 A 
HETATM   26 BR   UNL     1      42.038  44.309  68.119  1.00  0.00    -0.051 Br
HETATM   27  C   UNL     1      42.645  45.038  65.432  1.00  0.00     0.019 A 
HETATM   28  C   UNL     1      42.362  45.211  64.078  1.00  0.00     0.002 A 
HETATM   29  C   UNL     1      41.097  44.896  63.580  1.00  0.00     0.010 A 
ENDBRANCH   2  23
BRANCH   7  30
HETATM   30  C   UNL     1      39.766  39.399  62.834  1.00  0.00     0.085 C 
BRANCH  30  31
HETATM   31  C   UNL     1      40.328  38.562  63.988  1.00  0.00     0.034 C 
BRANCH  31  32
HETATM   32  C   UNL     1      41.534  39.177  64.697  1.00  0.00     0.164 C 
BRANCH  32  33
HETATM   33  O   UNL     1      42.729  38.473  64.394  1.00  0.00    -0.401 OA
HETATM   34  H   UNL     1      43.333  38.617  65.152  1.00  0.00     0.209 HD
ENDBRANCH  32  33
ENDBRANCH  31  32
ENDBRANCH  30  31
ENDBRANCH   7  30
TORSDOF 7
ENDMDL
MODEL 6
REMARK VINA RESULT:      -7.9      2.856      5.012
REMARK  7 active torsions:
REMARK  status: ('A' for Active; 'I' for Inactive)
REMARK    1  A    between atoms: C_3  and  N_4 
REMARK       I    between atoms: N_4  and  C_5 
REMARK    2  A    between atoms: C_5  and  C_6 
REMARK    3  A    between atoms: C_7  and  C_8 
REMARK    4  A    between atoms: C_19  and  C_20 
REMARK    5  A    between atoms: C_20  and  C_21 
REMARK    6  A    between atoms: C_21  and  C_22 
REMARK    7  A    between atoms: C_22  and  O_23 
ROOT
HETATM    1  C   UNL     1      26.846  42.741  52.499  1.00  0.00     0.062 C 
HETATM    2  C   UNL     1      25.539  43.517  52.300  1.00  0.00     0.202 C 
HETATM    3  N   UNL     1      24.854  43.082  51.076  1.00  0.00    -0.083 N 
HETATM    4  C   UNL     1      25.452  42.343  50.093  1.00  0.00     0.726 A 
HETATM    5  N   UNL     1      26.693  41.865  50.292  1.00  0.00    -0.192 N 
HETATM    6  N   UNL     1      23.605  43.455  50.723  1.00  0.00    -0.140 NA
HETATM    7  C   UNL     1      23.540  42.960  49.479  1.00  0.00     0.166 A 
HETATM    8  N   UNL     1      24.654  42.262  49.059  1.00  0.00    -0.046 NA
HETATM    9  C   UNL     1      27.389  42.013  51.487  1.00  0.00     0.037 C 
HETATM   10  C   UNL     1      28.752  41.366  51.518  1.00  0.00     0.070 C 
HETATM   11  H   UNL     1      27.127  41.315  49.554  1.00  0.00     0.184 HD
ENDROOT
BRANCH   1  12
HETATM   12  C   UNL     1      27.451  42.887  53.860  1.00  0.00     0.256 C 
HETATM   13  N   UNL     1      28.729  43.397  53.856  1.00  0.00    -0.323 N 
HETATM   14  H   UNL     1      29.231  43.328  52.980  1.00  0.00     0.169 HD
HETATM   15  O   UNL     1      26.869  42.433  54.835  1.00  0.00    -0.267 OA
BRANCH  13  16
HETATM   16  C   UNL     1      29.491  43.856  54.957  1.00  0.00     0.041 A 
HETATM   17  C   UNL     1      29.409  45.128  55.553  1.00  0.00    -0.035 A 
HETATM   18  C   UNL     1      28.528  46.252  55.082  1.00  0.00     0.050 C 
HETATM   19  C   UNL     1      30.242  45.414  56.657  1.00  0.00     0.009 A 
HETATM   20  C   UNL     1      31.175  44.493  57.125  1.00  0.00     0.001 A 
HETATM   21  C   UNL     1      31.295  43.261  56.498  1.00  0.00     0.002 A 
HETATM   22  C   UNL     1      30.463  42.949  55.421  1.00  0.00     0.030 A 
ENDBRANCH  13  16
ENDBRANCH   1  12
BRANCH   2  23
HETATM   23  C   UNL     1      25.733  45.034  52.232  1.00  0.00    -0.027 A 
HETATM   24  C   UNL     1      26.165  45.669  51.053  1.00  0.00     0.028 A 
HETATM   25  C   UNL     1      26.323  47.055  51.017  1.00  0.00     0.011 A 
HETATM   26 BR   UNL     1      26.906  47.888  49.423  1.00  0.00    -0.051 Br
HETATM   27  C   UNL     1      26.055  47.829  52.143  1.00  0.00     0.019 A 
HETATM   28  C   UNL     1      25.622  47.213  53.315  1.00  0.00     0.002 A 
HETATM   29  C   UNL     1      25.461  45.827  53.361  1.00  0.00     0.010 A 
ENDBRANCH   2  23
BRANCH   7  30
HETATM   30  C   UNL     1      22.419  43.247  48.551  1.00  0.00     0.085 C 
BRANCH  30  31
HETATM   31  C   UNL     1      21.907  44.686  48.669  1.00  0.00     0.034 C 
BRANCH  31  32
HETATM   32  C   UNL     1      20.570  44.949  47.977  1.00  0.00     0.164 C 
BRANCH  32  33
HETATM   33  O   UNL     1      19.487  44.864  48.891  1.00  0.00    -0.401 OA
HETATM   34  H   UNL     1      19.449  45.725  49.356  1.00  0.00     0.209 HD
ENDBRANCH  32  33
ENDBRANCH  31  32
ENDBRANCH  30  31
ENDBRANCH   7  30
TORSDOF 7
ENDMDL
MODEL 7
REMARK VINA RESULT:      -7.7      4.115      6.420
REMARK  7 active torsions:
REMARK  status: ('A' for Active; 'I' for Inactive)
REMARK    1  A    between atoms: C_3  and  N_4 
REMARK       I    between atoms: N_4  and  C_5 
REMARK    2  A    between atoms: C_5  and  C_6 
REMARK    3  A    between atoms: C_7  and  C_8 
REMARK    4  A    between atoms: C_19  and  C_20 
REMARK    5  A    between atoms: C_20  and  C_21 
REMARK    6  A    between atoms: C_21  and  C_22 
REMARK    7  A    between atoms: C_22  and  O_23 
ROOT
HETATM    1  C   UNL     1      24.159  45.665  49.485  1.00  0.00     0.062 C 
HETATM    2  C   UNL     1      25.550  45.261  49.988  1.00  0.00     0.202 C 
HETATM    3  N   UNL     1      25.916  43.925  49.496  1.00  0.00    -0.083 N 
HETATM    4  C   UNL     1      25.020  43.044  48.956  1.00  0.00     0.726 A 
HETATM    5  N   UNL     1      23.756  43.444  48.731  1.00  0.00    -0.192 N 
HETATM    6  N   UNL     1      27.139  43.370  49.626  1.00  0.00    -0.140 NA
HETATM    7  C   UNL     1      26.891  42.122  49.203  1.00  0.00     0.166 A 
HETATM    8  N   UNL     1      25.601  41.885  48.776  1.00  0.00    -0.046 NA
HETATM    9  C   UNL     1      23.315  44.745  48.947  1.00  0.00     0.037 C 
HETATM   10  C   UNL     1      21.870  44.998  48.592  1.00  0.00     0.070 C 
HETATM   11  H   UNL     1      23.100  42.781  48.328  1.00  0.00     0.184 HD
ENDROOT
BRANCH   1  12
HETATM   12  C   UNL     1      23.832  47.113  49.670  1.00  0.00     0.256 C 
HETATM   13  N   UNL     1      23.070  47.652  48.660  1.00  0.00    -0.323 N 
HETATM   14  H   UNL     1      23.071  47.143  47.785  1.00  0.00     0.169 HD
HETATM   15  O   UNL     1      24.355  47.742  50.580  1.00  0.00    -0.267 OA
BRANCH  13  16
HETATM   16  C   UNL     1      22.416  48.907  48.631  1.00  0.00     0.041 A 
HETATM   17  C   UNL     1      22.996  50.139  48.274  1.00  0.00    -0.035 A 
HETATM   18  C   UNL     1      24.442  50.345  47.914  1.00  0.00     0.050 C 
HETATM   19  C   UNL     1      22.189  51.298  48.289  1.00  0.00     0.009 A 
HETATM   20  C   UNL     1      20.860  51.256  48.703  1.00  0.00     0.001 A 
HETATM   21  C   UNL     1      20.308  50.051  49.111  1.00  0.00     0.002 A 
HETATM   22  C   UNL     1      21.082  48.889  49.078  1.00  0.00     0.030 A 
ENDBRANCH  13  16
ENDBRANCH   1  12
BRANCH   2  23
HETATM   23  C   UNL     1      25.674  45.264  51.514  1.00  0.00    -0.027 A 
HETATM   24  C   UNL     1      26.486  46.197  52.185  1.00  0.00     0.028 A 
HETATM   25  C   UNL     1      26.571  46.183  53.578  1.00  0.00     0.011 A 
HETATM   26 BR   UNL     1      27.668  47.444  54.459  1.00  0.00    -0.051 Br
HETATM   27  C   UNL     1      25.855  45.249  54.323  1.00  0.00     0.019 A 
HETATM   28  C   UNL     1      25.044  44.323  53.670  1.00  0.00     0.002 A 
HETATM   29  C   UNL     1      24.952  44.330  52.277  1.00  0.00     0.010 A 
ENDBRANCH   2  23
BRANCH   7  30
HETATM   30  C   UNL     1      27.879  41.020  49.310  1.00  0.00     0.085 C 
BRANCH  30  31
HETATM   31  C   UNL     1      28.349  40.783  50.748  1.00  0.00     0.034 C 
BRANCH  31  32
HETATM   32  C   UNL     1      27.328  41.150  51.824  1.00  0.00     0.164 C 
BRANCH  32  33
HETATM   33  O   UNL     1      27.735  42.295  52.557  1.00  0.00    -0.401 OA
HETATM   34  H   UNL     1      28.450  42.716  52.037  1.00  0.00     0.209 HD
ENDBRANCH  32  33
ENDBRANCH  31  32
ENDBRANCH  30  31
ENDBRANCH   7  30
TORSDOF 7
ENDMDL
MODEL 8
REMARK VINA RESULT:      -7.6     16.993     18.436
REMARK  7 active torsions:
REMARK  status: ('A' for Active; 'I' for Inactive)
REMARK    1  A    between atoms: C_3  and  N_4 
REMARK       I    between atoms: N_4  and  C_5 
REMARK    2  A    between atoms: C_5  and  C_6 
REMARK    3  A    between atoms: C_7  and  C_8 
REMARK    4  A    between atoms: C_19  and  C_20 
REMARK    5  A    between atoms: C_20  and  C_21 
REMARK    6  A    between atoms: C_21  and  C_22 
REMARK    7  A    between atoms: C_22  and  O_23 
ROOT
HETATM    1  C   UNL     1      37.774  43.639  64.515  1.00  0.00     0.062 C 
HETATM    2  C   UNL     1      39.106  43.109  63.969  1.00  0.00     0.202 C 
HETATM    3  N   UNL     1      39.096  41.642  63.902  1.00  0.00    -0.083 N 
HETATM    4  C   UNL     1      38.175  40.858  64.541  1.00  0.00     0.726 A 
HETATM    5  N   UNL     1      37.134  41.440  65.163  1.00  0.00    -0.192 N 
HETATM    6  N   UNL     1      40.053  40.896  63.309  1.00  0.00    -0.140 NA
HETATM    7  C   UNL     1      39.680  39.666  63.690  1.00  0.00     0.166 A 
HETATM    8  N   UNL     1      38.525  39.602  64.441  1.00  0.00    -0.046 NA
HETATM    9  C   UNL     1      36.891  42.809  65.131  1.00  0.00     0.037 C 
HETATM   10  C   UNL     1      35.646  43.254  65.859  1.00  0.00     0.070 C 
HETATM   11  H   UNL     1      36.455  40.847  65.632  1.00  0.00     0.184 HD
ENDROOT
BRANCH   1  12
HETATM   12  C   UNL     1      37.571  45.109  64.330  1.00  0.00     0.256 C 
HETATM   13  N   UNL     1      38.038  45.877  65.371  1.00  0.00    -0.323 N 
HETATM   14  H   UNL     1      38.172  45.395  66.251  1.00  0.00     0.169 HD
HETATM   15  O   UNL     1      36.907  45.517  63.387  1.00  0.00    -0.267 OA
BRANCH  13  16
HETATM   16  C   UNL     1      38.198  47.283  65.419  1.00  0.00     0.041 A 
HETATM   17  C   UNL     1      37.233  48.217  65.840  1.00  0.00    -0.035 A 
HETATM   18  C   UNL     1      35.829  47.882  66.262  1.00  0.00     0.050 C 
HETATM   19  C   UNL     1      37.568  49.588  65.834  1.00  0.00     0.009 A 
HETATM   20  C   UNL     1      38.802  50.035  65.369  1.00  0.00     0.001 A 
HETATM   21  C   UNL     1      39.730  49.117  64.899  1.00  0.00     0.002 A 
HETATM   22  C   UNL     1      39.427  47.755  64.920  1.00  0.00     0.030 A 
ENDBRANCH  13  16
ENDBRANCH   1  12
BRANCH   2  23
HETATM   23  C   UNL     1      40.321  43.547  64.791  1.00  0.00    -0.027 A 
HETATM   24  C   UNL     1      41.305  44.398  64.255  1.00  0.00     0.028 A 
HETATM   25  C   UNL     1      42.396  44.789  65.032  1.00  0.00     0.011 A 
HETATM   26 BR   UNL     1      43.708  45.931  64.291  1.00  0.00    -0.051 Br
HETATM   27  C   UNL     1      42.527  44.348  66.345  1.00  0.00     0.019 A 
HETATM   28  C   UNL     1      41.556  43.509  66.889  1.00  0.00     0.002 A 
HETATM   29  C   UNL     1      40.461  43.112  66.120  1.00  0.00     0.010 A 
ENDBRANCH   2  23
BRANCH   7  30
HETATM   30  C   UNL     1      40.509  38.459  63.450  1.00  0.00     0.085 C 
BRANCH  30  31
HETATM   31  C   UNL     1      41.254  37.993  64.705  1.00  0.00     0.034 C 
BRANCH  31  32
HETATM   32  C   UNL     1      42.735  38.367  64.746  1.00  0.00     0.164 C 
BRANCH  32  33
HETATM   33  O   UNL     1      42.974  39.443  65.641  1.00  0.00    -0.401 OA
HETATM   34  H   UNL     1      42.945  39.063  66.544  1.00  0.00     0.209 HD
ENDBRANCH  32  33
ENDBRANCH  31  32
ENDBRANCH  30  31
ENDBRANCH   7  30
TORSDOF 7
ENDMDL
MODEL 9
REMARK VINA RESULT:      -7.5      3.394      7.529
REMARK  7 active torsions:
REMARK  status: ('A' for Active; 'I' for Inactive)
REMARK    1  A    between atoms: C_3  and  N_4 
REMARK       I    between atoms: N_4  and  C_5 
REMARK    2  A    between atoms: C_5  and  C_6 
REMARK    3  A    between atoms: C_7  and  C_8 
REMARK    4  A    between atoms: C_19  and  C_20 
REMARK    5  A    between atoms: C_20  and  C_21 
REMARK    6  A    between atoms: C_21  and  C_22 
REMARK    7  A    between atoms: C_22  and  O_23 
ROOT
HETATM    1  C   UNL     1      25.009  43.450  50.633  1.00  0.00     0.062 C 
HETATM    2  C   UNL     1      25.816  42.300  51.249  1.00  0.00     0.202 C 
HETATM    3  N   UNL     1      26.870  42.816  52.132  1.00  0.00    -0.083 N 
HETATM    4  C   UNL     1      27.284  44.120  52.140  1.00  0.00     0.726 A 
HETATM    5  N   UNL     1      26.617  45.026  51.404  1.00  0.00    -0.192 N 
HETATM    6  N   UNL     1      27.630  42.052  52.945  1.00  0.00    -0.140 NA
HETATM    7  C   UNL     1      28.531  42.953  53.363  1.00  0.00     0.166 A 
HETATM    8  N   UNL     1      28.345  44.238  52.896  1.00  0.00    -0.046 NA
HETATM    9  C   UNL     1      25.466  44.729  50.682  1.00  0.00     0.037 C 
HETATM   10  C   UNL     1      24.846  45.899  49.956  1.00  0.00     0.070 C 
HETATM   11  H   UNL     1      26.932  45.993  51.419  1.00  0.00     0.184 HD
ENDROOT
BRANCH   1  12
HETATM   12  C   UNL     1      23.734  43.027  49.976  1.00  0.00     0.256 C 
HETATM   13  N   UNL     1      23.838  42.829  48.619  1.00  0.00    -0.323 N 
HETATM   14  H   UNL     1      24.630  43.270  48.167  1.00  0.00     0.169 HD
HETATM   15  O   UNL     1      22.692  43.024  50.617  1.00  0.00    -0.267 OA
BRANCH  13  16
HETATM   16  C   UNL     1      22.899  42.230  47.746  1.00  0.00     0.041 A 
HETATM   17  C   UNL     1      22.005  42.906  46.894  1.00  0.00    -0.035 A 
HETATM   18  C   UNL     1      21.854  44.399  46.805  1.00  0.00     0.050 C 
HETATM   19  C   UNL     1      21.140  42.145  46.078  1.00  0.00     0.009 A 
HETATM   20  C   UNL     1      21.111  40.754  46.143  1.00  0.00     0.001 A 
HETATM   21  C   UNL     1      21.951  40.093  47.027  1.00  0.00     0.002 A 
HETATM   22  C   UNL     1      22.832  40.826  47.823  1.00  0.00     0.030 A 
ENDBRANCH  13  16
ENDBRANCH   1  12
BRANCH   2  23
HETATM   23  C   UNL     1      26.463  41.382  50.209  1.00  0.00    -0.027 A 
HETATM   24  C   UNL     1      26.343  39.982  50.285  1.00  0.00     0.028 A 
HETATM   25  C   UNL     1      26.935  39.170  49.316  1.00  0.00     0.011 A 
HETATM   26 BR   UNL     1      26.762  37.292  49.439  1.00  0.00    -0.051 Br
HETATM   27  C   UNL     1      27.650  39.731  48.262  1.00  0.00     0.019 A 
HETATM   28  C   UNL     1      27.773  41.117  48.172  1.00  0.00     0.002 A 
HETATM   29  C   UNL     1      27.184  41.937  49.137  1.00  0.00     0.010 A 
ENDBRANCH   2  23
BRANCH   7  30
HETATM   30  C   UNL     1      29.729  42.590  54.159  1.00  0.00     0.085 C 
BRANCH  30  31
HETATM   31  C   UNL     1      30.194  43.724  55.078  1.00  0.00     0.034 C 
BRANCH  31  32
HETATM   32  C   UNL     1      31.096  43.285  56.230  1.00  0.00     0.164 C 
BRANCH  32  33
HETATM   33  O   UNL     1      31.061  44.217  57.301  1.00  0.00    -0.401 OA
HETATM   34  H   UNL     1      31.133  43.692  58.126  1.00  0.00     0.209 HD
ENDBRANCH  32  33
ENDBRANCH  31  32
ENDBRANCH  30  31
ENDBRANCH   7  30
TORSDOF 7
ENDMDL
MODEL 10
REMARK VINA RESULT:      -7.3     12.748     14.057
REMARK  7 active torsions:
REMARK  status: ('A' for Active; 'I' for Inactive)
REMARK    1  A    between atoms: C_3  and  N_4 
REMARK       I    between atoms: N_4  and  C_5 
REMARK    2  A    between atoms: C_5  and  C_6 
REMARK    3  A    between atoms: C_7  and  C_8 
REMARK    4  A    between atoms: C_19  and  C_20 
REMARK    5  A    between atoms: C_20  and  C_21 
REMARK    6  A    between atoms: C_21  and  C_22 
REMARK    7  A    between atoms: C_22  and  O_23 
ROOT
HETATM    1  C   UNL     1      29.855  48.317  41.254  1.00  0.00     0.062 C 
HETATM    2  C   UNL     1      28.475  48.976  41.359  1.00  0.00     0.202 C 
HETATM    3  N   UNL     1      27.484  48.244  40.558  1.00  0.00    -0.083 N 
HETATM    4  C   UNL     1      27.812  47.321  39.603  1.00  0.00     0.726 A 
HETATM    5  N   UNL     1      29.096  46.949  39.460  1.00  0.00    -0.192 N 
HETATM    6  N   UNL     1      26.155  48.478  40.584  1.00  0.00    -0.140 NA
HETATM    7  C   UNL     1      25.747  47.706  39.566  1.00  0.00     0.166 A 
HETATM    8  N   UNL     1      26.737  46.974  38.944  1.00  0.00    -0.046 NA
HETATM    9  C   UNL     1      30.120  47.396  40.290  1.00  0.00     0.037 C 
HETATM   10  C   UNL     1      31.484  46.826  39.986  1.00  0.00     0.070 C 
HETATM   11  H   UNL     1      29.328  46.262  38.749  1.00  0.00     0.184 HD
ENDROOT
BRANCH   1  12
HETATM   12  C   UNL     1      30.847  48.796  42.267  1.00  0.00     0.256 C 
HETATM   13  N   UNL     1      31.752  49.710  41.779  1.00  0.00    -0.323 N 
HETATM   14  H   UNL     1      31.863  49.731  40.773  1.00  0.00     0.169 HD
HETATM   15  O   UNL     1      30.892  48.269  43.370  1.00  0.00    -0.267 OA
BRANCH  13  16
HETATM   16  C   UNL     1      32.666  50.510  42.505  1.00  0.00     0.041 A 
HETATM   17  C   UNL     1      34.039  50.662  42.233  1.00  0.00    -0.035 A 
HETATM   18  C   UNL     1      34.791  49.947  41.144  1.00  0.00     0.050 C 
HETATM   19  C   UNL     1      34.804  51.514  43.058  1.00  0.00     0.009 A 
HETATM   20  C   UNL     1      34.247  52.154  44.162  1.00  0.00     0.001 A 
HETATM   21  C   UNL     1      32.907  51.955  44.464  1.00  0.00     0.002 A 
HETATM   22  C   UNL     1      32.127  51.138  43.645  1.00  0.00     0.030 A 
ENDBRANCH  13  16
ENDBRANCH   1  12
BRANCH   2  23
HETATM   23  C   UNL     1      28.462  50.443  40.920  1.00  0.00    -0.027 A 
HETATM   24  C   UNL     1      28.956  50.839  39.663  1.00  0.00     0.028 A 
HETATM   25  C   UNL     1      28.922  52.182  39.285  1.00  0.00     0.011 A 
HETATM   26 BR   UNL     1      29.592  52.693  37.593  1.00  0.00    -0.051 Br
HETATM   27  C   UNL     1      28.400  53.147  40.142  1.00  0.00     0.019 A 
HETATM   28  C   UNL     1      27.904  52.767  41.387  1.00  0.00     0.002 A 
HETATM   29  C   UNL     1      27.933  51.425  41.774  1.00  0.00     0.010 A 
ENDBRANCH   2  23
BRANCH   7  30
HETATM   30  C   UNL     1      24.361  47.728  39.038  1.00  0.00     0.085 C 
BRANCH  30  31
HETATM   31  C   UNL     1      23.608  49.011  39.406  1.00  0.00     0.034 C 
BRANCH  31  32
HETATM   32  C   UNL     1      22.981  49.747  38.222  1.00  0.00     0.164 C 
BRANCH  32  33
HETATM   33  O   UNL     1      23.535  51.045  38.067  1.00  0.00    -0.401 OA
HETATM   34  H   UNL     1      23.221  51.573  38.830  1.00  0.00     0.209 HD
ENDBRANCH  32  33
ENDBRANCH  31  32
ENDBRANCH  30  31
ENDBRANCH   7  30
TORSDOF 7
ENDMDL
