MODEL 1
REMARK VINA RESULT:      -9.2      0.000      0.000
REMARK  7 active torsions:
REMARK  status: ('A' for Active; 'I' for Inactive)
REMARK    1  A    between atoms: C_2  and  C_3 
REMARK    2  A    between atoms: C_6  and  C_7 
REMARK       I    between atoms: C_7  and  N_8 
REMARK    3  A    between atoms: N_8  and  C_9 
REMARK    4  A    between atoms: C_9  and  C_10 
REMARK    5  A    between atoms: N_19  and  C_20 
REMARK    6  A    between atoms: C_20  and  C_21 
REMARK    7  A    between atoms: C_21  and  C_22 
ROOT
HETATM    1  C   UNL     1      18.035  49.378  49.274  1.00  0.00     0.249 A 
HETATM    2  C   UNL     1      18.666  49.060  50.641  1.00  0.00     0.266 A 
HETATM    3  O   UNL     1      18.087  48.774  51.678  1.00  0.00    -0.270 OA
HETATM    4  N   UNL     1      20.045  49.193  50.514  1.00  0.00    -0.310 N 
HETATM    5  C   UNL     1      20.383  49.607  49.268  1.00  0.00     0.129 A 
HETATM    6  C   UNL     1      19.282  49.737  48.530  1.00  0.00     0.101 A 
HETATM    7  N   UNL     1      21.641  49.852  48.792  1.00  0.00    -0.284 N 
HETATM    8  C   UNL     1      21.825  50.220  47.458  1.00  0.00     0.331 A 
HETATM    9  O   UNL     1      22.922  50.397  46.935  1.00  0.00    -0.246 OA
HETATM   10  N   UNL     1      20.675  50.362  46.714  1.00  0.00    -0.275 N 
HETATM   11  C   UNL     1      19.393  50.143  47.141  1.00  0.00     0.262 A 
HETATM   12  O   UNL     1      18.414  50.248  46.417  1.00  0.00    -0.267 OA
HETATM   13  H   UNL     1      20.671  49.074  51.297  1.00  0.00     0.170 HD
HETATM   14  H   UNL     1      20.798  50.636  45.752  1.00  0.00     0.173 HD
ENDROOT
BRANCH   1  15
HETATM   15  N   UNL     1      17.061  50.484  49.392  1.00  0.00    -0.327 N 
HETATM   16  C   UNL     1      17.405  51.752  49.800  1.00  0.00     0.253 C 
HETATM   17  O   UNL     1      18.554  52.093  50.050  1.00  0.00    -0.268 OA
HETATM   18  H   UNL     1      16.090  50.212  49.498  1.00  0.00     0.164 HD
BRANCH  16  19
HETATM   19  C   UNL     1      16.280  52.705  49.982  1.00  0.00     0.032 A 
HETATM   20  C   UNL     1      14.989  52.199  50.128  1.00  0.00     0.017 A 
HETATM   21  C   UNL     1      13.908  53.070  50.304  1.00  0.00     0.009 A 
HETATM   22  C   UNL     1      14.089  54.465  50.367  1.00  0.00    -0.051 A 
HETATM   23  C   UNL     1      15.401  54.950  50.210  1.00  0.00     0.009 A 
HETATM   24  C   UNL     1      16.487  54.085  50.029  1.00  0.00     0.017 A 
BRANCH  22  25
HETATM   25  C   UNL     1      12.892  55.416  50.559  1.00  0.00    -0.024 C 
HETATM   26  C   UNL     1      12.784  55.936  52.011  1.00  0.00     0.019 C 
HETATM   27  C   UNL     1      11.603  54.646  50.214  1.00  0.00     0.019 C 
HETATM   28  C   UNL     1      12.972  56.667  49.653  1.00  0.00     0.019 C 
ENDBRANCH  22  25
ENDBRANCH  16  19
ENDBRANCH   1  15
BRANCH   1  29
HETATM   29  C   UNL     1      17.429  48.058  48.786  1.00  0.00     0.426 C 
HETATM   30  F   UNL     1      18.392  47.180  48.414  1.00  0.00    -0.167 F 
HETATM   31  F   UNL     1      16.716  47.440  49.758  1.00  0.00    -0.167 F 
HETATM   32  F   UNL     1      16.597  48.224  47.733  1.00  0.00    -0.167 F 
ENDBRANCH   1  29
BRANCH   7  33
HETATM   33  C   UNL     1      22.821  49.699  49.643  1.00  0.00     0.140 C 
BRANCH  33  34
HETATM   34  C   UNL     1      23.553  48.378  49.384  1.00  0.00     0.059 C 
BRANCH  34  35
HETATM   35  C   UNL     1      25.047  48.567  49.298  1.00  0.00    -0.057 A 
HETATM   36  C   UNL     1      25.591  49.671  48.628  1.00  0.00     0.007 A 
HETATM   37  C   UNL     1      26.974  49.832  48.536  1.00  0.00     0.001 A 
HETATM   38  C   UNL     1      27.825  48.896  49.118  1.00  0.00     0.000 A 
HETATM   39  C   UNL     1      27.295  47.797  49.790  1.00  0.00     0.001 A 
HETATM   40  C   UNL     1      25.912  47.630  49.878  1.00  0.00     0.007 A 
ENDBRANCH  34  35
ENDBRANCH  33  34
ENDBRANCH   7  33
TORSDOF 7
ENDMDL
MODEL 2
REMARK VINA RESULT:      -8.7     10.602     14.103
REMARK  7 active torsions:
REMARK  status: ('A' for Active; 'I' for Inactive)
REMARK    1  A    between atoms: C_2  and  C_3 
REMARK    2  A    between atoms: C_6  and  C_7 
REMARK       I    between atoms: C_7  and  N_8 
REMARK    3  A    between atoms: N_8  and  C_9 
REMARK    4  A    between atoms: C_9  and  C_10 
REMARK    5  A    between atoms: N_19  and  C_20 
REMARK    6  A    between atoms: C_20  and  C_21 
REMARK    7  A    between atoms: C_21  and  C_22 
ROOT
HETATM    1  C   UNL     1      25.950  42.851  49.664  1.00  0.00     0.249 A 
HETATM    2  C   UNL     1      26.666  44.212  49.708  1.00  0.00     0.266 A 
HETATM    3  O   UNL     1      26.488  45.169  48.970  1.00  0.00    -0.270 OA
HETATM    4  N   UNL     1      27.607  44.164  50.731  1.00  0.00    -0.310 N 
HETATM    5  C   UNL     1      27.634  42.941  51.314  1.00  0.00     0.129 A 
HETATM    6  C   UNL     1      26.723  42.157  50.740  1.00  0.00     0.101 A 
HETATM    7  N   UNL     1      28.439  42.532  52.340  1.00  0.00    -0.284 N 
HETATM    8  C   UNL     1      28.303  41.248  52.868  1.00  0.00     0.331 A 
HETATM    9  O   UNL     1      28.941  40.823  53.828  1.00  0.00    -0.246 OA
HETATM   10  N   UNL     1      27.365  40.447  52.255  1.00  0.00    -0.275 N 
HETATM   11  C   UNL     1      26.542  40.799  51.219  1.00  0.00     0.262 A 
HETATM   12  O   UNL     1      25.699  40.052  50.744  1.00  0.00    -0.267 OA
HETATM   13  H   UNL     1      28.232  44.934  50.922  1.00  0.00     0.170 HD
HETATM   14  H   UNL     1      27.265  39.514  52.624  1.00  0.00     0.173 HD
ENDROOT
BRANCH   1  15
HETATM   15  N   UNL     1      26.083  42.232  48.329  1.00  0.00    -0.327 N 
HETATM   16  C   UNL     1      27.207  41.551  47.921  1.00  0.00     0.253 C 
HETATM   17  O   UNL     1      28.174  41.348  48.645  1.00  0.00    -0.268 OA
HETATM   18  H   UNL     1      25.482  42.606  47.603  1.00  0.00     0.164 HD
BRANCH  16  19
HETATM   19  C   UNL     1      27.220  41.102  46.505  1.00  0.00     0.032 A 
HETATM   20  C   UNL     1      28.435  41.067  45.823  1.00  0.00     0.017 A 
HETATM   21  C   UNL     1      28.482  40.647  44.489  1.00  0.00     0.009 A 
HETATM   22  C   UNL     1      27.323  40.224  43.810  1.00  0.00    -0.051 A 
HETATM   23  C   UNL     1      26.108  40.276  44.519  1.00  0.00     0.009 A 
HETATM   24  C   UNL     1      26.053  40.701  45.852  1.00  0.00     0.017 A 
BRANCH  22  25
HETATM   25  C   UNL     1      27.383  39.765  42.340  1.00  0.00    -0.024 C 
HETATM   26  C   UNL     1      27.992  38.351  42.193  1.00  0.00     0.019 C 
HETATM   27  C   UNL     1      28.259  40.763  41.558  1.00  0.00     0.019 C 
HETATM   28  C   UNL     1      25.989  39.711  41.674  1.00  0.00     0.019 C 
ENDBRANCH  22  25
ENDBRANCH  16  19
ENDBRANCH   1  15
BRANCH   1  29
HETATM   29  C   UNL     1      24.503  43.136  50.082  1.00  0.00     0.426 C 
HETATM   30  F   UNL     1      23.672  42.136  49.698  1.00  0.00    -0.167 F 
HETATM   31  F   UNL     1      24.375  43.232  51.427  1.00  0.00    -0.167 F 
HETATM   32  F   UNL     1      24.027  44.288  49.557  1.00  0.00    -0.167 F 
ENDBRANCH   1  29
BRANCH   7  33
HETATM   33  C   UNL     1      29.430  43.430  52.934  1.00  0.00     0.140 C 
BRANCH  33  34
HETATM   34  C   UNL     1      28.822  44.319  54.024  1.00  0.00     0.059 C 
BRANCH  34  35
HETATM   35  C   UNL     1      29.666  44.340  55.274  1.00  0.00    -0.057 A 
HETATM   36  C   UNL     1      29.560  45.396  56.190  1.00  0.00     0.007 A 
HETATM   37  C   UNL     1      30.356  45.420  57.337  1.00  0.00     0.001 A 
HETATM   38  C   UNL     1      31.257  44.387  57.582  1.00  0.00     0.000 A 
HETATM   39  C   UNL     1      31.366  43.331  56.681  1.00  0.00     0.001 A 
HETATM   40  C   UNL     1      30.577  43.307  55.530  1.00  0.00     0.007 A 
ENDBRANCH  34  35
ENDBRANCH  33  34
ENDBRANCH   7  33
TORSDOF 7
ENDMDL
MODEL 3
REMARK VINA RESULT:      -8.6     12.166     16.060
REMARK  7 active torsions:
REMARK  status: ('A' for Active; 'I' for Inactive)
REMARK    1  A    between atoms: C_2  and  C_3 
REMARK    2  A    between atoms: C_6  and  C_7 
REMARK       I    between atoms: C_7  and  N_8 
REMARK    3  A    between atoms: N_8  and  C_9 
REMARK    4  A    between atoms: C_9  and  C_10 
REMARK    5  A    between atoms: N_19  and  C_20 
REMARK    6  A    between atoms: C_20  and  C_21 
REMARK    7  A    between atoms: C_21  and  C_22 
ROOT
HETATM    1  C   UNL     1      29.222  49.549  40.184  1.00  0.00     0.249 A 
HETATM    2  C   UNL     1      28.179  49.770  41.295  1.00  0.00     0.266 A 
HETATM    3  O   UNL     1      27.925  50.812  41.878  1.00  0.00    -0.270 OA
HETATM    4  N   UNL     1      27.582  48.544  41.565  1.00  0.00    -0.310 N 
HETATM    5  C   UNL     1      28.134  47.555  40.821  1.00  0.00     0.129 A 
HETATM    6  C   UNL     1      29.075  48.070  40.030  1.00  0.00     0.101 A 
HETATM    7  N   UNL     1      27.804  46.229  40.833  1.00  0.00    -0.284 N 
HETATM    8  C   UNL     1      28.435  45.343  39.958  1.00  0.00     0.331 A 
HETATM    9  O   UNL     1      28.155  44.150  39.860  1.00  0.00    -0.246 OA
HETATM   10  N   UNL     1      29.413  45.889  39.157  1.00  0.00    -0.275 N 
HETATM   11  C   UNL     1      29.792  47.204  39.113  1.00  0.00     0.262 A 
HETATM   12  O   UNL     1      30.643  47.635  38.348  1.00  0.00    -0.267 OA
HETATM   13  H   UNL     1      26.891  48.432  42.293  1.00  0.00     0.170 HD
HETATM   14  H   UNL     1      29.880  45.255  38.528  1.00  0.00     0.173 HD
ENDROOT
BRANCH   1  15
HETATM   15  N   UNL     1      30.563  49.982  40.632  1.00  0.00    -0.327 N 
HETATM   16  C   UNL     1      31.136  49.563  41.811  1.00  0.00     0.253 C 
HETATM   17  O   UNL     1      30.612  48.755  42.568  1.00  0.00    -0.268 OA
HETATM   18  H   UNL     1      30.908  50.848  40.233  1.00  0.00     0.164 HD
BRANCH  16  19
HETATM   19  C   UNL     1      32.434  50.194  42.164  1.00  0.00     0.032 A 
HETATM   20  C   UNL     1      33.562  49.874  41.409  1.00  0.00     0.017 A 
HETATM   21  C   UNL     1      34.799  50.453  41.714  1.00  0.00     0.009 A 
HETATM   22  C   UNL     1      34.938  51.385  42.759  1.00  0.00    -0.051 A 
HETATM   23  C   UNL     1      33.785  51.685  43.510  1.00  0.00     0.009 A 
HETATM   24  C   UNL     1      32.545  51.106  43.214  1.00  0.00     0.017 A 
BRANCH  22  25
HETATM   25  C   UNL     1      36.305  52.016  43.088  1.00  0.00    -0.024 C 
HETATM   26  C   UNL     1      36.261  52.869  44.377  1.00  0.00     0.019 C 
HETATM   27  C   UNL     1      36.716  52.921  41.911  1.00  0.00     0.019 C 
HETATM   28  C   UNL     1      37.414  50.959  43.304  1.00  0.00     0.019 C 
ENDBRANCH  22  25
ENDBRANCH  16  19
ENDBRANCH   1  15
BRANCH   1  29
HETATM   29  C   UNL     1      28.691  50.314  38.967  1.00  0.00     0.426 C 
HETATM   30  F   UNL     1      28.316  51.574  39.301  1.00  0.00    -0.167 F 
HETATM   31  F   UNL     1      29.633  50.448  38.004  1.00  0.00    -0.167 F 
HETATM   32  F   UNL     1      27.625  49.708  38.396  1.00  0.00    -0.167 F 
ENDBRANCH   1  29
BRANCH   7  33
HETATM   33  C   UNL     1      26.766  45.710  41.724  1.00  0.00     0.140 C 
BRANCH  33  34
HETATM   34  C   UNL     1      25.521  45.256  40.955  1.00  0.00     0.059 C 
BRANCH  34  35
HETATM   35  C   UNL     1      24.969  46.349  40.074  1.00  0.00    -0.057 A 
HETATM   36  C   UNL     1      25.144  46.303  38.684  1.00  0.00     0.007 A 
HETATM   37  C   UNL     1      24.647  47.326  37.874  1.00  0.00     0.001 A 
HETATM   38  C   UNL     1      23.967  48.398  38.445  1.00  0.00     0.000 A 
HETATM   39  C   UNL     1      23.784  48.452  39.824  1.00  0.00     0.001 A 
HETATM   40  C   UNL     1      24.285  47.434  40.637  1.00  0.00     0.007 A 
ENDBRANCH  34  35
ENDBRANCH  33  34
ENDBRANCH   7  33
TORSDOF 7
ENDMDL
MODEL 4
REMARK VINA RESULT:      -8.6     11.063     15.806
REMARK  7 active torsions:
REMARK  status: ('A' for Active; 'I' for Inactive)
REMARK    1  A    between atoms: C_2  and  C_3 
REMARK    2  A    between atoms: C_6  and  C_7 
REMARK       I    between atoms: C_7  and  N_8 
REMARK    3  A    between atoms: N_8  and  C_9 
REMARK    4  A    between atoms: C_9  and  C_10 
REMARK    5  A    between atoms: N_19  and  C_20 
REMARK    6  A    between atoms: C_20  and  C_21 
REMARK    7  A    between atoms: C_21  and  C_22 
ROOT
HETATM    1  C   UNL     1      29.149  49.553  40.175  1.00  0.00     0.249 A 
HETATM    2  C   UNL     1      28.129  49.749  41.311  1.00  0.00     0.266 A 
HETATM    3  O   UNL     1      27.893  50.777  41.927  1.00  0.00    -0.270 OA
HETATM    4  N   UNL     1      27.527  48.520  41.558  1.00  0.00    -0.310 N 
HETATM    5  C   UNL     1      28.059  47.549  40.777  1.00  0.00     0.129 A 
HETATM    6  C   UNL     1      28.988  48.079  39.983  1.00  0.00     0.101 A 
HETATM    7  N   UNL     1      27.720  46.225  40.758  1.00  0.00    -0.284 N 
HETATM    8  C   UNL     1      28.327  45.359  39.848  1.00  0.00     0.331 A 
HETATM    9  O   UNL     1      28.037  44.172  39.722  1.00  0.00    -0.246 OA
HETATM   10  N   UNL     1      29.294  45.921  39.044  1.00  0.00    -0.275 N 
HETATM   11  C   UNL     1      29.682  47.234  39.028  1.00  0.00     0.262 A 
HETATM   12  O   UNL     1      30.521  47.680  38.260  1.00  0.00    -0.267 OA
HETATM   13  H   UNL     1      26.849  48.393  42.296  1.00  0.00     0.170 HD
HETATM   14  H   UNL     1      29.745  45.301  38.388  1.00  0.00     0.173 HD
ENDROOT
BRANCH   1  15
HETATM   15  N   UNL     1      30.501  49.963  40.609  1.00  0.00    -0.327 N 
HETATM   16  C   UNL     1      31.070  49.555  41.793  1.00  0.00     0.253 C 
HETATM   17  O   UNL     1      30.532  48.773  42.567  1.00  0.00    -0.268 OA
HETATM   18  H   UNL     1      30.863  50.814  40.192  1.00  0.00     0.164 HD
BRANCH  16  19
HETATM   19  C   UNL     1      32.383  50.163  42.129  1.00  0.00     0.032 A 
HETATM   20  C   UNL     1      33.496  49.822  41.360  1.00  0.00     0.017 A 
HETATM   21  C   UNL     1      34.747  50.379  41.649  1.00  0.00     0.009 A 
HETATM   22  C   UNL     1      34.915  51.311  42.690  1.00  0.00    -0.051 A 
HETATM   23  C   UNL     1      33.777  51.633  43.455  1.00  0.00     0.009 A 
HETATM   24  C   UNL     1      32.524  51.075  43.176  1.00  0.00     0.017 A 
BRANCH  22  25
HETATM   25  C   UNL     1      36.297  51.918  43.002  1.00  0.00    -0.024 C 
HETATM   26  C   UNL     1      37.398  50.838  43.113  1.00  0.00     0.019 C 
HETATM   27  C   UNL     1      36.204  52.668  44.344  1.00  0.00     0.019 C 
HETATM   28  C   UNL     1      36.771  52.913  41.916  1.00  0.00     0.019 C 
ENDBRANCH  22  25
ENDBRANCH  16  19
ENDBRANCH   1  15
BRANCH   1  29
HETATM   29  C   UNL     1      28.600  50.355  38.989  1.00  0.00     0.426 C 
HETATM   30  F   UNL     1      29.541  50.522  38.028  1.00  0.00    -0.167 F 
HETATM   31  F   UNL     1      27.562  49.724  38.390  1.00  0.00    -0.167 F 
HETATM   32  F   UNL     1      28.161  51.582  39.350  1.00  0.00    -0.167 F 
ENDBRANCH   1  29
BRANCH   7  33
HETATM   33  C   UNL     1      26.695  45.689  41.654  1.00  0.00     0.140 C 
BRANCH  33  34
HETATM   34  C   UNL     1      25.284  45.849  41.078  1.00  0.00     0.059 C 
BRANCH  34  35
HETATM   35  C   UNL     1      24.218  45.500  42.086  1.00  0.00    -0.057 A 
HETATM   36  C   UNL     1      22.910  45.983  41.938  1.00  0.00     0.007 A 
HETATM   37  C   UNL     1      21.930  45.672  42.883  1.00  0.00     0.001 A 
HETATM   38  C   UNL     1      22.247  44.873  43.978  1.00  0.00     0.000 A 
HETATM   39  C   UNL     1      23.542  44.385  44.132  1.00  0.00     0.001 A 
HETATM   40  C   UNL     1      24.525  44.698  43.192  1.00  0.00     0.007 A 
ENDBRANCH  34  35
ENDBRANCH  33  34
ENDBRANCH   7  33
TORSDOF 7
ENDMDL
MODEL 5
REMARK VINA RESULT:      -8.5     24.622     27.906
REMARK  7 active torsions:
REMARK  status: ('A' for Active; 'I' for Inactive)
REMARK    1  A    between atoms: C_2  and  C_3 
REMARK    2  A    between atoms: C_6  and  C_7 
REMARK       I    between atoms: C_7  and  N_8 
REMARK    3  A    between atoms: N_8  and  C_9 
REMARK    4  A    between atoms: C_9  and  C_10 
REMARK    5  A    between atoms: N_19  and  C_20 
REMARK    6  A    between atoms: C_20  and  C_21 
REMARK    7  A    between atoms: C_21  and  C_22 
ROOT
HETATM    1  C   UNL     1      38.441  43.973  64.383  1.00  0.00     0.249 A 
HETATM    2  C   UNL     1      39.645  44.929  64.458  1.00  0.00     0.266 A 
HETATM    3  O   UNL     1      40.730  44.800  63.914  1.00  0.00    -0.270 OA
HETATM    4  N   UNL     1      39.301  45.977  65.305  1.00  0.00    -0.310 N 
HETATM    5  C   UNL     1      38.064  45.798  65.828  1.00  0.00     0.129 A 
HETATM    6  C   UNL     1      37.538  44.674  65.346  1.00  0.00     0.101 A 
HETATM    7  N   UNL     1      37.410  46.620  66.703  1.00  0.00    -0.284 N 
HETATM    8  C   UNL     1      36.107  46.320  67.105  1.00  0.00     0.331 A 
HETATM    9  O   UNL     1      35.427  47.035  67.837  1.00  0.00    -0.246 OA
HETATM   10  N   UNL     1      35.584  45.148  66.607  1.00  0.00    -0.275 N 
HETATM   11  C   UNL     1      36.197  44.283  65.740  1.00  0.00     0.262 A 
HETATM   12  O   UNL     1      35.661  43.275  65.302  1.00  0.00    -0.267 OA
HETATM   13  H   UNL     1      39.953  46.711  65.543  1.00  0.00     0.170 HD
HETATM   14  H   UNL     1      34.647  44.918  66.899  1.00  0.00     0.173 HD
ENDROOT
BRANCH   1  15
HETATM   15  N   UNL     1      38.829  42.609  64.799  1.00  0.00    -0.327 N 
HETATM   16  C   UNL     1      39.651  42.353  65.873  1.00  0.00     0.253 C 
HETATM   17  O   UNL     1      40.089  43.226  66.611  1.00  0.00    -0.268 OA
HETATM   18  H   UNL     1      38.763  41.890  64.086  1.00  0.00     0.164 HD
BRANCH  16  19
HETATM   19  C   UNL     1      40.038  40.932  66.073  1.00  0.00     0.032 A 
HETATM   20  C   UNL     1      39.489  39.963  65.234  1.00  0.00     0.017 A 
HETATM   21  C   UNL     1      39.835  38.617  65.394  1.00  0.00     0.009 A 
HETATM   22  C   UNL     1      40.759  38.206  66.374  1.00  0.00    -0.051 A 
HETATM   23  C   UNL     1      41.293  39.203  67.212  1.00  0.00     0.009 A 
HETATM   24  C   UNL     1      40.946  40.551  67.061  1.00  0.00     0.017 A 
BRANCH  22  25
HETATM   25  C   UNL     1      41.132  36.721  66.544  1.00  0.00    -0.024 C 
HETATM   26  C   UNL     1      41.936  36.464  67.839  1.00  0.00     0.019 C 
HETATM   27  C   UNL     1      41.992  36.297  65.338  1.00  0.00     0.019 C 
HETATM   28  C   UNL     1      39.893  35.797  66.611  1.00  0.00     0.019 C 
ENDBRANCH  22  25
ENDBRANCH  16  19
ENDBRANCH   1  15
BRANCH   1  29
HETATM   29  C   UNL     1      37.934  44.068  62.939  1.00  0.00     0.426 C 
HETATM   30  F   UNL     1      37.044  43.083  62.663  1.00  0.00    -0.167 F 
HETATM   31  F   UNL     1      37.285  45.234  62.707  1.00  0.00    -0.167 F 
HETATM   32  F   UNL     1      38.932  43.984  62.030  1.00  0.00    -0.167 F 
ENDBRANCH   1  29
BRANCH   7  33
HETATM   33  C   UNL     1      38.032  47.844  67.209  1.00  0.00     0.140 C 
BRANCH  33  34
HETATM   34  C   UNL     1      37.916  49.004  66.214  1.00  0.00     0.059 C 
BRANCH  34  35
HETATM   35  C   UNL     1      37.651  50.318  66.905  1.00  0.00    -0.057 A 
HETATM   36  C   UNL     1      37.899  51.532  66.250  1.00  0.00     0.007 A 
HETATM   37  C   UNL     1      37.669  52.747  66.899  1.00  0.00     0.001 A 
HETATM   38  C   UNL     1      37.183  52.758  68.204  1.00  0.00     0.000 A 
HETATM   39  C   UNL     1      36.929  51.557  68.862  1.00  0.00     0.001 A 
HETATM   40  C   UNL     1      37.164  50.341  68.218  1.00  0.00     0.007 A 
ENDBRANCH  34  35
ENDBRANCH  33  34
ENDBRANCH   7  33
TORSDOF 7
ENDMDL
MODEL 6
REMARK VINA RESULT:      -8.4     11.576     16.196
REMARK  7 active torsions:
REMARK  status: ('A' for Active; 'I' for Inactive)
REMARK    1  A    between atoms: C_2  and  C_3 
REMARK    2  A    between atoms: C_6  and  C_7 
REMARK       I    between atoms: C_7  and  N_8 
REMARK    3  A    between atoms: N_8  and  C_9 
REMARK    4  A    between atoms: C_9  and  C_10 
REMARK    5  A    between atoms: N_19  and  C_20 
REMARK    6  A    between atoms: C_20  and  C_21 
REMARK    7  A    between atoms: C_21  and  C_22 
ROOT
HETATM    1  C   UNL     1      29.697  51.356  40.203  1.00  0.00     0.249 A 
HETATM    2  C   UNL     1      28.634  51.504  41.306  1.00  0.00     0.266 A 
HETATM    3  O   UNL     1      28.480  52.448  42.066  1.00  0.00    -0.270 OA
HETATM    4  N   UNL     1      27.878  50.338  41.327  1.00  0.00    -0.310 N 
HETATM    5  C   UNL     1      28.343  49.438  40.427  1.00  0.00     0.129 A 
HETATM    6  C   UNL     1      29.378  49.960  39.772  1.00  0.00     0.101 A 
HETATM    7  N   UNL     1      27.853  48.185  40.183  1.00  0.00    -0.284 N 
HETATM    8  C   UNL     1      28.413  47.398  39.175  1.00  0.00     0.331 A 
HETATM    9  O   UNL     1      27.995  46.290  38.849  1.00  0.00    -0.246 OA
HETATM   10  N   UNL     1      29.490  47.949  38.518  1.00  0.00    -0.275 N 
HETATM   11  C   UNL     1      30.029  49.190  38.729  1.00  0.00     0.262 A 
HETATM   12  O   UNL     1      30.964  49.638  38.081  1.00  0.00    -0.267 OA
HETATM   13  H   UNL     1      27.143  50.186  42.002  1.00  0.00     0.170 HD
HETATM   14  H   UNL     1      29.907  47.384  37.794  1.00  0.00     0.173 HD
ENDROOT
BRANCH   1  15
HETATM   15  N   UNL     1      31.056  51.522  40.759  1.00  0.00    -0.327 N 
HETATM   16  C   UNL     1      31.505  50.846  41.870  1.00  0.00     0.253 C 
HETATM   17  O   UNL     1      30.840  50.006  42.464  1.00  0.00    -0.268 OA
HETATM   18  H   UNL     1      31.532  52.386  40.521  1.00  0.00     0.164 HD
BRANCH  16  19
HETATM   19  C   UNL     1      32.853  51.227  42.365  1.00  0.00     0.032 A 
HETATM   20  C   UNL     1      33.934  51.160  41.486  1.00  0.00     0.017 A 
HETATM   21  C   UNL     1      35.216  51.515  41.920  1.00  0.00     0.009 A 
HETATM   22  C   UNL     1      35.449  51.972  43.230  1.00  0.00    -0.051 A 
HETATM   23  C   UNL     1      34.342  52.024  44.100  1.00  0.00     0.009 A 
HETATM   24  C   UNL     1      33.057  51.665  43.674  1.00  0.00     0.017 A 
BRANCH  22  25
HETATM   25  C   UNL     1      36.865  52.359  43.700  1.00  0.00    -0.024 C 
HETATM   26  C   UNL     1      37.377  53.646  43.015  1.00  0.00     0.019 C 
HETATM   27  C   UNL     1      37.821  51.201  43.354  1.00  0.00     0.019 C 
HETATM   28  C   UNL     1      36.939  52.617  45.223  1.00  0.00     0.019 C 
ENDBRANCH  22  25
ENDBRANCH  16  19
ENDBRANCH   1  15
BRANCH   1  29
HETATM   29  C   UNL     1      29.325  52.391  39.136  1.00  0.00     0.426 C 
HETATM   30  F   UNL     1      28.043  52.236  38.722  1.00  0.00    -0.167 F 
HETATM   31  F   UNL     1      29.415  53.658  39.607  1.00  0.00    -0.167 F 
HETATM   32  F   UNL     1      30.118  52.320  38.042  1.00  0.00    -0.167 F 
ENDBRANCH   1  29
BRANCH   7  33
HETATM   33  C   UNL     1      26.716  47.652  40.933  1.00  0.00     0.140 C 
BRANCH  33  34
HETATM   34  C   UNL     1      25.381  47.937  40.236  1.00  0.00     0.059 C 
BRANCH  34  35
HETATM   35  C   UNL     1      24.238  47.188  40.875  1.00  0.00    -0.057 A 
HETATM   36  C   UNL     1      24.483  46.109  41.735  1.00  0.00     0.007 A 
HETATM   37  C   UNL     1      23.422  45.406  42.310  1.00  0.00     0.001 A 
HETATM   38  C   UNL     1      22.109  45.780  42.035  1.00  0.00     0.000 A 
HETATM   39  C   UNL     1      21.854  46.853  41.185  1.00  0.00     0.001 A 
HETATM   40  C   UNL     1      22.913  47.553  40.604  1.00  0.00     0.007 A 
ENDBRANCH  34  35
ENDBRANCH  33  34
ENDBRANCH   7  33
TORSDOF 7
ENDMDL
MODEL 7
REMARK VINA RESULT:      -8.3      3.512      4.885
REMARK  7 active torsions:
REMARK  status: ('A' for Active; 'I' for Inactive)
REMARK    1  A    between atoms: C_2  and  C_3 
REMARK    2  A    between atoms: C_6  and  C_7 
REMARK       I    between atoms: C_7  and  N_8 
REMARK    3  A    between atoms: N_8  and  C_9 
REMARK    4  A    between atoms: C_9  and  C_10 
REMARK    5  A    between atoms: N_19  and  C_20 
REMARK    6  A    between atoms: C_20  and  C_21 
REMARK    7  A    between atoms: C_21  and  C_22 
ROOT
HETATM    1  C   UNL     1      18.326  51.127  48.471  1.00  0.00     0.249 A 
HETATM    2  C   UNL     1      18.052  51.250  46.961  1.00  0.00     0.266 A 
HETATM    3  O   UNL     1      18.083  52.265  46.282  1.00  0.00    -0.270 OA
HETATM    4  N   UNL     1      17.712  49.988  46.487  1.00  0.00    -0.310 N 
HETATM    5  C   UNL     1      17.677  49.081  47.493  1.00  0.00     0.129 A 
HETATM    6  C   UNL     1      18.006  49.676  48.638  1.00  0.00     0.101 A 
HETATM    7  N   UNL     1      17.371  47.752  47.397  1.00  0.00    -0.284 N 
HETATM    8  C   UNL     1      17.435  46.935  48.527  1.00  0.00     0.331 A 
HETATM    9  O   UNL     1      17.238  45.723  48.516  1.00  0.00    -0.246 OA
HETATM   10  N   UNL     1      17.764  47.570  49.704  1.00  0.00    -0.275 N 
HETATM   11  C   UNL     1      18.067  48.896  49.860  1.00  0.00     0.262 A 
HETATM   12  O   UNL     1      18.392  49.392  50.929  1.00  0.00    -0.267 OA
HETATM   13  H   UNL     1      17.447  49.829  45.526  1.00  0.00     0.170 HD
HETATM   14  H   UNL     1      17.805  46.989  50.527  1.00  0.00     0.173 HD
ENDROOT
BRANCH   1  15
HETATM   15  N   UNL     1      17.447  52.034  49.239  1.00  0.00    -0.327 N 
HETATM   16  C   UNL     1      16.079  52.060  49.093  1.00  0.00     0.253 C 
HETATM   17  O   UNL     1      15.463  51.300  48.357  1.00  0.00    -0.268 OA
HETATM   18  H   UNL     1      17.887  52.865  49.618  1.00  0.00     0.164 HD
BRANCH  16  19
HETATM   19  C   UNL     1      15.364  53.119  49.852  1.00  0.00     0.032 A 
HETATM   20  C   UNL     1      14.128  52.817  50.422  1.00  0.00     0.017 A 
HETATM   21  C   UNL     1      13.430  53.791  51.145  1.00  0.00     0.009 A 
HETATM   22  C   UNL     1      13.958  55.081  51.342  1.00  0.00    -0.051 A 
HETATM   23  C   UNL     1      15.204  55.362  50.750  1.00  0.00     0.009 A 
HETATM   24  C   UNL     1      15.906  54.394  50.021  1.00  0.00     0.017 A 
BRANCH  22  25
HETATM   25  C   UNL     1      13.181  56.147  52.137  1.00  0.00    -0.024 C 
HETATM   26  C   UNL     1      11.677  56.161  51.783  1.00  0.00     0.019 C 
HETATM   27  C   UNL     1      13.779  57.528  51.805  1.00  0.00     0.019 C 
HETATM   28  C   UNL     1      13.267  55.932  53.667  1.00  0.00     0.019 C 
ENDBRANCH  22  25
ENDBRANCH  16  19
ENDBRANCH   1  15
BRANCH   1  29
HETATM   29  C   UNL     1      19.822  51.413  48.639  1.00  0.00     0.426 C 
HETATM   30  F   UNL     1      20.127  52.682  48.272  1.00  0.00    -0.167 F 
HETATM   31  F   UNL     1      20.218  51.293  49.929  1.00  0.00    -0.167 F 
HETATM   32  F   UNL     1      20.598  50.579  47.910  1.00  0.00    -0.167 F 
ENDBRANCH   1  29
BRANCH   7  33
HETATM   33  C   UNL     1      17.010  47.144  46.116  1.00  0.00     0.140 C 
BRANCH  33  34
HETATM   34  C   UNL     1      18.205  47.061  45.160  1.00  0.00     0.059 C 
BRANCH  34  35
HETATM   35  C   UNL     1      19.310  46.193  45.709  1.00  0.00    -0.057 A 
HETATM   36  C   UNL     1      20.494  46.765  46.195  1.00  0.00     0.007 A 
HETATM   37  C   UNL     1      21.521  45.957  46.685  1.00  0.00     0.001 A 
HETATM   38  C   UNL     1      21.371  44.572  46.701  1.00  0.00     0.000 A 
HETATM   39  C   UNL     1      20.197  43.994  46.224  1.00  0.00     0.001 A 
HETATM   40  C   UNL     1      19.171  44.799  45.727  1.00  0.00     0.007 A 
ENDBRANCH  34  35
ENDBRANCH  33  34
ENDBRANCH   7  33
TORSDOF 7
ENDMDL
MODEL 8
REMARK VINA RESULT:      -8.3      3.658      4.754
REMARK  7 active torsions:
REMARK  status: ('A' for Active; 'I' for Inactive)
REMARK    1  A    between atoms: C_2  and  C_3 
REMARK    2  A    between atoms: C_6  and  C_7 
REMARK       I    between atoms: C_7  and  N_8 
REMARK    3  A    between atoms: N_8  and  C_9 
REMARK    4  A    between atoms: C_9  and  C_10 
REMARK    5  A    between atoms: N_19  and  C_20 
REMARK    6  A    between atoms: C_20  and  C_21 
REMARK    7  A    between atoms: C_21  and  C_22 
ROOT
HETATM    1  C   UNL     1      19.022  50.294  48.732  1.00  0.00     0.249 A 
HETATM    2  C   UNL     1      20.436  50.865  48.522  1.00  0.00     0.266 A 
HETATM    3  O   UNL     1      20.753  52.038  48.402  1.00  0.00    -0.270 OA
HETATM    4  N   UNL     1      21.320  49.794  48.448  1.00  0.00    -0.310 N 
HETATM    5  C   UNL     1      20.662  48.611  48.527  1.00  0.00     0.129 A 
HETATM    6  C   UNL     1      19.359  48.839  48.677  1.00  0.00     0.101 A 
HETATM    7  N   UNL     1      21.207  47.358  48.478  1.00  0.00    -0.284 N 
HETATM    8  C   UNL     1      20.393  46.235  48.630  1.00  0.00     0.331 A 
HETATM    9  O   UNL     1      20.807  45.079  48.662  1.00  0.00    -0.246 OA
HETATM   10  N   UNL     1      19.047  46.488  48.772  1.00  0.00    -0.275 N 
HETATM   11  C   UNL     1      18.447  47.718  48.816  1.00  0.00     0.262 A 
HETATM   12  O   UNL     1      17.247  47.877  48.985  1.00  0.00    -0.267 OA
HETATM   13  H   UNL     1      22.305  49.921  48.270  1.00  0.00     0.170 HD
HETATM   14  H   UNL     1      18.450  45.682  48.875  1.00  0.00     0.173 HD
ENDROOT
BRANCH   1  15
HETATM   15  N   UNL     1      18.111  50.746  47.660  1.00  0.00    -0.327 N 
HETATM   16  C   UNL     1      18.384  50.587  46.321  1.00  0.00     0.253 C 
HETATM   17  O   UNL     1      19.377  50.010  45.898  1.00  0.00    -0.268 OA
HETATM   18  H   UNL     1      17.452  51.474  47.914  1.00  0.00     0.164 HD
BRANCH  16  19
HETATM   19  C   UNL     1      17.418  51.212  45.381  1.00  0.00     0.032 A 
HETATM   20  C   UNL     1      17.236  52.594  45.425  1.00  0.00     0.017 A 
HETATM   21  C   UNL     1      16.335  53.213  44.551  1.00  0.00     0.009 A 
HETATM   22  C   UNL     1      15.615  52.475  43.592  1.00  0.00    -0.051 A 
HETATM   23  C   UNL     1      15.812  51.081  43.573  1.00  0.00     0.009 A 
HETATM   24  C   UNL     1      16.707  50.454  44.448  1.00  0.00     0.017 A 
BRANCH  22  25
HETATM   25  C   UNL     1      14.624  53.166  42.636  1.00  0.00    -0.024 C 
HETATM   26  C   UNL     1      13.573  54.010  43.391  1.00  0.00     0.019 C 
HETATM   27  C   UNL     1      13.894  52.076  41.828  1.00  0.00     0.019 C 
HETATM   28  C   UNL     1      15.322  54.126  41.643  1.00  0.00     0.019 C 
ENDBRANCH  22  25
ENDBRANCH  16  19
ENDBRANCH   1  15
BRANCH   1  29
HETATM   29  C   UNL     1      18.607  50.740  50.139  1.00  0.00     0.426 C 
HETATM   30  F   UNL     1      18.989  52.017  50.385  1.00  0.00    -0.167 F 
HETATM   31  F   UNL     1      17.262  50.715  50.299  1.00  0.00    -0.167 F 
HETATM   32  F   UNL     1      19.135  49.961  51.110  1.00  0.00    -0.167 F 
ENDBRANCH   1  29
BRANCH   7  33
HETATM   33  C   UNL     1      22.646  47.159  48.306  1.00  0.00     0.140 C 
BRANCH  33  34
HETATM   34  C   UNL     1      23.432  47.505  49.575  1.00  0.00     0.059 C 
BRANCH  34  35
HETATM   35  C   UNL     1      24.705  48.253  49.266  1.00  0.00    -0.057 A 
HETATM   36  C   UNL     1      24.691  49.364  48.411  1.00  0.00     0.007 A 
HETATM   37  C   UNL     1      25.874  50.044  48.114  1.00  0.00     0.001 A 
HETATM   38  C   UNL     1      27.078  49.623  48.672  1.00  0.00     0.000 A 
HETATM   39  C   UNL     1      27.102  48.522  49.526  1.00  0.00     0.001 A 
HETATM   40  C   UNL     1      25.922  47.838  49.820  1.00  0.00     0.007 A 
ENDBRANCH  34  35
ENDBRANCH  33  34
ENDBRANCH   7  33
TORSDOF 7
ENDMDL
MODEL 9
REMARK VINA RESULT:      -8.3     13.820     16.983
REMARK  7 active torsions:
REMARK  status: ('A' for Active; 'I' for Inactive)
REMARK    1  A    between atoms: C_2  and  C_3 
REMARK    2  A    between atoms: C_6  and  C_7 
REMARK       I    between atoms: C_7  and  N_8 
REMARK    3  A    between atoms: N_8  and  C_9 
REMARK    4  A    between atoms: C_9  and  C_10 
REMARK    5  A    between atoms: N_19  and  C_20 
REMARK    6  A    between atoms: C_20  and  C_21 
REMARK    7  A    between atoms: C_21  and  C_22 
ROOT
HETATM    1  C   UNL     1      31.172  51.573  41.041  1.00  0.00     0.249 A 
HETATM    2  C   UNL     1      31.635  51.930  39.617  1.00  0.00     0.266 A 
HETATM    3  O   UNL     1      30.936  52.086  38.627  1.00  0.00    -0.270 OA
HETATM    4  N   UNL     1      33.023  52.008  39.628  1.00  0.00    -0.310 N 
HETATM    5  C   UNL     1      33.520  51.697  40.850  1.00  0.00     0.129 A 
HETATM    6  C   UNL     1      32.515  51.433  41.683  1.00  0.00     0.101 A 
HETATM    7  N   UNL     1      34.835  51.660  41.222  1.00  0.00    -0.284 N 
HETATM    8  C   UNL     1      35.181  51.374  42.543  1.00  0.00     0.331 A 
HETATM    9  O   UNL     1      36.332  51.382  42.975  1.00  0.00    -0.246 OA
HETATM   10  N   UNL     1      34.131  51.091  43.387  1.00  0.00    -0.275 N 
HETATM   11  C   UNL     1      32.800  51.101  43.067  1.00  0.00     0.262 A 
HETATM   12  O   UNL     1      31.910  50.880  43.876  1.00  0.00    -0.267 OA
HETATM   13  H   UNL     1      33.558  52.188  38.791  1.00  0.00     0.170 HD
HETATM   14  H   UNL     1      34.372  50.875  44.343  1.00  0.00     0.173 HD
ENDROOT
BRANCH   1  15
HETATM   15  N   UNL     1      30.370  50.332  41.036  1.00  0.00    -0.327 N 
HETATM   16  C   UNL     1      30.788  49.167  40.435  1.00  0.00     0.253 C 
HETATM   17  O   UNL     1      31.881  49.037  39.898  1.00  0.00    -0.268 OA
HETATM   18  H   UNL     1      29.373  50.445  41.180  1.00  0.00     0.164 HD
BRANCH  16  19
HETATM   19  C   UNL     1      29.803  48.054  40.417  1.00  0.00     0.032 A 
HETATM   20  C   UNL     1      30.092  46.914  39.667  1.00  0.00     0.017 A 
HETATM   21  C   UNL     1      29.187  45.847  39.632  1.00  0.00     0.009 A 
HETATM   22  C   UNL     1      27.986  45.877  40.366  1.00  0.00    -0.051 A 
HETATM   23  C   UNL     1      27.715  47.042  41.109  1.00  0.00     0.009 A 
HETATM   24  C   UNL     1      28.613  48.115  41.144  1.00  0.00     0.017 A 
BRANCH  22  25
HETATM   25  C   UNL     1      26.995  44.698  40.319  1.00  0.00    -0.024 C 
HETATM   26  C   UNL     1      26.243  44.512  41.658  1.00  0.00     0.019 C 
HETATM   27  C   UNL     1      27.787  43.412  40.016  1.00  0.00     0.019 C 
HETATM   28  C   UNL     1      25.910  44.873  39.231  1.00  0.00     0.019 C 
ENDBRANCH  22  25
ENDBRANCH  16  19
ENDBRANCH   1  15
BRANCH   1  29
HETATM   29  C   UNL     1      30.415  52.807  41.545  1.00  0.00     0.426 C 
HETATM   30  F   UNL     1      30.135  52.708  42.868  1.00  0.00    -0.167 F 
HETATM   31  F   UNL     1      31.143  53.940  41.401  1.00  0.00    -0.167 F 
HETATM   32  F   UNL     1      29.246  53.003  40.894  1.00  0.00    -0.167 F 
ENDBRANCH   1  29
BRANCH   7  33
HETATM   33  C   UNL     1      35.905  51.953  40.268  1.00  0.00     0.140 C 
BRANCH  33  34
HETATM   34  C   UNL     1      36.475  50.681  39.632  1.00  0.00     0.059 C 
BRANCH  34  35
HETATM   35  C   UNL     1      37.350  50.986  38.442  1.00  0.00    -0.057 A 
HETATM   36  C   UNL     1      38.036  49.960  37.777  1.00  0.00     0.007 A 
HETATM   37  C   UNL     1      38.859  50.249  36.687  1.00  0.00     0.001 A 
HETATM   38  C   UNL     1      38.999  51.563  36.249  1.00  0.00     0.000 A 
HETATM   39  C   UNL     1      38.319  52.590  36.900  1.00  0.00     0.001 A 
HETATM   40  C   UNL     1      37.500  52.305  37.994  1.00  0.00     0.007 A 
ENDBRANCH  34  35
ENDBRANCH  33  34
ENDBRANCH   7  33
TORSDOF 7
ENDMDL
MODEL 10
REMARK VINA RESULT:      -8.2     14.612     18.609
REMARK  7 active torsions:
REMARK  status: ('A' for Active; 'I' for Inactive)
REMARK    1  A    between atoms: C_2  and  C_3 
REMARK    2  A    between atoms: C_6  and  C_7 
REMARK       I    between atoms: C_7  and  N_8 
REMARK    3  A    between atoms: N_8  and  C_9 
REMARK    4  A    between atoms: C_9  and  C_10 
REMARK    5  A    between atoms: N_19  and  C_20 
REMARK    6  A    between atoms: C_20  and  C_21 
REMARK    7  A    between atoms: C_21  and  C_22 
ROOT
HETATM    1  C   UNL     1      32.773  51.336  41.390  1.00  0.00     0.249 A 
HETATM    2  C   UNL     1      32.902  49.849  41.017  1.00  0.00     0.266 A 
HETATM    3  O   UNL     1      33.826  49.095  41.280  1.00  0.00    -0.270 OA
HETATM    4  N   UNL     1      31.780  49.499  40.273  1.00  0.00    -0.310 N 
HETATM    5  C   UNL     1      30.975  50.570  40.070  1.00  0.00     0.129 A 
HETATM    6  C   UNL     1      31.496  51.637  40.672  1.00  0.00     0.101 A 
HETATM    7  N   UNL     1      29.797  50.598  39.376  1.00  0.00    -0.284 N 
HETATM    8  C   UNL     1      29.053  51.777  39.306  1.00  0.00     0.331 A 
HETATM    9  O   UNL     1      27.958  51.873  38.758  1.00  0.00    -0.246 OA
HETATM   10  N   UNL     1      29.614  52.873  39.923  1.00  0.00    -0.275 N 
HETATM   11  C   UNL     1      30.792  52.905  40.619  1.00  0.00     0.262 A 
HETATM   12  O   UNL     1      31.217  53.904  41.181  1.00  0.00    -0.267 OA
HETATM   13  H   UNL     1      31.663  48.576  39.879  1.00  0.00     0.170 HD
HETATM   14  H   UNL     1      29.088  53.732  39.871  1.00  0.00     0.173 HD
ENDROOT
BRANCH   1  15
HETATM   15  N   UNL     1      33.938  52.102  40.899  1.00  0.00    -0.327 N 
HETATM   16  C   UNL     1      34.306  52.149  39.574  1.00  0.00     0.253 C 
HETATM   17  O   UNL     1      33.672  51.608  38.677  1.00  0.00    -0.268 OA
HETATM   18  H   UNL     1      34.655  52.309  41.585  1.00  0.00     0.164 HD
BRANCH  16  19
HETATM   19  C   UNL     1      35.574  52.864  39.276  1.00  0.00     0.032 A 
HETATM   20  C   UNL     1      35.569  54.258  39.252  1.00  0.00     0.017 A 
HETATM   21  C   UNL     1      36.748  54.961  38.976  1.00  0.00     0.009 A 
HETATM   22  C   UNL     1      37.966  54.294  38.747  1.00  0.00    -0.051 A 
HETATM   23  C   UNL     1      37.942  52.886  38.770  1.00  0.00     0.009 A 
HETATM   24  C   UNL     1      36.766  52.176  39.039  1.00  0.00     0.017 A 
BRANCH  22  25
HETATM   25  C   UNL     1      39.258  55.076  38.443  1.00  0.00    -0.024 C 
HETATM   26  C   UNL     1      40.163  55.219  39.688  1.00  0.00     0.019 C 
HETATM   27  C   UNL     1      38.866  56.484  37.953  1.00  0.00     0.019 C 
HETATM   28  C   UNL     1      40.122  54.401  37.352  1.00  0.00     0.019 C 
ENDBRANCH  22  25
ENDBRANCH  16  19
ENDBRANCH   1  15
BRANCH   1  29
HETATM   29  C   UNL     1      32.601  51.362  42.913  1.00  0.00     0.426 C 
HETATM   30  F   UNL     1      33.800  51.348  43.545  1.00  0.00    -0.167 F 
HETATM   31  F   UNL     1      31.972  52.486  43.331  1.00  0.00    -0.167 F 
HETATM   32  F   UNL     1      31.883  50.313  43.374  1.00  0.00    -0.167 F 
ENDBRANCH   1  29
BRANCH   7  33
HETATM   33  C   UNL     1      29.267  49.399  38.726  1.00  0.00     0.140 C 
BRANCH  33  34
HETATM   34  C   UNL     1      28.464  48.525  39.696  1.00  0.00     0.059 C 
BRANCH  34  35
HETATM   35  C   UNL     1      28.601  47.056  39.380  1.00  0.00    -0.057 A 
HETATM   36  C   UNL     1      28.054  46.088  40.233  1.00  0.00     0.007 A 
HETATM   37  C   UNL     1      28.198  44.729  39.947  1.00  0.00     0.001 A 
HETATM   38  C   UNL     1      28.883  44.327  38.803  1.00  0.00     0.000 A 
HETATM   39  C   UNL     1      29.427  45.281  37.946  1.00  0.00     0.001 A 
HETATM   40  C   UNL     1      29.290  46.640  38.233  1.00  0.00     0.007 A 
ENDBRANCH  34  35
ENDBRANCH  33  34
ENDBRANCH   7  33
TORSDOF 7
ENDMDL
