MODEL 1
REMARK VINA RESULT:      -9.6      0.000      0.000
REMARK  3 active torsions:
REMARK  status: ('A' for Active; 'I' for Inactive)
REMARK    1  A    between atoms: C_10  and  C_11 
REMARK       I    between atoms: C_11  and  N_12 
REMARK    2  A    between atoms: C_14  and  O_15 
REMARK    3  A    between atoms: O_15  and  C_16 
ROOT
HETATM    1  C   UNL     1      27.941  44.652  53.565  1.00  0.00     0.255 C 
HETATM    2  N   UNL     1      26.975  45.542  53.134  1.00  0.00    -0.345 N 
HETATM    3  C   UNL     1      26.416  45.417  51.793  1.00  0.00     0.158 C 
HETATM    4  C   UNL     1      25.964  46.836  51.422  1.00  0.00     0.148 C 
HETATM    5  C   UNL     1      25.544  47.381  52.787  1.00  0.00     0.054 C 
HETATM    6  C   UNL     1      26.612  46.827  53.717  1.00  0.00     0.129 C 
HETATM    7  O   UNL     1      28.288  43.674  52.908  1.00  0.00    -0.267 OA
ENDROOT
BRANCH   1   8
HETATM    8  C   UNL     1      28.646  44.910  54.833  1.00  0.00     0.050 A 
HETATM    9  C   UNL     1      28.211  45.982  55.610  1.00  0.00     0.136 A 
HETATM   10  N   UNL     1      28.726  46.350  56.812  1.00  0.00    -0.240 NA
HETATM   11  C   UNL     1      29.753  45.567  57.190  1.00  0.00     0.155 A 
HETATM   12  N   UNL     1      30.474  45.679  58.342  1.00  0.00    -0.260 N 
HETATM   13  C   UNL     1      30.303  44.495  56.501  1.00  0.00     0.038 A 
HETATM   14  N   UNL     1      31.444  44.752  58.472  1.00  0.00    -0.177 NA
HETATM   15  H   UNL     1      30.342  46.366  59.074  1.00  0.00     0.191 HD
HETATM   16  C   UNL     1      31.348  44.031  57.345  1.00  0.00     0.065 A 
HETATM   17  C   UNL     1      32.259  42.884  57.111  1.00  0.00     0.073 C 
HETATM   18  C   UNL     1      29.746  44.158  55.257  1.00  0.00     0.036 A 
ENDBRANCH   1   8
BRANCH   4  19
HETATM   19  O   UNL     1      24.878  46.780  50.506  1.00  0.00    -0.344 OA
BRANCH  19  20
HETATM   20  C   UNL     1      24.674  47.859  49.691  1.00  0.00     0.070 A 
HETATM   21  C   UNL     1      23.442  48.300  49.206  1.00  0.00     0.060 A 
HETATM   22  C   UNL     1      23.387  49.412  48.362  1.00  0.00     0.036 A 
HETATM   23 CL   UNL     1      21.863  49.946  47.762  1.00  0.00    -0.084 Cl
HETATM   24  C   UNL     1      24.547  50.090  47.996  1.00  0.00     0.024 A 
HETATM   25  C   UNL     1      25.779  49.648  48.474  1.00  0.00     0.004 A 
HETATM   26  C   UNL     1      25.838  48.533  49.312  1.00  0.00     0.037 A 
ENDBRANCH  19  20
ENDBRANCH   4  19
TORSDOF 3
ENDMDL
MODEL 2
REMARK VINA RESULT:      -9.5      3.983      9.044
REMARK  3 active torsions:
REMARK  status: ('A' for Active; 'I' for Inactive)
REMARK    1  A    between atoms: C_10  and  C_11 
REMARK       I    between atoms: C_11  and  N_12 
REMARK    2  A    between atoms: C_14  and  O_15 
REMARK    3  A    between atoms: O_15  and  C_16 
ROOT
HETATM    1  C   UNL     1      25.975  46.128  50.451  1.00  0.00     0.255 C 
HETATM    2  N   UNL     1      26.089  46.118  51.830  1.00  0.00    -0.345 N 
HETATM    3  C   UNL     1      26.442  44.884  52.521  1.00  0.00     0.158 C 
HETATM    4  C   UNL     1      25.835  45.033  53.923  1.00  0.00     0.148 C 
HETATM    5  C   UNL     1      25.959  46.540  54.143  1.00  0.00     0.054 C 
HETATM    6  C   UNL     1      25.607  47.112  52.779  1.00  0.00     0.129 C 
HETATM    7  O   UNL     1      26.264  45.161  49.750  1.00  0.00    -0.267 OA
ENDROOT
BRANCH   1   8
HETATM    8  C   UNL     1      25.417  47.316  49.782  1.00  0.00     0.050 A 
HETATM    9  C   UNL     1      26.304  48.318  49.392  1.00  0.00     0.136 A 
HETATM   10  N   UNL     1      25.971  49.465  48.746  1.00  0.00    -0.240 NA
HETATM   11  C   UNL     1      24.646  49.562  48.526  1.00  0.00     0.155 A 
HETATM   12  N   UNL     1      24.003  50.588  47.900  1.00  0.00    -0.260 N 
HETATM   13  C   UNL     1      23.656  48.658  48.888  1.00  0.00     0.038 A 
HETATM   14  N   UNL     1      22.668  50.421  47.807  1.00  0.00    -0.177 NA
HETATM   15  H   UNL     1      24.428  51.423  47.515  1.00  0.00     0.191 HD
HETATM   16  C   UNL     1      22.452  49.246  48.416  1.00  0.00     0.065 A 
HETATM   17  C   UNL     1      21.078  48.696  48.513  1.00  0.00     0.073 C 
HETATM   18  C   UNL     1      24.047  47.492  49.565  1.00  0.00     0.036 A 
ENDBRANCH   1   8
BRANCH   4  19
HETATM   19  O   UNL     1      26.592  44.285  54.867  1.00  0.00    -0.344 OA
BRANCH  19  20
HETATM   20  C   UNL     1      27.713  43.642  54.421  1.00  0.00     0.070 A 
HETATM   21  C   UNL     1      27.742  42.455  53.689  1.00  0.00     0.060 A 
HETATM   22  C   UNL     1      28.968  41.899  53.316  1.00  0.00     0.036 A 
HETATM   23 CL   UNL     1      28.996  40.429  52.419  1.00  0.00    -0.084 Cl
HETATM   24  C   UNL     1      30.168  42.516  53.664  1.00  0.00     0.024 A 
HETATM   25  C   UNL     1      30.142  43.698  54.400  1.00  0.00     0.004 A 
HETATM   26  C   UNL     1      28.918  44.252  54.781  1.00  0.00     0.037 A 
ENDBRANCH  19  20
ENDBRANCH   4  19
TORSDOF 3
ENDMDL
MODEL 3
REMARK VINA RESULT:      -9.4      1.668      2.401
REMARK  3 active torsions:
REMARK  status: ('A' for Active; 'I' for Inactive)
REMARK    1  A    between atoms: C_10  and  C_11 
REMARK       I    between atoms: C_11  and  N_12 
REMARK    2  A    between atoms: C_14  and  O_15 
REMARK    3  A    between atoms: O_15  and  C_16 
ROOT
HETATM    1  C   UNL     1      27.204  43.943  51.723  1.00  0.00     0.255 C 
HETATM    2  N   UNL     1      26.355  45.035  51.704  1.00  0.00    -0.345 N 
HETATM    3  C   UNL     1      25.475  45.252  50.562  1.00  0.00     0.158 C 
HETATM    4  C   UNL     1      25.232  46.767  50.538  1.00  0.00     0.148 C 
HETATM    5  C   UNL     1      25.269  47.100  52.029  1.00  0.00     0.054 C 
HETATM    6  C   UNL     1      26.401  46.225  52.543  1.00  0.00     0.129 C 
HETATM    7  O   UNL     1      27.185  43.068  50.862  1.00  0.00    -0.267 OA
ENDROOT
BRANCH   1   8
HETATM    8  C   UNL     1      28.232  43.846  52.775  1.00  0.00     0.050 A 
HETATM    9  C   UNL     1      29.257  42.919  52.596  1.00  0.00     0.136 A 
HETATM   10  N   UNL     1      30.295  42.712  53.447  1.00  0.00    -0.240 NA
HETATM   11  C   UNL     1      30.230  43.501  54.536  1.00  0.00     0.155 A 
HETATM   12  N   UNL     1      31.122  43.531  55.566  1.00  0.00    -0.260 N 
HETATM   13  C   UNL     1      29.255  44.437  54.850  1.00  0.00     0.038 A 
HETATM   14  N   UNL     1      30.818  44.429  56.526  1.00  0.00    -0.177 NA
HETATM   15  H   UNL     1      31.956  42.966  55.662  1.00  0.00     0.191 HD
HETATM   16  C   UNL     1      29.672  44.979  56.095  1.00  0.00     0.065 A 
HETATM   17  C   UNL     1      29.009  46.042  56.888  1.00  0.00     0.073 C 
HETATM   18  C   UNL     1      28.193  44.608  53.947  1.00  0.00     0.036 A 
ENDBRANCH   1   8
BRANCH   4  19
HETATM   19  O   UNL     1      23.967  47.052  49.953  1.00  0.00    -0.344 OA
BRANCH  19  20
HETATM   20  C   UNL     1      23.798  48.271  49.358  1.00  0.00     0.070 A 
HETATM   21  C   UNL     1      22.595  48.969  49.244  1.00  0.00     0.060 A 
HETATM   22  C   UNL     1      22.567  50.203  48.591  1.00  0.00     0.036 A 
HETATM   23 CL   UNL     1      21.077  51.054  48.448  1.00  0.00    -0.084 Cl
HETATM   24  C   UNL     1      23.728  50.751  48.050  1.00  0.00     0.024 A 
HETATM   25  C   UNL     1      24.930  50.055  48.158  1.00  0.00     0.004 A 
HETATM   26  C   UNL     1      24.959  48.817  48.804  1.00  0.00     0.037 A 
ENDBRANCH  19  20
ENDBRANCH   4  19
TORSDOF 3
ENDMDL
MODEL 4
REMARK VINA RESULT:      -9.4      5.572      9.138
REMARK  3 active torsions:
REMARK  status: ('A' for Active; 'I' for Inactive)
REMARK    1  A    between atoms: C_10  and  C_11 
REMARK       I    between atoms: C_11  and  N_12 
REMARK    2  A    between atoms: C_14  and  O_15 
REMARK    3  A    between atoms: O_15  and  C_16 
ROOT
HETATM    1  C   UNL     1      27.076  43.315  50.323  1.00  0.00     0.255 C 
HETATM    2  N   UNL     1      27.229  43.405  51.695  1.00  0.00    -0.345 N 
HETATM    3  C   UNL     1      27.701  44.647  52.295  1.00  0.00     0.158 C 
HETATM    4  C   UNL     1      28.377  44.218  53.604  1.00  0.00     0.148 C 
HETATM    5  C   UNL     1      27.525  43.011  53.998  1.00  0.00     0.054 C 
HETATM    6  C   UNL     1      27.280  42.320  52.666  1.00  0.00     0.129 C 
HETATM    7  O   UNL     1      27.217  44.277  49.572  1.00  0.00    -0.267 OA
ENDROOT
BRANCH   1   8
HETATM    8  C   UNL     1      26.804  42.003  49.711  1.00  0.00     0.050 A 
HETATM    9  C   UNL     1      25.512  41.760  49.247  1.00  0.00     0.136 A 
HETATM   10  N   UNL     1      25.090  40.622  48.638  1.00  0.00    -0.240 NA
HETATM   11  C   UNL     1      26.068  39.701  48.538  1.00  0.00     0.155 A 
HETATM   12  N   UNL     1      25.959  38.464  47.977  1.00  0.00    -0.260 N 
HETATM   13  C   UNL     1      27.379  39.803  48.984  1.00  0.00     0.038 A 
HETATM   14  N   UNL     1      27.103  37.750  48.002  1.00  0.00    -0.177 NA
HETATM   15  H   UNL     1      25.131  38.060  47.558  1.00  0.00     0.191 HD
HETATM   16  C   UNL     1      27.971  38.562  48.625  1.00  0.00     0.065 A 
HETATM   17  C   UNL     1      29.373  38.132  48.843  1.00  0.00     0.073 C 
HETATM   18  C   UNL     1      27.767  40.993  49.619  1.00  0.00     0.036 A 
ENDBRANCH   1   8
BRANCH   4  19
HETATM   19  O   UNL     1      28.302  45.267  54.561  1.00  0.00    -0.344 OA
BRANCH  19  20
HETATM   20  C   UNL     1      29.121  45.194  55.654  1.00  0.00     0.070 A 
HETATM   21  C   UNL     1      30.230  44.360  55.795  1.00  0.00     0.060 A 
HETATM   22  C   UNL     1      30.967  44.378  56.981  1.00  0.00     0.036 A 
HETATM   23 CL   UNL     1      32.331  43.340  57.150  1.00  0.00    -0.084 Cl
HETATM   24  C   UNL     1      30.610  45.222  58.031  1.00  0.00     0.024 A 
HETATM   25  C   UNL     1      29.499  46.052  57.896  1.00  0.00     0.004 A 
HETATM   26  C   UNL     1      28.757  46.030  56.713  1.00  0.00     0.037 A 
ENDBRANCH  19  20
ENDBRANCH   4  19
TORSDOF 3
ENDMDL
MODEL 5
REMARK VINA RESULT:      -9.3      3.908      5.363
REMARK  3 active torsions:
REMARK  status: ('A' for Active; 'I' for Inactive)
REMARK    1  A    between atoms: C_10  and  C_11 
REMARK       I    between atoms: C_11  and  N_12 
REMARK    2  A    between atoms: C_14  and  O_15 
REMARK    3  A    between atoms: O_15  and  C_16 
ROOT
HETATM    1  C   UNL     1      25.684  44.113  51.959  1.00  0.00     0.255 C 
HETATM    2  N   UNL     1      25.903  45.262  51.221  1.00  0.00    -0.345 N 
HETATM    3  C   UNL     1      24.926  46.344  51.252  1.00  0.00     0.158 C 
HETATM    4  C   UNL     1      25.101  47.069  49.911  1.00  0.00     0.148 C 
HETATM    5  C   UNL     1      26.600  46.891  49.668  1.00  0.00     0.054 C 
HETATM    6  C   UNL     1      26.851  45.465  50.134  1.00  0.00     0.129 C 
HETATM    7  O   UNL     1      24.744  43.991  52.740  1.00  0.00    -0.267 OA
ENDROOT
BRANCH   1   8
HETATM    8  C   UNL     1      26.563  42.948  51.759  1.00  0.00     0.050 A 
HETATM    9  C   UNL     1      27.670  42.819  52.597  1.00  0.00     0.136 A 
HETATM   10  N   UNL     1      28.569  41.802  52.571  1.00  0.00    -0.240 NA
HETATM   11  C   UNL     1      28.297  40.902  51.607  1.00  0.00     0.155 A 
HETATM   12  N   UNL     1      29.010  39.773  51.330  1.00  0.00    -0.260 N 
HETATM   13  C   UNL     1      27.254  40.927  50.691  1.00  0.00     0.038 A 
HETATM   14  N   UNL     1      28.505  39.044  50.315  1.00  0.00    -0.177 NA
HETATM   15  H   UNL     1      29.843  39.452  51.806  1.00  0.00     0.191 HD
HETATM   16  C   UNL     1      27.436  39.750  49.916  1.00  0.00     0.065 A 
HETATM   17  C   UNL     1      26.590  39.261  48.801  1.00  0.00     0.073 C 
HETATM   18  C   UNL     1      26.356  42.005  50.747  1.00  0.00     0.036 A 
ENDBRANCH   1   8
BRANCH   4  19
HETATM   19  O   UNL     1      24.735  48.437  50.041  1.00  0.00    -0.344 OA
BRANCH  19  20
HETATM   20  C   UNL     1      23.729  48.908  49.243  1.00  0.00     0.070 A 
HETATM   21  C   UNL     1      22.668  48.160  48.733  1.00  0.00     0.060 A 
HETATM   22  C   UNL     1      21.719  48.773  47.911  1.00  0.00     0.036 A 
HETATM   23 CL   UNL     1      20.416  47.841  47.279  1.00  0.00    -0.084 Cl
HETATM   24  C   UNL     1      21.817  50.126  47.593  1.00  0.00     0.024 A 
HETATM   25  C   UNL     1      22.879  50.874  48.096  1.00  0.00     0.004 A 
HETATM   26  C   UNL     1      23.832  50.262  48.912  1.00  0.00     0.037 A 
ENDBRANCH  19  20
ENDBRANCH   4  19
TORSDOF 3
ENDMDL
MODEL 6
REMARK VINA RESULT:      -9.2      6.298      9.931
REMARK  3 active torsions:
REMARK  status: ('A' for Active; 'I' for Inactive)
REMARK    1  A    between atoms: C_10  and  C_11 
REMARK       I    between atoms: C_11  and  N_12 
REMARK    2  A    between atoms: C_14  and  O_15 
REMARK    3  A    between atoms: O_15  and  C_16 
ROOT
HETATM    1  C   UNL     1      21.123  48.698  48.825  1.00  0.00     0.255 C 
HETATM    2  N   UNL     1      20.292  49.716  49.256  1.00  0.00    -0.345 N 
HETATM    3  C   UNL     1      18.846  49.529  49.246  1.00  0.00     0.158 C 
HETATM    4  C   UNL     1      18.269  50.944  49.106  1.00  0.00     0.148 C 
HETATM    5  C   UNL     1      19.308  51.767  49.867  1.00  0.00     0.054 C 
HETATM    6  C   UNL     1      20.621  51.122  49.453  1.00  0.00     0.129 C 
HETATM    7  O   UNL     1      20.709  47.580  48.527  1.00  0.00    -0.267 OA
ENDROOT
BRANCH   1   8
HETATM    8  C   UNL     1      22.560  48.968  48.640  1.00  0.00     0.050 A 
HETATM    9  C   UNL     1      22.925  49.891  47.662  1.00  0.00     0.136 A 
HETATM   10  N   UNL     1      24.194  50.278  47.372  1.00  0.00    -0.240 NA
HETATM   11  C   UNL     1      25.109  49.645  48.131  1.00  0.00     0.155 A 
HETATM   12  N   UNL     1      26.459  49.818  48.081  1.00  0.00    -0.260 N 
HETATM   13  C   UNL     1      24.883  48.688  49.111  1.00  0.00     0.038 A 
HETATM   14  N   UNL     1      27.140  49.061  48.966  1.00  0.00    -0.177 NA
HETATM   15  H   UNL     1      26.968  50.441  47.467  1.00  0.00     0.191 HD
HETATM   16  C   UNL     1      26.180  48.363  49.592  1.00  0.00     0.065 A 
HETATM   17  C   UNL     1      26.533  47.404  50.667  1.00  0.00     0.073 C 
HETATM   18  C   UNL     1      23.556  48.310  49.368  1.00  0.00     0.036 A 
ENDBRANCH   1   8
BRANCH   4  19
HETATM   19  O   UNL     1      16.982  51.010  49.709  1.00  0.00    -0.344 OA
BRANCH  19  20
HETATM   20  C   UNL     1      16.182  52.073  49.391  1.00  0.00     0.070 A 
HETATM   21  C   UNL     1      15.834  53.121  50.243  1.00  0.00     0.060 A 
HETATM   22  C   UNL     1      14.988  54.135  49.787  1.00  0.00     0.036 A 
HETATM   23 CL   UNL     1      14.557  55.422  50.847  1.00  0.00    -0.084 Cl
HETATM   24  C   UNL     1      14.485  54.115  48.488  1.00  0.00     0.024 A 
HETATM   25  C   UNL     1      14.826  53.066  47.637  1.00  0.00     0.004 A 
HETATM   26  C   UNL     1      15.666  52.048  48.093  1.00  0.00     0.037 A 
ENDBRANCH  19  20
ENDBRANCH   4  19
TORSDOF 3
ENDMDL
MODEL 7
REMARK VINA RESULT:      -9.2      3.800      4.848
REMARK  3 active torsions:
REMARK  status: ('A' for Active; 'I' for Inactive)
REMARK    1  A    between atoms: C_10  and  C_11 
REMARK       I    between atoms: C_11  and  N_12 
REMARK    2  A    between atoms: C_14  and  O_15 
REMARK    3  A    between atoms: O_15  and  C_16 
ROOT
HETATM    1  C   UNL     1      24.886  44.631  51.347  1.00  0.00     0.255 C 
HETATM    2  N   UNL     1      25.364  45.799  50.781  1.00  0.00    -0.345 N 
HETATM    3  C   UNL     1      24.449  46.899  50.501  1.00  0.00     0.158 C 
HETATM    4  C   UNL     1      25.099  47.664  49.341  1.00  0.00     0.148 C 
HETATM    5  C   UNL     1      26.584  47.464  49.645  1.00  0.00     0.054 C 
HETATM    6  C   UNL     1      26.641  46.019  50.115  1.00  0.00     0.129 C 
HETATM    7  O   UNL     1      23.727  44.502  51.733  1.00  0.00    -0.267 OA
ENDROOT
BRANCH   1   8
HETATM    8  C   UNL     1      25.771  43.455  51.431  1.00  0.00     0.050 A 
HETATM    9  C   UNL     1      25.411  42.319  50.707  1.00  0.00     0.136 A 
HETATM   10  N   UNL     1      26.116  41.160  50.650  1.00  0.00    -0.240 NA
HETATM   11  C   UNL     1      27.231  41.200  51.404  1.00  0.00     0.155 A 
HETATM   12  N   UNL     1      28.143  40.199  51.551  1.00  0.00    -0.260 N 
HETATM   13  C   UNL     1      27.686  42.249  52.192  1.00  0.00     0.038 A 
HETATM   14  N   UNL     1      29.174  40.515  52.362  1.00  0.00    -0.177 NA
HETATM   15  H   UNL     1      28.114  39.285  51.118  1.00  0.00     0.191 HD
HETATM   16  C   UNL     1      28.894  41.764  52.761  1.00  0.00     0.065 A 
HETATM   17  C   UNL     1      29.816  42.482  53.675  1.00  0.00     0.073 C 
HETATM   18  C   UNL     1      26.917  43.424  52.231  1.00  0.00     0.036 A 
ENDBRANCH   1   8
BRANCH   4  19
HETATM   19  O   UNL     1      24.720  49.034  49.383  1.00  0.00    -0.344 OA
BRANCH  19  20
HETATM   20  C   UNL     1      23.484  49.370  48.903  1.00  0.00     0.070 A 
HETATM   21  C   UNL     1      22.597  48.515  48.249  1.00  0.00     0.060 A 
HETATM   22  C   UNL     1      21.370  49.003  47.794  1.00  0.00     0.036 A 
HETATM   23 CL   UNL     1      20.284  47.942  46.981  1.00  0.00    -0.084 Cl
HETATM   24  C   UNL     1      21.017  50.337  47.985  1.00  0.00     0.024 A 
HETATM   25  C   UNL     1      21.903  51.195  48.632  1.00  0.00     0.004 A 
HETATM   26  C   UNL     1      23.133  50.711  49.082  1.00  0.00     0.037 A 
ENDBRANCH  19  20
ENDBRANCH   4  19
TORSDOF 3
ENDMDL
MODEL 8
REMARK VINA RESULT:      -9.1      4.073      6.004
REMARK  3 active torsions:
REMARK  status: ('A' for Active; 'I' for Inactive)
REMARK    1  A    between atoms: C_10  and  C_11 
REMARK       I    between atoms: C_11  and  N_12 
REMARK    2  A    between atoms: C_14  and  O_15 
REMARK    3  A    between atoms: O_15  and  C_16 
ROOT
HETATM    1  C   UNL     1      25.862  47.918  49.788  1.00  0.00     0.255 C 
HETATM    2  N   UNL     1      24.627  48.066  49.181  1.00  0.00    -0.345 N 
HETATM    3  C   UNL     1      24.168  49.390  48.779  1.00  0.00     0.158 C 
HETATM    4  C   UNL     1      22.637  49.299  48.806  1.00  0.00     0.148 C 
HETATM    5  C   UNL     1      22.417  47.842  48.398  1.00  0.00     0.054 C 
HETATM    6  C   UNL     1      23.527  47.112  49.139  1.00  0.00     0.129 C 
HETATM    7  O   UNL     1      26.658  48.845  49.914  1.00  0.00    -0.267 OA
ENDROOT
BRANCH   1   8
HETATM    8  C   UNL     1      26.225  46.618  50.377  1.00  0.00     0.050 A 
HETATM    9  C   UNL     1      26.980  45.741  49.600  1.00  0.00     0.136 A 
HETATM   10  N   UNL     1      27.423  44.518  49.988  1.00  0.00    -0.240 NA
HETATM   11  C   UNL     1      27.031  44.204  51.237  1.00  0.00     0.155 A 
HETATM   12  N   UNL     1      27.316  43.053  51.909  1.00  0.00    -0.260 N 
HETATM   13  C   UNL     1      26.257  44.966  52.101  1.00  0.00     0.038 A 
HETATM   14  N   UNL     1      26.804  43.006  53.156  1.00  0.00    -0.177 NA
HETATM   15  H   UNL     1      27.859  42.270  51.566  1.00  0.00     0.191 HD
HETATM   16  C   UNL     1      26.149  44.171  53.274  1.00  0.00     0.065 A 
HETATM   17  C   UNL     1      25.445  44.508  54.535  1.00  0.00     0.073 C 
HETATM   18  C   UNL     1      25.811  46.220  51.652  1.00  0.00     0.036 A 
ENDBRANCH   1   8
BRANCH   4  19
HETATM   19  O   UNL     1      22.074  50.211  47.871  1.00  0.00    -0.344 OA
BRANCH  19  20
HETATM   20  C   UNL     1      20.832  50.715  48.138  1.00  0.00     0.070 A 
HETATM   21  C   UNL     1      19.782  50.836  47.227  1.00  0.00     0.060 A 
HETATM   22  C   UNL     1      18.567  51.390  47.637  1.00  0.00     0.036 A 
HETATM   23 CL   UNL     1      17.278  51.542  46.505  1.00  0.00    -0.084 Cl
HETATM   24  C   UNL     1      18.386  51.824  48.948  1.00  0.00     0.024 A 
HETATM   25  C   UNL     1      19.435  51.710  49.859  1.00  0.00     0.004 A 
HETATM   26  C   UNL     1      20.653  51.164  49.449  1.00  0.00     0.037 A 
ENDBRANCH  19  20
ENDBRANCH   4  19
TORSDOF 3
ENDMDL
MODEL 9
REMARK VINA RESULT:      -8.9      4.324      9.250
REMARK  3 active torsions:
REMARK  status: ('A' for Active; 'I' for Inactive)
REMARK    1  A    between atoms: C_10  and  C_11 
REMARK       I    between atoms: C_11  and  N_12 
REMARK    2  A    between atoms: C_14  and  O_15 
REMARK    3  A    between atoms: O_15  and  C_16 
ROOT
HETATM    1  C   UNL     1      25.542  43.968  52.733  1.00  0.00     0.255 C 
HETATM    2  N   UNL     1      26.875  43.599  52.691  1.00  0.00    -0.345 N 
HETATM    3  C   UNL     1      27.650  43.533  53.924  1.00  0.00     0.158 C 
HETATM    4  C   UNL     1      29.101  43.779  53.489  1.00  0.00     0.148 C 
HETATM    5  C   UNL     1      29.108  43.140  52.100  1.00  0.00     0.054 C 
HETATM    6  C   UNL     1      27.757  43.546  51.533  1.00  0.00     0.129 C 
HETATM    7  O   UNL     1      24.931  44.144  53.784  1.00  0.00    -0.267 OA
ENDROOT
BRANCH   1   8
HETATM    8  C   UNL     1      24.828  44.235  51.472  1.00  0.00     0.050 A 
HETATM    9  C   UNL     1      24.666  45.565  51.088  1.00  0.00     0.136 A 
HETATM   10  N   UNL     1      24.057  45.994  49.952  1.00  0.00    -0.240 NA
HETATM   11  C   UNL     1      23.585  44.975  49.209  1.00  0.00     0.155 A 
HETATM   12  N   UNL     1      22.931  45.080  48.018  1.00  0.00    -0.260 N 
HETATM   13  C   UNL     1      23.650  43.617  49.489  1.00  0.00     0.038 A 
HETATM   14  N   UNL     1      22.576  43.893  47.483  1.00  0.00    -0.177 NA
HETATM   15  H   UNL     1      22.705  45.934  47.524  1.00  0.00     0.191 HD
HETATM   16  C   UNL     1      23.008  42.997  48.384  1.00  0.00     0.065 A 
HETATM   17  C   UNL     1      22.811  41.546  48.148  1.00  0.00     0.073 C 
HETATM   18  C   UNL     1      24.278  43.222  50.681  1.00  0.00     0.036 A 
ENDBRANCH   1   8
BRANCH   4  19
HETATM   19  O   UNL     1      29.998  43.133  54.384  1.00  0.00    -0.344 OA
BRANCH  19  20
HETATM   20  C   UNL     1      30.256  43.744  55.580  1.00  0.00     0.070 A 
HETATM   21  C   UNL     1      29.550  44.818  56.123  1.00  0.00     0.060 A 
HETATM   22  C   UNL     1      29.941  45.356  57.352  1.00  0.00     0.036 A 
HETATM   23 CL   UNL     1      29.068  46.686  58.012  1.00  0.00    -0.084 Cl
HETATM   24  C   UNL     1      31.029  44.833  58.047  1.00  0.00     0.024 A 
HETATM   25  C   UNL     1      31.740  43.765  57.504  1.00  0.00     0.004 A 
HETATM   26  C   UNL     1      31.356  43.230  56.273  1.00  0.00     0.037 A 
ENDBRANCH  19  20
ENDBRANCH   4  19
TORSDOF 3
ENDMDL
MODEL 10
REMARK VINA RESULT:      -8.9      2.919      4.221
REMARK  3 active torsions:
REMARK  status: ('A' for Active; 'I' for Inactive)
REMARK    1  A    between atoms: C_10  and  C_11 
REMARK       I    between atoms: C_11  and  N_12 
REMARK    2  A    between atoms: C_14  and  O_15 
REMARK    3  A    between atoms: O_15  and  C_16 
ROOT
HETATM    1  C   UNL     1      25.404  45.403  51.772  1.00  0.00     0.255 C 
HETATM    2  N   UNL     1      25.615  46.550  51.028  1.00  0.00    -0.345 N 
HETATM    3  C   UNL     1      24.488  47.408  50.681  1.00  0.00     0.158 C 
HETATM    4  C   UNL     1      24.917  48.113  49.387  1.00  0.00     0.148 C 
HETATM    5  C   UNL     1      26.425  48.240  49.602  1.00  0.00     0.054 C 
HETATM    6  C   UNL     1      26.789  46.911  50.245  1.00  0.00     0.129 C 
HETATM    7  O   UNL     1      24.314  45.113  52.258  1.00  0.00    -0.267 OA
ENDROOT
BRANCH   1   8
HETATM    8  C   UNL     1      26.506  44.438  51.937  1.00  0.00     0.050 A 
HETATM    9  C   UNL     1      26.605  43.402  51.009  1.00  0.00     0.136 A 
HETATM   10  N   UNL     1      27.565  42.441  50.994  1.00  0.00    -0.240 NA
HETATM   11  C   UNL     1      28.437  42.572  52.012  1.00  0.00     0.155 A 
HETATM   12  N   UNL     1      29.509  41.769  52.266  1.00  0.00    -0.260 N 
HETATM   13  C   UNL     1      28.434  43.532  53.014  1.00  0.00     0.038 A 
HETATM   14  N   UNL     1      30.223  42.138  53.349  1.00  0.00    -0.177 NA
HETATM   15  H   UNL     1      29.801  40.961  51.730  1.00  0.00     0.191 HD
HETATM   16  C   UNL     1      29.564  43.210  53.814  1.00  0.00     0.065 A 
HETATM   17  C   UNL     1      30.054  43.925  55.017  1.00  0.00     0.073 C 
HETATM   18  C   UNL     1      27.415  44.498  52.997  1.00  0.00     0.036 A 
ENDBRANCH   1   8
BRANCH   4  19
HETATM   19  O   UNL     1      24.279  49.380  49.284  1.00  0.00    -0.344 OA
BRANCH  19  20
HETATM   20  C   UNL     1      22.939  49.400  49.009  1.00  0.00     0.070 A 
HETATM   21  C   UNL     1      21.971  50.132  49.697  1.00  0.00     0.060 A 
HETATM   22  C   UNL     1      20.631  50.040  49.315  1.00  0.00     0.036 A 
HETATM   23 CL   UNL     1      19.440  50.941  50.173  1.00  0.00    -0.084 Cl
HETATM   24  C   UNL     1      20.244  49.227  48.252  1.00  0.00     0.024 A 
HETATM   25  C   UNL     1      21.208  48.490  47.567  1.00  0.00     0.004 A 
HETATM   26  C   UNL     1      22.548  48.574  47.951  1.00  0.00     0.037 A 
ENDBRANCH  19  20
ENDBRANCH   4  19
TORSDOF 3
ENDMDL
