MODEL 1
REMARK VINA RESULT:      -9.8      0.000      0.000
REMARK  10 active torsions:
REMARK  status: ('A' for Active; 'I' for Inactive)
REMARK    1  A    between atoms: C_2  and  O_3 
REMARK    2  A    between atoms: O_3  and  C_4 
REMARK    3  A    between atoms: C_4  and  C_5 
REMARK    4  A    between atoms: C_7  and  N_8 
REMARK    5  A    between atoms: N_8  and  C_9 
REMARK    6  A    between atoms: C_9  and  N_10 
REMARK       I    between atoms: N_10  and  C_11 
REMARK    7  A    between atoms: C_11  and  C_12 
REMARK    8  A    between atoms: C_21  and  N_22 
REMARK    9  A    between atoms: N_25  and  C_27 
REMARK   10  A    between atoms: C_27  and  C_28 
ROOT
HETATM    1  C   UNL     1      23.178  43.622  49.074  1.00  0.00     0.041 A 
HETATM    2  C   UNL     1      23.640  44.926  49.297  1.00  0.00     0.049 A 
HETATM    3  C   UNL     1      24.448  45.217  50.405  1.00  0.00     0.062 A 
HETATM    4  C   UNL     1      24.854  44.180  51.283  1.00  0.00     0.057 A 
HETATM    5  C   UNL     1      24.377  42.881  51.037  1.00  0.00     0.033 A 
HETATM    6  C   UNL     1      23.546  42.601  49.951  1.00  0.00     0.020 A 
ENDROOT
BRANCH   3   7
HETATM    7  N   UNL     1      24.723  46.558  50.785  1.00  0.00    -0.331 N 
HETATM    8  H   UNL     1      24.705  46.683  51.789  1.00  0.00     0.168 HD
BRANCH   7   9
HETATM    9  C   UNL     1      24.500  47.687  50.070  1.00  0.00     0.179 C 
HETATM   10  S   UNL     1      25.764  48.386  49.232  1.00  0.00    -0.040 SA
BRANCH   9  11
HETATM   11  N   UNL     1      23.254  48.227  49.971  1.00  0.00    -0.299 N 
HETATM   12  C   UNL     1      22.527  48.388  48.791  1.00  0.00     0.258 C 
HETATM   13  O   UNL     1      22.758  47.813  47.733  1.00  0.00    -0.267 OA
HETATM   14  H   UNL     1      23.049  48.882  50.713  1.00  0.00     0.171 HD
BRANCH  12  15
HETATM   15  C   UNL     1      21.404  49.375  48.878  1.00  0.00     0.038 A 
HETATM   16  C   UNL     1      21.597  50.735  48.559  1.00  0.00    -0.046 A 
HETATM   17  C   UNL     1      22.928  51.282  48.121  1.00  0.00     0.049 C 
HETATM   18  C   UNL     1      20.511  51.620  48.678  1.00  0.00     0.007 A 
HETATM   19  C   UNL     1      19.259  51.170  49.097  1.00  0.00     0.001 A 
HETATM   20  C   UNL     1      19.074  49.832  49.424  1.00  0.00     0.001 A 
HETATM   21  C   UNL     1      20.142  48.939  49.327  1.00  0.00     0.017 A 
ENDBRANCH  12  15
ENDBRANCH   9  11
ENDBRANCH   7   9
ENDBRANCH   3   7
BRANCH   4  22
HETATM   22  N   UNL     1      25.747  44.358  52.335  1.00  0.00    -0.376 N 
HETATM   23  C   UNL     1      25.249  44.721  53.669  1.00  0.00     0.150 C 
HETATM   24  C   UNL     1      26.255  45.670  54.354  1.00  0.00     0.255 C 
HETATM   25  N   UNL     1      27.666  45.063  54.344  1.00  0.00    -0.064 N 
HETATM   26  H   UNL     1      27.610  44.189  54.879  1.00  0.00     0.280 HD
HETATM   27  C   UNL     1      28.105  44.710  52.923  1.00  0.00     0.255 C 
HETATM   28  C   UNL     1      27.086  43.775  52.242  1.00  0.00     0.150 C 
BRANCH  25  29
HETATM   29  C   UNL     1      28.679  45.942  55.032  1.00  0.00     0.273 C 
BRANCH  29  30
HETATM   30  C   UNL     1      29.652  45.163  55.873  1.00  0.00    -0.033 A 
HETATM   31  C   UNL     1      30.201  43.963  55.394  1.00  0.00     0.009 A 
HETATM   32  C   UNL     1      31.086  43.227  56.184  1.00  0.00     0.001 A 
HETATM   33  C   UNL     1      31.430  43.681  57.455  1.00  0.00     0.000 A 
HETATM   34  C   UNL     1      30.895  44.872  57.938  1.00  0.00     0.001 A 
HETATM   35  C   UNL     1      30.010  45.612  57.153  1.00  0.00     0.009 A 
ENDBRANCH  29  30
ENDBRANCH  25  29
ENDBRANCH   4  22
BRANCH   1  36
HETATM   36  C   UNL     1      22.269  43.384  47.922  1.00  0.00     0.293 C 
HETATM   37  O   UNL     1      21.878  42.276  47.595  1.00  0.00    -0.259 OA
BRANCH  36  38
HETATM   38  O   UNL     1      22.007  44.554  47.291  1.00  0.00    -0.318 OA
BRANCH  38  39
HETATM   39  C   UNL     1      20.619  44.860  47.079  1.00  0.00     0.174 C 
HETATM   40  C   UNL     1      19.972  45.246  48.394  1.00  0.00     0.034 C 
ENDBRANCH  38  39
ENDBRANCH  36  38
ENDBRANCH   1  36
TORSDOF 10
ENDMDL
MODEL 2
REMARK VINA RESULT:      -9.6      3.151      9.656
REMARK  10 active torsions:
REMARK  status: ('A' for Active; 'I' for Inactive)
REMARK    1  A    between atoms: C_2  and  O_3 
REMARK    2  A    between atoms: O_3  and  C_4 
REMARK    3  A    between atoms: C_4  and  C_5 
REMARK    4  A    between atoms: C_7  and  N_8 
REMARK    5  A    between atoms: N_8  and  C_9 
REMARK    6  A    between atoms: C_9  and  N_10 
REMARK       I    between atoms: N_10  and  C_11 
REMARK    7  A    between atoms: C_11  and  C_12 
REMARK    8  A    between atoms: C_21  and  N_22 
REMARK    9  A    between atoms: N_25  and  C_27 
REMARK   10  A    between atoms: C_27  and  C_28 
ROOT
HETATM    1  C   UNL     1      27.146  42.020  50.655  1.00  0.00     0.041 A 
HETATM    2  C   UNL     1      27.099  42.846  51.786  1.00  0.00     0.049 A 
HETATM    3  C   UNL     1      26.692  44.183  51.677  1.00  0.00     0.062 A 
HETATM    4  C   UNL     1      26.267  44.699  50.426  1.00  0.00     0.057 A 
HETATM    5  C   UNL     1      26.325  43.850  49.307  1.00  0.00     0.033 A 
HETATM    6  C   UNL     1      26.762  42.529  49.413  1.00  0.00     0.020 A 
ENDROOT
BRANCH   3   7
HETATM    7  N   UNL     1      26.868  45.097  52.750  1.00  0.00    -0.331 N 
HETATM    8  H   UNL     1      27.651  45.719  52.599  1.00  0.00     0.168 HD
BRANCH   7   9
HETATM    9  C   UNL     1      26.519  44.931  54.048  1.00  0.00     0.179 C 
HETATM   10  S   UNL     1      24.904  44.789  54.449  1.00  0.00    -0.040 SA
BRANCH   9  11
HETATM   11  N   UNL     1      27.461  44.815  55.025  1.00  0.00    -0.299 N 
HETATM   12  C   UNL     1      28.578  45.635  55.182  1.00  0.00     0.258 C 
HETATM   13  O   UNL     1      28.725  46.738  54.668  1.00  0.00    -0.267 OA
HETATM   14  H   UNL     1      27.548  43.872  55.377  1.00  0.00     0.171 HD
BRANCH  12  15
HETATM   15  C   UNL     1      29.664  45.057  56.037  1.00  0.00     0.038 A 
HETATM   16  C   UNL     1      30.417  43.944  55.611  1.00  0.00    -0.046 A 
HETATM   17  C   UNL     1      30.180  43.265  54.290  1.00  0.00     0.049 C 
HETATM   18  C   UNL     1      31.409  43.430  56.464  1.00  0.00     0.007 A 
HETATM   19  C   UNL     1      31.658  44.009  57.709  1.00  0.00     0.001 A 
HETATM   20  C   UNL     1      30.906  45.099  58.132  1.00  0.00     0.001 A 
HETATM   21  C   UNL     1      29.905  45.614  57.308  1.00  0.00     0.017 A 
ENDBRANCH  12  15
ENDBRANCH   9  11
ENDBRANCH   7   9
ENDBRANCH   3   7
BRANCH   4  22
HETATM   22  N   UNL     1      25.738  45.974  50.251  1.00  0.00    -0.376 N 
HETATM   23  C   UNL     1      24.281  46.169  50.238  1.00  0.00     0.150 C 
HETATM   24  C   UNL     1      23.921  47.285  49.234  1.00  0.00     0.255 C 
HETATM   25  N   UNL     1      24.732  48.557  49.521  1.00  0.00    -0.064 N 
HETATM   26  H   UNL     1      24.474  48.859  50.467  1.00  0.00     0.280 HD
HETATM   27  C   UNL     1      26.232  48.266  49.521  1.00  0.00     0.255 C 
HETATM   28  C   UNL     1      26.580  47.140  50.516  1.00  0.00     0.150 C 
BRANCH  25  29
HETATM   29  C   UNL     1      24.390  49.686  48.583  1.00  0.00     0.273 C 
BRANCH  29  30
HETATM   30  C   UNL     1      22.963  50.139  48.713  1.00  0.00    -0.033 A 
HETATM   31  C   UNL     1      22.113  50.136  47.594  1.00  0.00     0.009 A 
HETATM   32  C   UNL     1      20.795  50.578  47.708  1.00  0.00     0.001 A 
HETATM   33  C   UNL     1      20.313  51.027  48.935  1.00  0.00     0.000 A 
HETATM   34  C   UNL     1      21.144  51.031  50.052  1.00  0.00     0.001 A 
HETATM   35  C   UNL     1      22.464  50.589  49.944  1.00  0.00     0.009 A 
ENDBRANCH  29  30
ENDBRANCH  25  29
ENDBRANCH   4  22
BRANCH   1  36
HETATM   36  C   UNL     1      27.651  40.631  50.817  1.00  0.00     0.293 C 
HETATM   37  O   UNL     1      28.627  40.348  51.491  1.00  0.00    -0.259 OA
BRANCH  36  38
HETATM   38  O   UNL     1      26.906  39.779  50.072  1.00  0.00    -0.318 OA
BRANCH  38  39
HETATM   39  C   UNL     1      27.632  38.762  49.363  1.00  0.00     0.174 C 
HETATM   40  C   UNL     1      28.377  39.381  48.196  1.00  0.00     0.034 C 
ENDBRANCH  38  39
ENDBRANCH  36  38
ENDBRANCH   1  36
TORSDOF 10
ENDMDL
MODEL 3
REMARK VINA RESULT:      -9.4      2.064      4.216
REMARK  10 active torsions:
REMARK  status: ('A' for Active; 'I' for Inactive)
REMARK    1  A    between atoms: C_2  and  O_3 
REMARK    2  A    between atoms: O_3  and  C_4 
REMARK    3  A    between atoms: C_4  and  C_5 
REMARK    4  A    between atoms: C_7  and  N_8 
REMARK    5  A    between atoms: N_8  and  C_9 
REMARK    6  A    between atoms: C_9  and  N_10 
REMARK       I    between atoms: N_10  and  C_11 
REMARK    7  A    between atoms: C_11  and  C_12 
REMARK    8  A    between atoms: C_21  and  N_22 
REMARK    9  A    between atoms: N_25  and  C_27 
REMARK   10  A    between atoms: C_27  and  C_28 
ROOT
HETATM    1  C   UNL     1      25.069  48.639  49.118  1.00  0.00     0.041 A 
HETATM    2  C   UNL     1      24.065  47.694  49.368  1.00  0.00     0.049 A 
HETATM    3  C   UNL     1      24.370  46.480  49.999  1.00  0.00     0.062 A 
HETATM    4  C   UNL     1      25.691  46.220  50.444  1.00  0.00     0.057 A 
HETATM    5  C   UNL     1      26.679  47.183  50.181  1.00  0.00     0.033 A 
HETATM    6  C   UNL     1      26.379  48.377  49.523  1.00  0.00     0.020 A 
ENDROOT
BRANCH   3   7
HETATM    7  N   UNL     1      23.430  45.416  50.043  1.00  0.00    -0.331 N 
HETATM    8  H   UNL     1      23.628  44.759  50.786  1.00  0.00     0.168 HD
BRANCH   7   9
HETATM    9  C   UNL     1      22.702  44.908  49.020  1.00  0.00     0.179 C 
HETATM   10  S   UNL     1      23.419  43.834  47.960  1.00  0.00    -0.040 SA
BRANCH   9  11
HETATM   11  N   UNL     1      21.380  45.205  48.875  1.00  0.00    -0.299 N 
HETATM   12  C   UNL     1      20.853  46.191  48.040  1.00  0.00     0.258 C 
HETATM   13  O   UNL     1      21.448  46.724  47.111  1.00  0.00    -0.267 OA
HETATM   14  H   UNL     1      20.834  44.975  49.693  1.00  0.00     0.171 HD
BRANCH  12  15
HETATM   15  C   UNL     1      19.454  46.609  48.373  1.00  0.00     0.038 A 
HETATM   16  C   UNL     1      18.340  45.944  47.824  1.00  0.00    -0.046 A 
HETATM   17  C   UNL     1      18.477  44.787  46.872  1.00  0.00     0.049 C 
HETATM   18  C   UNL     1      17.050  46.394  48.155  1.00  0.00     0.007 A 
HETATM   19  C   UNL     1      16.864  47.474  49.018  1.00  0.00     0.001 A 
HETATM   20  C   UNL     1      17.965  48.138  49.549  1.00  0.00     0.001 A 
HETATM   21  C   UNL     1      19.254  47.717  49.220  1.00  0.00     0.017 A 
ENDBRANCH  12  15
ENDBRANCH   9  11
ENDBRANCH   7   9
ENDBRANCH   3   7
BRANCH   4  22
HETATM   22  N   UNL     1      26.055  45.097  51.181  1.00  0.00    -0.376 N 
HETATM   23  C   UNL     1      25.151  44.570  52.214  1.00  0.00     0.150 C 
HETATM   24  C   UNL     1      25.982  44.020  53.393  1.00  0.00     0.255 C 
HETATM   25  N   UNL     1      27.034  43.018  52.895  1.00  0.00    -0.064 N 
HETATM   26  H   UNL     1      26.517  42.247  52.459  1.00  0.00     0.280 HD
HETATM   27  C   UNL     1      27.927  43.642  51.823  1.00  0.00     0.255 C 
HETATM   28  C   UNL     1      27.087  44.202  50.658  1.00  0.00     0.150 C 
BRANCH  25  29
HETATM   29  C   UNL     1      27.850  42.430  54.018  1.00  0.00     0.273 C 
BRANCH  29  30
HETATM   30  C   UNL     1      28.734  43.443  54.689  1.00  0.00    -0.033 A 
HETATM   31  C   UNL     1      30.068  43.129  54.995  1.00  0.00     0.009 A 
HETATM   32  C   UNL     1      30.883  44.060  55.639  1.00  0.00     0.001 A 
HETATM   33  C   UNL     1      30.377  45.310  55.984  1.00  0.00     0.000 A 
HETATM   34  C   UNL     1      29.056  45.635  55.682  1.00  0.00     0.001 A 
HETATM   35  C   UNL     1      28.237  44.708  55.038  1.00  0.00     0.009 A 
ENDBRANCH  29  30
ENDBRANCH  25  29
ENDBRANCH   4  22
BRANCH   1  36
HETATM   36  C   UNL     1      24.702  49.880  48.385  1.00  0.00     0.293 C 
HETATM   37  O   UNL     1      25.164  50.174  47.295  1.00  0.00    -0.259 OA
BRANCH  36  38
HETATM   38  O   UNL     1      23.849  50.622  49.130  1.00  0.00    -0.318 OA
BRANCH  38  39
HETATM   39  C   UNL     1      22.756  51.228  48.421  1.00  0.00     0.174 C 
HETATM   40  C   UNL     1      21.825  50.153  47.896  1.00  0.00     0.034 C 
ENDBRANCH  38  39
ENDBRANCH  36  38
ENDBRANCH   1  36
TORSDOF 10
ENDMDL
MODEL 4
REMARK VINA RESULT:      -9.3      4.897      8.432
REMARK  10 active torsions:
REMARK  status: ('A' for Active; 'I' for Inactive)
REMARK    1  A    between atoms: C_2  and  O_3 
REMARK    2  A    between atoms: O_3  and  C_4 
REMARK    3  A    between atoms: C_4  and  C_5 
REMARK    4  A    between atoms: C_7  and  N_8 
REMARK    5  A    between atoms: N_8  and  C_9 
REMARK    6  A    between atoms: C_9  and  N_10 
REMARK       I    between atoms: N_10  and  C_11 
REMARK    7  A    between atoms: C_11  and  C_12 
REMARK    8  A    between atoms: C_21  and  N_22 
REMARK    9  A    between atoms: N_25  and  C_27 
REMARK   10  A    between atoms: C_27  and  C_28 
ROOT
HETATM    1  C   UNL     1      28.740  43.712  54.078  1.00  0.00     0.041 A 
HETATM    2  C   UNL     1      28.033  44.243  52.991  1.00  0.00     0.049 A 
HETATM    3  C   UNL     1      27.703  43.437  51.892  1.00  0.00     0.062 A 
HETATM    4  C   UNL     1      28.031  42.058  51.896  1.00  0.00     0.057 A 
HETATM    5  C   UNL     1      28.741  41.550  52.998  1.00  0.00     0.033 A 
HETATM    6  C   UNL     1      29.097  42.363  54.075  1.00  0.00     0.020 A 
ENDROOT
BRANCH   3   7
HETATM    7  N   UNL     1      27.208  44.001  50.686  1.00  0.00    -0.331 N 
HETATM    8  H   UNL     1      27.953  44.268  50.055  1.00  0.00     0.168 HD
BRANCH   7   9
HETATM    9  C   UNL     1      26.040  44.660  50.493  1.00  0.00     0.179 C 
HETATM   10  S   UNL     1      24.630  44.023  51.123  1.00  0.00    -0.040 SA
BRANCH   9  11
HETATM   11  N   UNL     1      26.001  45.860  49.852  1.00  0.00    -0.299 N 
HETATM   12  C   UNL     1      25.830  47.104  50.460  1.00  0.00     0.258 C 
HETATM   13  O   UNL     1      25.985  47.336  51.654  1.00  0.00    -0.267 OA
HETATM   14  H   UNL     1      25.685  45.785  48.895  1.00  0.00     0.171 HD
BRANCH  12  15
HETATM   15  C   UNL     1      25.395  48.198  49.535  1.00  0.00     0.038 A 
HETATM   16  C   UNL     1      26.333  49.045  48.909  1.00  0.00    -0.046 A 
HETATM   17  C   UNL     1      27.814  48.914  49.130  1.00  0.00     0.049 C 
HETATM   18  C   UNL     1      25.865  50.069  48.066  1.00  0.00     0.007 A 
HETATM   19  C   UNL     1      24.500  50.247  47.840  1.00  0.00     0.001 A 
HETATM   20  C   UNL     1      23.577  49.419  48.468  1.00  0.00     0.001 A 
HETATM   21  C   UNL     1      24.019  48.408  49.321  1.00  0.00     0.017 A 
ENDBRANCH  12  15
ENDBRANCH   9  11
ENDBRANCH   7   9
ENDBRANCH   3   7
BRANCH   4  22
HETATM   22  N   UNL     1      27.639  41.163  50.905  1.00  0.00    -0.376 N 
HETATM   23  C   UNL     1      28.649  40.367  50.192  1.00  0.00     0.150 C 
HETATM   24  C   UNL     1      28.216  40.186  48.721  1.00  0.00     0.255 C 
HETATM   25  N   UNL     1      26.788  39.626  48.640  1.00  0.00    -0.064 N 
HETATM   26  H   UNL     1      26.810  38.708  49.100  1.00  0.00     0.280 HD
HETATM   27  C   UNL     1      25.805  40.506  49.410  1.00  0.00     0.255 C 
HETATM   28  C   UNL     1      26.254  40.694  50.873  1.00  0.00     0.150 C 
BRANCH  25  29
HETATM   29  C   UNL     1      26.334  39.402  47.221  1.00  0.00     0.273 C 
BRANCH  29  30
HETATM   30  C   UNL     1      27.297  38.567  46.424  1.00  0.00    -0.033 A 
HETATM   31  C   UNL     1      27.839  39.058  45.225  1.00  0.00     0.009 A 
HETATM   32  C   UNL     1      28.715  38.274  44.474  1.00  0.00     0.001 A 
HETATM   33  C   UNL     1      29.057  36.996  44.909  1.00  0.00     0.000 A 
HETATM   34  C   UNL     1      28.530  36.501  46.099  1.00  0.00     0.001 A 
HETATM   35  C   UNL     1      27.654  37.280  46.855  1.00  0.00     0.009 A 
ENDBRANCH  29  30
ENDBRANCH  25  29
ENDBRANCH   4  22
BRANCH   1  36
HETATM   36  C   UNL     1      29.124  44.629  55.184  1.00  0.00     0.293 C 
HETATM   37  O   UNL     1      28.352  45.426  55.691  1.00  0.00    -0.259 OA
BRANCH  36  38
HETATM   38  O   UNL     1      30.437  44.473  55.479  1.00  0.00    -0.318 OA
BRANCH  38  39
HETATM   39  C   UNL     1      30.774  44.473  56.876  1.00  0.00     0.174 C 
HETATM   40  C   UNL     1      31.805  43.398  57.156  1.00  0.00     0.034 C 
ENDBRANCH  38  39
ENDBRANCH  36  38
ENDBRANCH   1  36
TORSDOF 10
ENDMDL
MODEL 5
REMARK VINA RESULT:      -9.1      3.002      9.616
REMARK  10 active torsions:
REMARK  status: ('A' for Active; 'I' for Inactive)
REMARK    1  A    between atoms: C_2  and  O_3 
REMARK    2  A    between atoms: O_3  and  C_4 
REMARK    3  A    between atoms: C_4  and  C_5 
REMARK    4  A    between atoms: C_7  and  N_8 
REMARK    5  A    between atoms: N_8  and  C_9 
REMARK    6  A    between atoms: C_9  and  N_10 
REMARK       I    between atoms: N_10  and  C_11 
REMARK    7  A    between atoms: C_11  and  C_12 
REMARK    8  A    between atoms: C_21  and  N_22 
REMARK    9  A    between atoms: N_25  and  C_27 
REMARK   10  A    between atoms: C_27  and  C_28 
ROOT
HETATM    1  C   UNL     1      26.130  41.615  49.970  1.00  0.00     0.041 A 
HETATM    2  C   UNL     1      25.862  42.435  51.074  1.00  0.00     0.049 A 
HETATM    3  C   UNL     1      25.004  43.537  50.952  1.00  0.00     0.062 A 
HETATM    4  C   UNL     1      24.352  43.800  49.721  1.00  0.00     0.057 A 
HETATM    5  C   UNL     1      24.639  42.964  48.629  1.00  0.00     0.033 A 
HETATM    6  C   UNL     1      25.518  41.886  48.745  1.00  0.00     0.020 A 
ENDROOT
BRANCH   3   7
HETATM    7  N   UNL     1      24.909  44.514  51.979  1.00  0.00    -0.331 N 
HETATM    8  H   UNL     1      23.964  44.854  52.099  1.00  0.00     0.168 HD
BRANCH   7   9
HETATM    9  C   UNL     1      25.874  45.362  52.412  1.00  0.00     0.179 C 
HETATM   10  S   UNL     1      25.613  47.010  52.323  1.00  0.00    -0.040 SA
BRANCH   9  11
HETATM   11  N   UNL     1      27.024  44.898  52.975  1.00  0.00    -0.299 N 
HETATM   12  C   UNL     1      27.124  44.247  54.204  1.00  0.00     0.258 C 
HETATM   13  O   UNL     1      26.191  43.735  54.814  1.00  0.00    -0.267 OA
HETATM   14  H   UNL     1      27.843  45.407  52.672  1.00  0.00     0.171 HD
BRANCH  12  15
HETATM   15  C   UNL     1      28.503  44.226  54.790  1.00  0.00     0.038 A 
HETATM   16  C   UNL     1      29.381  43.149  54.559  1.00  0.00    -0.046 A 
HETATM   17  C   UNL     1      28.998  41.957  53.725  1.00  0.00     0.049 C 
HETATM   18  C   UNL     1      30.656  43.174  55.152  1.00  0.00     0.007 A 
HETATM   19  C   UNL     1      31.057  44.245  55.951  1.00  0.00     0.001 A 
HETATM   20  C   UNL     1      30.184  45.301  56.188  1.00  0.00     0.001 A 
HETATM   21  C   UNL     1      28.909  45.288  55.622  1.00  0.00     0.017 A 
ENDBRANCH  12  15
ENDBRANCH   9  11
ENDBRANCH   7   9
ENDBRANCH   3   7
BRANCH   4  22
HETATM   22  N   UNL     1      23.398  44.798  49.545  1.00  0.00    -0.376 N 
HETATM   23  C   UNL     1      21.972  44.490  49.719  1.00  0.00     0.150 C 
HETATM   24  C   UNL     1      21.141  45.311  48.710  1.00  0.00     0.255 C 
HETATM   25  N   UNL     1      21.488  46.804  48.808  1.00  0.00    -0.064 N 
HETATM   26  H   UNL     1      21.244  47.097  49.761  1.00  0.00     0.280 HD
HETATM   27  C   UNL     1      22.986  47.036  48.621  1.00  0.00     0.255 C 
HETATM   28  C   UNL     1      23.808  46.200  49.623  1.00  0.00     0.150 C 
BRANCH  25  29
HETATM   29  C   UNL     1      20.676  47.651  47.861  1.00  0.00     0.273 C 
BRANCH  29  30
HETATM   30  C   UNL     1      20.324  48.994  48.435  1.00  0.00    -0.033 A 
HETATM   31  C   UNL     1      19.668  49.088  49.673  1.00  0.00     0.009 A 
HETATM   32  C   UNL     1      19.321  50.334  50.196  1.00  0.00     0.001 A 
HETATM   33  C   UNL     1      19.622  51.496  49.490  1.00  0.00     0.000 A 
HETATM   34  C   UNL     1      20.277  51.416  48.263  1.00  0.00     0.001 A 
HETATM   35  C   UNL     1      20.628  50.173  47.736  1.00  0.00     0.009 A 
ENDBRANCH  29  30
ENDBRANCH  25  29
ENDBRANCH   4  22
BRANCH   1  36
HETATM   36  C   UNL     1      27.100  40.501  50.139  1.00  0.00     0.293 C 
HETATM   37  O   UNL     1      28.286  40.674  50.361  1.00  0.00    -0.259 OA
BRANCH  36  38
HETATM   38  O   UNL     1      26.476  39.313  49.953  1.00  0.00    -0.318 OA
BRANCH  38  39
HETATM   39  C   UNL     1      27.099  38.412  49.022  1.00  0.00     0.174 C 
HETATM   40  C   UNL     1      27.095  37.006  49.587  1.00  0.00     0.034 C 
ENDBRANCH  38  39
ENDBRANCH  36  38
ENDBRANCH   1  36
TORSDOF 10
ENDMDL
MODEL 6
REMARK VINA RESULT:      -9.0      4.819      9.692
REMARK  10 active torsions:
REMARK  status: ('A' for Active; 'I' for Inactive)
REMARK    1  A    between atoms: C_2  and  O_3 
REMARK    2  A    between atoms: O_3  and  C_4 
REMARK    3  A    between atoms: C_4  and  C_5 
REMARK    4  A    between atoms: C_7  and  N_8 
REMARK    5  A    between atoms: N_8  and  C_9 
REMARK    6  A    between atoms: C_9  and  N_10 
REMARK       I    between atoms: N_10  and  C_11 
REMARK    7  A    between atoms: C_11  and  C_12 
REMARK    8  A    between atoms: C_21  and  N_22 
REMARK    9  A    between atoms: N_25  and  C_27 
REMARK   10  A    between atoms: C_27  and  C_28 
ROOT
HETATM    1  C   UNL     1      25.832  45.820  50.941  1.00  0.00     0.041 A 
HETATM    2  C   UNL     1      26.278  44.863  51.864  1.00  0.00     0.049 A 
HETATM    3  C   UNL     1      26.440  43.524  51.480  1.00  0.00     0.062 A 
HETATM    4  C   UNL     1      26.210  43.135  50.136  1.00  0.00     0.057 A 
HETATM    5  C   UNL     1      25.764  44.113  49.232  1.00  0.00     0.033 A 
HETATM    6  C   UNL     1      25.571  45.438  49.624  1.00  0.00     0.020 A 
ENDROOT
BRANCH   3   7
HETATM    7  N   UNL     1      26.652  42.502  52.444  1.00  0.00    -0.331 N 
HETATM    8  H   UNL     1      25.816  42.299  52.977  1.00  0.00     0.168 HD
BRANCH   7   9
HETATM    9  C   UNL     1      27.810  42.168  53.061  1.00  0.00     0.179 C 
HETATM   10  S   UNL     1      28.633  40.800  52.570  1.00  0.00    -0.040 SA
BRANCH   9  11
HETATM   11  N   UNL     1      28.350  42.958  54.031  1.00  0.00    -0.299 N 
HETATM   12  C   UNL     1      29.649  43.466  54.039  1.00  0.00     0.258 C 
HETATM   13  O   UNL     1      30.390  43.532  53.064  1.00  0.00    -0.267 OA
HETATM   14  H   UNL     1      27.920  42.821  54.934  1.00  0.00     0.171 HD
BRANCH  12  15
HETATM   15  C   UNL     1      30.132  43.928  55.379  1.00  0.00     0.038 A 
HETATM   16  C   UNL     1      29.744  45.175  55.908  1.00  0.00    -0.046 A 
HETATM   17  C   UNL     1      28.836  46.120  55.170  1.00  0.00     0.049 C 
HETATM   18  C   UNL     1      30.245  45.565  57.163  1.00  0.00     0.007 A 
HETATM   19  C   UNL     1      31.105  44.737  57.883  1.00  0.00     0.001 A 
HETATM   20  C   UNL     1      31.497  43.512  57.354  1.00  0.00     0.001 A 
HETATM   21  C   UNL     1      31.024  43.113  56.103  1.00  0.00     0.017 A 
ENDBRANCH  12  15
ENDBRANCH   9  11
ENDBRANCH   7   9
ENDBRANCH   3   7
BRANCH   4  22
HETATM   22  N   UNL     1      26.460  41.857  49.645  1.00  0.00    -0.376 N 
HETATM   23  C   UNL     1      25.480  40.783  49.857  1.00  0.00     0.150 C 
HETATM   24  C   UNL     1      26.221  39.445  50.070  1.00  0.00     0.255 C 
HETATM   25  N   UNL     1      27.213  39.186  48.927  1.00  0.00    -0.064 N 
HETATM   26  H   UNL     1      26.656  39.129  48.067  1.00  0.00     0.280 HD
HETATM   27  C   UNL     1      28.191  40.350  48.770  1.00  0.00     0.255 C 
HETATM   28  C   UNL     1      27.441  41.683  48.574  1.00  0.00     0.150 C 
BRANCH  25  29
HETATM   29  C   UNL     1      27.938  37.873  49.076  1.00  0.00     0.273 C 
BRANCH  29  30
HETATM   30  C   UNL     1      27.743  36.962  47.897  1.00  0.00    -0.033 A 
HETATM   31  C   UNL     1      28.575  37.071  46.770  1.00  0.00     0.009 A 
HETATM   32  C   UNL     1      28.380  36.241  45.666  1.00  0.00     0.001 A 
HETATM   33  C   UNL     1      27.355  35.298  45.674  1.00  0.00     0.000 A 
HETATM   34  C   UNL     1      26.527  35.177  46.787  1.00  0.00     0.001 A 
HETATM   35  C   UNL     1      26.718  36.003  47.895  1.00  0.00     0.009 A 
ENDBRANCH  29  30
ENDBRANCH  25  29
ENDBRANCH   4  22
BRANCH   1  36
HETATM   36  C   UNL     1      25.612  47.210  51.420  1.00  0.00     0.293 C 
HETATM   37  O   UNL     1      25.407  47.492  52.588  1.00  0.00    -0.259 OA
BRANCH  36  38
HETATM   38  O   UNL     1      25.619  48.066  50.370  1.00  0.00    -0.318 OA
BRANCH  38  39
HETATM   39  C   UNL     1      26.907  48.362  49.805  1.00  0.00     0.174 C 
HETATM   40  C   UNL     1      26.769  49.435  48.744  1.00  0.00     0.034 C 
ENDBRANCH  38  39
ENDBRANCH  36  38
ENDBRANCH   1  36
TORSDOF 10
ENDMDL
MODEL 7
REMARK VINA RESULT:      -8.8      5.128      8.364
REMARK  10 active torsions:
REMARK  status: ('A' for Active; 'I' for Inactive)
REMARK    1  A    between atoms: C_2  and  O_3 
REMARK    2  A    between atoms: O_3  and  C_4 
REMARK    3  A    between atoms: C_4  and  C_5 
REMARK    4  A    between atoms: C_7  and  N_8 
REMARK    5  A    between atoms: N_8  and  C_9 
REMARK    6  A    between atoms: C_9  and  N_10 
REMARK       I    between atoms: N_10  and  C_11 
REMARK    7  A    between atoms: C_11  and  C_12 
REMARK    8  A    between atoms: C_21  and  N_22 
REMARK    9  A    between atoms: N_25  and  C_27 
REMARK   10  A    between atoms: C_27  and  C_28 
ROOT
HETATM    1  C   UNL     1      28.588  43.402  53.800  1.00  0.00     0.041 A 
HETATM    2  C   UNL     1      27.979  43.918  52.647  1.00  0.00     0.049 A 
HETATM    3  C   UNL     1      27.698  43.083  51.556  1.00  0.00     0.062 A 
HETATM    4  C   UNL     1      27.974  41.695  51.630  1.00  0.00     0.057 A 
HETATM    5  C   UNL     1      28.585  41.203  52.796  1.00  0.00     0.033 A 
HETATM    6  C   UNL     1      28.894  42.042  53.868  1.00  0.00     0.020 A 
ENDROOT
BRANCH   3   7
HETATM    7  N   UNL     1      27.311  43.620  50.299  1.00  0.00    -0.331 N 
HETATM    8  H   UNL     1      28.100  43.749  49.678  1.00  0.00     0.168 HD
BRANCH   7   9
HETATM    9  C   UNL     1      26.241  44.404  50.023  1.00  0.00     0.179 C 
HETATM   10  S   UNL     1      24.702  43.803  50.272  1.00  0.00    -0.040 SA
BRANCH   9  11
HETATM   11  N   UNL     1      26.395  45.692  49.606  1.00  0.00    -0.299 N 
HETATM   12  C   UNL     1      26.121  46.831  50.362  1.00  0.00     0.258 C 
HETATM   13  O   UNL     1      25.991  46.858  51.581  1.00  0.00    -0.267 OA
HETATM   14  H   UNL     1      26.315  45.792  48.604  1.00  0.00     0.171 HD
BRANCH  12  15
HETATM   15  C   UNL     1      25.955  48.087  49.563  1.00  0.00     0.038 A 
HETATM   16  C   UNL     1      24.687  48.506  49.112  1.00  0.00    -0.046 A 
HETATM   17  C   UNL     1      23.431  47.727  49.391  1.00  0.00     0.049 C 
HETATM   18  C   UNL     1      24.594  49.683  48.348  1.00  0.00     0.007 A 
HETATM   19  C   UNL     1      25.729  50.434  48.043  1.00  0.00     0.001 A 
HETATM   20  C   UNL     1      26.980  50.012  48.478  1.00  0.00     0.001 A 
HETATM   21  C   UNL     1      27.096  48.839  49.224  1.00  0.00     0.017 A 
ENDBRANCH  12  15
ENDBRANCH   9  11
ENDBRANCH   7   9
ENDBRANCH   3   7
BRANCH   4  22
HETATM   22  N   UNL     1      27.620  40.779  50.644  1.00  0.00    -0.376 N 
HETATM   23  C   UNL     1      28.642  39.902  50.054  1.00  0.00     0.150 C 
HETATM   24  C   UNL     1      28.328  39.679  48.559  1.00  0.00     0.255 C 
HETATM   25  N   UNL     1      26.884  39.189  48.375  1.00  0.00    -0.064 N 
HETATM   26  H   UNL     1      26.816  38.293  48.871  1.00  0.00     0.280 HD
HETATM   27  C   UNL     1      25.888  40.152  49.020  1.00  0.00     0.255 C 
HETATM   28  C   UNL     1      26.219  40.380  50.509  1.00  0.00     0.150 C 
BRANCH  25  29
HETATM   29  C   UNL     1      26.541  38.927  46.931  1.00  0.00     0.273 C 
BRANCH  29  30
HETATM   30  C   UNL     1      27.300  37.765  46.353  1.00  0.00    -0.033 A 
HETATM   31  C   UNL     1      27.010  36.454  46.764  1.00  0.00     0.009 A 
HETATM   32  C   UNL     1      27.729  35.376  46.246  1.00  0.00     0.001 A 
HETATM   33  C   UNL     1      28.742  35.596  45.316  1.00  0.00     0.000 A 
HETATM   34  C   UNL     1      29.035  36.891  44.897  1.00  0.00     0.001 A 
HETATM   35  C   UNL     1      28.318  37.973  45.411  1.00  0.00     0.009 A 
ENDBRANCH  29  30
ENDBRANCH  25  29
ENDBRANCH   4  22
BRANCH   1  36
HETATM   36  C   UNL     1      28.926  44.345  54.899  1.00  0.00     0.293 C 
HETATM   37  O   UNL     1      29.952  44.270  55.553  1.00  0.00    -0.259 OA
BRANCH  36  38
HETATM   38  O   UNL     1      27.913  45.226  55.079  1.00  0.00    -0.318 OA
BRANCH  38  39
HETATM   39  C   UNL     1      28.293  46.545  55.505  1.00  0.00     0.174 C 
HETATM   40  C   UNL     1      27.501  47.582  54.733  1.00  0.00     0.034 C 
ENDBRANCH  38  39
ENDBRANCH  36  38
ENDBRANCH   1  36
TORSDOF 10
ENDMDL
MODEL 8
REMARK VINA RESULT:      -8.6      3.460      7.135
REMARK  10 active torsions:
REMARK  status: ('A' for Active; 'I' for Inactive)
REMARK    1  A    between atoms: C_2  and  O_3 
REMARK    2  A    between atoms: O_3  and  C_4 
REMARK    3  A    between atoms: C_4  and  C_5 
REMARK    4  A    between atoms: C_7  and  N_8 
REMARK    5  A    between atoms: N_8  and  C_9 
REMARK    6  A    between atoms: C_9  and  N_10 
REMARK       I    between atoms: N_10  and  C_11 
REMARK    7  A    between atoms: C_11  and  C_12 
REMARK    8  A    between atoms: C_21  and  N_22 
REMARK    9  A    between atoms: N_25  and  C_27 
REMARK   10  A    between atoms: C_27  and  C_28 
ROOT
HETATM    1  C   UNL     1      22.244  45.227  48.775  1.00  0.00     0.041 A 
HETATM    2  C   UNL     1      22.540  43.933  49.225  1.00  0.00     0.049 A 
HETATM    3  C   UNL     1      23.700  43.687  49.974  1.00  0.00     0.062 A 
HETATM    4  C   UNL     1      24.557  44.758  50.333  1.00  0.00     0.057 A 
HETATM    5  C   UNL     1      24.238  46.045  49.868  1.00  0.00     0.033 A 
HETATM    6  C   UNL     1      23.100  46.281  49.095  1.00  0.00     0.020 A 
ENDROOT
BRANCH   3   7
HETATM    7  N   UNL     1      24.144  42.362  50.230  1.00  0.00    -0.331 N 
HETATM    8  H   UNL     1      24.379  42.218  51.203  1.00  0.00     0.168 HD
BRANCH   7   9
HETATM    9  C   UNL     1      24.747  41.507  49.370  1.00  0.00     0.179 C 
HETATM   10  S   UNL     1      24.103  41.292  47.844  1.00  0.00    -0.040 SA
BRANCH   9  11
HETATM   11  N   UNL     1      25.903  40.867  49.702  1.00  0.00    -0.299 N 
HETATM   12  C   UNL     1      27.139  41.041  49.078  1.00  0.00     0.258 C 
HETATM   13  O   UNL     1      27.442  41.986  48.358  1.00  0.00    -0.267 OA
HETATM   14  H   UNL     1      25.744  39.967  50.133  1.00  0.00     0.171 HD
BRANCH  12  15
HETATM   15  C   UNL     1      28.124  39.940  49.324  1.00  0.00     0.038 A 
HETATM   16  C   UNL     1      28.505  39.055  48.296  1.00  0.00    -0.046 A 
HETATM   17  C   UNL     1      27.951  39.149  46.901  1.00  0.00     0.049 C 
HETATM   18  C   UNL     1      29.418  38.027  48.590  1.00  0.00     0.007 A 
HETATM   19  C   UNL     1      29.950  37.881  49.871  1.00  0.00     0.001 A 
HETATM   20  C   UNL     1      29.563  38.748  50.888  1.00  0.00     0.001 A 
HETATM   21  C   UNL     1      28.645  39.765  50.621  1.00  0.00     0.017 A 
ENDBRANCH  12  15
ENDBRANCH   9  11
ENDBRANCH   7   9
ENDBRANCH   3   7
BRANCH   4  22
HETATM   22  N   UNL     1      25.661  44.622  51.169  1.00  0.00    -0.376 N 
HETATM   23  C   UNL     1      27.018  44.770  50.626  1.00  0.00     0.150 C 
HETATM   24  C   UNL     1      27.971  43.794  51.348  1.00  0.00     0.255 C 
HETATM   25  N   UNL     1      27.872  43.966  52.871  1.00  0.00    -0.064 N 
HETATM   26  H   UNL     1      28.160  44.930  53.074  1.00  0.00     0.280 HD
HETATM   27  C   UNL     1      26.431  43.802  53.353  1.00  0.00     0.255 C 
HETATM   28  C   UNL     1      25.485  44.770  52.614  1.00  0.00     0.150 C 
BRANCH  25  29
HETATM   29  C   UNL     1      28.810  43.054  53.619  1.00  0.00     0.273 C 
BRANCH  29  30
HETATM   30  C   UNL     1      29.519  43.746  54.750  1.00  0.00    -0.033 A 
HETATM   31  C   UNL     1      30.582  43.113  55.414  1.00  0.00     0.009 A 
HETATM   32  C   UNL     1      31.225  43.745  56.479  1.00  0.00     0.001 A 
HETATM   33  C   UNL     1      30.815  45.010  56.891  1.00  0.00     0.000 A 
HETATM   34  C   UNL     1      29.764  45.650  56.236  1.00  0.00     0.001 A 
HETATM   35  C   UNL     1      29.118  45.023  55.171  1.00  0.00     0.009 A 
ENDBRANCH  29  30
ENDBRANCH  25  29
ENDBRANCH   4  22
BRANCH   1  36
HETATM   36  C   UNL     1      21.037  45.419  47.927  1.00  0.00     0.293 C 
HETATM   37  O   UNL     1      20.077  44.668  47.950  1.00  0.00    -0.259 OA
BRANCH  36  38
HETATM   38  O   UNL     1      21.207  46.492  47.117  1.00  0.00    -0.318 OA
BRANCH  38  39
HETATM   39  C   UNL     1      20.046  46.923  46.389  1.00  0.00     0.174 C 
HETATM   40  C   UNL     1      19.382  48.075  47.116  1.00  0.00     0.034 C 
ENDBRANCH  38  39
ENDBRANCH  36  38
ENDBRANCH   1  36
TORSDOF 10
ENDMDL
MODEL 9
REMARK VINA RESULT:      -8.3      3.404      4.820
REMARK  10 active torsions:
REMARK  status: ('A' for Active; 'I' for Inactive)
REMARK    1  A    between atoms: C_2  and  O_3 
REMARK    2  A    between atoms: O_3  and  C_4 
REMARK    3  A    between atoms: C_4  and  C_5 
REMARK    4  A    between atoms: C_7  and  N_8 
REMARK    5  A    between atoms: N_8  and  C_9 
REMARK    6  A    between atoms: C_9  and  N_10 
REMARK       I    between atoms: N_10  and  C_11 
REMARK    7  A    between atoms: C_11  and  C_12 
REMARK    8  A    between atoms: C_21  and  N_22 
REMARK    9  A    between atoms: N_25  and  C_27 
REMARK   10  A    between atoms: C_27  and  C_28 
ROOT
HETATM    1  C   UNL     1      26.732  40.448  47.532  1.00  0.00     0.041 A 
HETATM    2  C   UNL     1      26.007  41.494  48.119  1.00  0.00     0.049 A 
HETATM    3  C   UNL     1      26.351  41.974  49.390  1.00  0.00     0.062 A 
HETATM    4  C   UNL     1      27.474  41.443  50.073  1.00  0.00     0.057 A 
HETATM    5  C   UNL     1      28.184  40.394  49.464  1.00  0.00     0.033 A 
HETATM    6  C   UNL     1      27.819  39.896  48.212  1.00  0.00     0.020 A 
ENDROOT
BRANCH   3   7
HETATM    7  N   UNL     1      25.493  42.855  50.102  1.00  0.00    -0.331 N 
HETATM    8  H   UNL     1      25.071  42.412  50.907  1.00  0.00     0.168 HD
BRANCH   7   9
HETATM    9  C   UNL     1      24.808  43.919  49.618  1.00  0.00     0.179 C 
HETATM   10  S   UNL     1      23.154  43.800  49.411  1.00  0.00    -0.040 SA
BRANCH   9  11
HETATM   11  N   UNL     1      25.428  45.103  49.358  1.00  0.00    -0.299 N 
HETATM   12  C   UNL     1      25.665  46.121  50.282  1.00  0.00     0.258 C 
HETATM   13  O   UNL     1      25.625  45.994  51.501  1.00  0.00    -0.267 OA
HETATM   14  H   UNL     1      25.339  45.389  48.393  1.00  0.00     0.171 HD
BRANCH  12  15
HETATM   15  C   UNL     1      25.958  47.459  49.677  1.00  0.00     0.038 A 
HETATM   16  C   UNL     1      24.921  48.331  49.288  1.00  0.00    -0.046 A 
HETATM   17  C   UNL     1      23.467  47.979  49.446  1.00  0.00     0.049 C 
HETATM   18  C   UNL     1      25.256  49.566  48.707  1.00  0.00     0.007 A 
HETATM   19  C   UNL     1      26.588  49.936  48.520  1.00  0.00     0.001 A 
HETATM   20  C   UNL     1      27.609  49.069  48.892  1.00  0.00     0.001 A 
HETATM   21  C   UNL     1      27.298  47.832  49.457  1.00  0.00     0.017 A 
ENDBRANCH  12  15
ENDBRANCH   9  11
ENDBRANCH   7   9
ENDBRANCH   3   7
BRANCH   4  22
HETATM   22  N   UNL     1      27.955  41.940  51.281  1.00  0.00    -0.376 N 
HETATM   23  C   UNL     1      28.288  43.366  51.409  1.00  0.00     0.150 C 
HETATM   24  C   UNL     1      29.511  43.527  52.338  1.00  0.00     0.255 C 
HETATM   25  N   UNL     1      29.278  42.804  53.673  1.00  0.00    -0.064 N 
HETATM   26  H   UNL     1      28.464  43.253  54.107  1.00  0.00     0.280 HD
HETATM   27  C   UNL     1      28.933  41.332  53.450  1.00  0.00     0.255 C 
HETATM   28  C   UNL     1      27.720  41.182  52.510  1.00  0.00     0.150 C 
BRANCH  25  29
HETATM   29  C   UNL     1      30.435  42.961  54.626  1.00  0.00     0.273 C 
BRANCH  29  30
HETATM   30  C   UNL     1      30.195  44.019  55.666  1.00  0.00    -0.033 A 
HETATM   31  C   UNL     1      29.224  45.012  55.457  1.00  0.00     0.009 A 
HETATM   32  C   UNL     1      29.016  46.008  56.411  1.00  0.00     0.001 A 
HETATM   33  C   UNL     1      29.774  46.025  57.579  1.00  0.00     0.000 A 
HETATM   34  C   UNL     1      30.737  45.043  57.800  1.00  0.00     0.001 A 
HETATM   35  C   UNL     1      30.948  44.043  56.849  1.00  0.00     0.009 A 
ENDBRANCH  29  30
ENDBRANCH  25  29
ENDBRANCH   4  22
BRANCH   1  36
HETATM   36  C   UNL     1      26.281  39.932  46.212  1.00  0.00     0.293 C 
HETATM   37  O   UNL     1      25.479  39.022  46.088  1.00  0.00    -0.259 OA
BRANCH  36  38
HETATM   38  O   UNL     1      26.932  40.581  45.217  1.00  0.00    -0.318 OA
BRANCH  38  39
HETATM   39  C   UNL     1      26.119  41.398  44.359  1.00  0.00     0.174 C 
HETATM   40  C   UNL     1      26.839  41.643  43.048  1.00  0.00     0.034 C 
ENDBRANCH  38  39
ENDBRANCH  36  38
ENDBRANCH   1  36
TORSDOF 10
ENDMDL
MODEL 10
REMARK VINA RESULT:      -8.2      2.757      6.659
REMARK  10 active torsions:
REMARK  status: ('A' for Active; 'I' for Inactive)
REMARK    1  A    between atoms: C_2  and  O_3 
REMARK    2  A    between atoms: O_3  and  C_4 
REMARK    3  A    between atoms: C_4  and  C_5 
REMARK    4  A    between atoms: C_7  and  N_8 
REMARK    5  A    between atoms: N_8  and  C_9 
REMARK    6  A    between atoms: C_9  and  N_10 
REMARK       I    between atoms: N_10  and  C_11 
REMARK    7  A    between atoms: C_11  and  C_12 
REMARK    8  A    between atoms: C_21  and  N_22 
REMARK    9  A    between atoms: N_25  and  C_27 
REMARK   10  A    between atoms: C_27  and  C_28 
ROOT
HETATM    1  C   UNL     1      22.052  47.876  48.376  1.00  0.00     0.041 A 
HETATM    2  C   UNL     1      22.110  46.478  48.461  1.00  0.00     0.049 A 
HETATM    3  C   UNL     1      23.196  45.847  49.086  1.00  0.00     0.062 A 
HETATM    4  C   UNL     1      24.219  46.621  49.690  1.00  0.00     0.057 A 
HETATM    5  C   UNL     1      24.137  48.020  49.589  1.00  0.00     0.033 A 
HETATM    6  C   UNL     1      23.071  48.645  48.938  1.00  0.00     0.020 A 
ENDROOT
BRANCH   3   7
HETATM    7  N   UNL     1      23.399  44.446  48.971  1.00  0.00    -0.331 N 
HETATM    8  H   UNL     1      23.733  44.036  49.833  1.00  0.00     0.168 HD
BRANCH   7   9
HETATM    9  C   UNL     1      23.695  43.738  47.855  1.00  0.00     0.179 C 
HETATM   10  S   UNL     1      22.998  44.174  46.401  1.00  0.00    -0.040 SA
BRANCH   9  11
HETATM   11  N   UNL     1      24.597  42.717  47.882  1.00  0.00    -0.299 N 
HETATM   12  C   UNL     1      25.120  42.122  49.030  1.00  0.00     0.258 C 
HETATM   13  O   UNL     1      24.642  42.213  50.156  1.00  0.00    -0.267 OA
HETATM   14  H   UNL     1      25.183  42.689  47.059  1.00  0.00     0.171 HD
BRANCH  12  15
HETATM   15  C   UNL     1      26.383  41.346  48.813  1.00  0.00     0.038 A 
HETATM   16  C   UNL     1      26.975  40.604  49.854  1.00  0.00    -0.046 A 
HETATM   17  C   UNL     1      26.392  40.546  51.240  1.00  0.00     0.049 C 
HETATM   18  C   UNL     1      28.171  39.911  49.598  1.00  0.00     0.007 A 
HETATM   19  C   UNL     1      28.766  39.945  48.336  1.00  0.00     0.001 A 
HETATM   20  C   UNL     1      28.187  40.689  47.314  1.00  0.00     0.001 A 
HETATM   21  C   UNL     1      27.008  41.396  47.552  1.00  0.00     0.017 A 
ENDBRANCH  12  15
ENDBRANCH   9  11
ENDBRANCH   7   9
ENDBRANCH   3   7
BRANCH   4  22
HETATM   22  N   UNL     1      25.266  46.081  50.430  1.00  0.00    -0.376 N 
HETATM   23  C   UNL     1      26.592  45.917  49.817  1.00  0.00     0.150 C 
HETATM   24  C   UNL     1      27.255  44.633  50.359  1.00  0.00     0.255 C 
HETATM   25  N   UNL     1      27.258  44.631  51.895  1.00  0.00    -0.064 N 
HETATM   26  H   UNL     1      27.813  45.444  52.185  1.00  0.00     0.280 HD
HETATM   27  C   UNL     1      25.846  44.811  52.450  1.00  0.00     0.255 C 
HETATM   28  C   UNL     1      25.187  46.087  51.890  1.00  0.00     0.150 C 
BRANCH  25  29
HETATM   29  C   UNL     1      27.925  43.408  52.471  1.00  0.00     0.273 C 
BRANCH  29  30
HETATM   30  C   UNL     1      28.790  43.720  53.660  1.00  0.00    -0.033 A 
HETATM   31  C   UNL     1      28.547  44.868  54.432  1.00  0.00     0.009 A 
HETATM   32  C   UNL     1      29.363  45.171  55.522  1.00  0.00     0.001 A 
HETATM   33  C   UNL     1      30.428  44.336  55.851  1.00  0.00     0.000 A 
HETATM   34  C   UNL     1      30.676  43.192  55.095  1.00  0.00     0.001 A 
HETATM   35  C   UNL     1      29.862  42.884  54.004  1.00  0.00     0.009 A 
ENDBRANCH  29  30
ENDBRANCH  25  29
ENDBRANCH   4  22
BRANCH   1  36
HETATM   36  C   UNL     1      20.913  48.490  47.643  1.00  0.00     0.293 C 
HETATM   37  O   UNL     1      20.151  47.852  46.935  1.00  0.00    -0.259 OA
BRANCH  36  38
HETATM   38  O   UNL     1      20.903  49.830  47.842  1.00  0.00    -0.318 OA
BRANCH  38  39
HETATM   39  C   UNL     1      19.760  50.356  48.536  1.00  0.00     0.174 C 
HETATM   40  C   UNL     1      19.808  51.871  48.531  1.00  0.00     0.034 C 
ENDBRANCH  38  39
ENDBRANCH  36  38
ENDBRANCH   1  36
TORSDOF 10
ENDMDL
