MODEL 1
REMARK VINA RESULT:      -9.1      0.000      0.000
REMARK  5 active torsions:
REMARK  status: ('A' for Active; 'I' for Inactive)
REMARK    1  A    between atoms: C_7  and  C_8 
REMARK    2  A    between atoms: N_9  and  C_10 
REMARK    3  A    between atoms: C_10  and  C_11 
REMARK       I    between atoms: C_11  and  N_12 
REMARK    4  A    between atoms: N_12  and  C_13 
REMARK    5  A    between atoms: C_13  and  C_14 
ROOT
HETATM    1  C   UNL     1      26.286  44.713  50.909  1.00  0.00     0.158 C 
HETATM    2  N   UNL     1      25.013  44.016  51.032  1.00  0.00    -0.326 N 
HETATM    3  C   UNL     1      24.008  44.754  50.405  1.00  0.00     0.255 C 
HETATM    4  O   UNL     1      22.881  44.393  50.122  1.00  0.00    -0.267 OA
HETATM    5  C   UNL     1      24.555  46.076  50.083  1.00  0.00     0.040 A 
HETATM    6  C   UNL     1      25.912  46.069  50.399  1.00  0.00    -0.015 A 
HETATM    7  C   UNL     1      23.922  47.166  49.518  1.00  0.00     0.017 A 
HETATM    8  C   UNL     1      24.697  48.300  49.269  1.00  0.00     0.001 A 
HETATM    9  C   UNL     1      26.069  48.310  49.579  1.00  0.00     0.001 A 
HETATM   10  C   UNL     1      26.688  47.189  50.142  1.00  0.00     0.011 A 
ENDROOT
BRANCH   1  11
HETATM   11  C   UNL     1      26.984  44.872  52.223  1.00  0.00     0.004 A 
HETATM   12  C   UNL     1      26.645  45.795  53.213  1.00  0.00     0.017 A 
HETATM   13  C   UNL     1      25.563  46.826  53.236  1.00  0.00     0.069 C 
HETATM   14  N   UNL     1      27.520  45.631  54.267  1.00  0.00    -0.354 N 
HETATM   15  C   UNL     1      27.493  46.422  55.481  1.00  0.00     0.156 C 
HETATM   16  C   UNL     1      28.415  44.618  53.998  1.00  0.00     0.045 A 
HETATM   17  C   UNL     1      28.106  44.123  52.728  1.00  0.00     0.001 A 
HETATM   18  C   UNL     1      29.474  44.093  54.762  1.00  0.00     0.030 A 
HETATM   19  C   UNL     1      28.885  43.060  52.217  1.00  0.00     0.014 A 
HETATM   20  C   UNL     1      29.938  42.532  52.971  1.00  0.00     0.001 A 
HETATM   21  C   UNL     1      30.227  43.045  54.227  1.00  0.00     0.002 A 
ENDBRANCH   1  11
BRANCH   2  22
HETATM   22  C   UNL     1      24.991  42.563  50.923  1.00  0.00     0.229 C 
BRANCH  22  23
HETATM   23  C   UNL     1      25.477  41.973  49.597  1.00  0.00     0.235 C 
HETATM   24  N   UNL     1      26.776  41.517  49.585  1.00  0.00    -0.357 N 
HETATM   25  H   UNL     1      27.261  41.444  50.472  1.00  0.00     0.162 HD
HETATM   26  O   UNL     1      24.791  42.048  48.577  1.00  0.00    -0.272 OA
BRANCH  24  27
HETATM   27  C   UNL     1      27.328  40.861  48.410  1.00  0.00     0.154 C 
BRANCH  27  28
HETATM   28  C   UNL     1      28.612  40.069  48.709  1.00  0.00     0.139 C 
HETATM   29  O   UNL     1      28.738  39.870  50.136  1.00  0.00    -0.384 OA
HETATM   30  C   UNL     1      29.117  38.508  50.357  1.00  0.00     0.168 C 
HETATM   31  C   UNL     1      28.473  37.733  49.235  1.00  0.00     0.029 C 
HETATM   32  C   UNL     1      28.623  38.680  48.069  1.00  0.00     0.035 C 
ENDBRANCH  27  28
ENDBRANCH  24  27
ENDBRANCH  22  23
ENDBRANCH   2  22
TORSDOF 5
ENDMDL
MODEL 2
REMARK VINA RESULT:      -9.1      2.635      6.160
REMARK  5 active torsions:
REMARK  status: ('A' for Active; 'I' for Inactive)
REMARK    1  A    between atoms: C_7  and  C_8 
REMARK    2  A    between atoms: N_9  and  C_10 
REMARK    3  A    between atoms: C_10  and  C_11 
REMARK       I    between atoms: C_11  and  N_12 
REMARK    4  A    between atoms: N_12  and  C_13 
REMARK    5  A    between atoms: C_13  and  C_14 
ROOT
HETATM    1  C   UNL     1      26.181  45.906  51.216  1.00  0.00     0.158 C 
HETATM    2  N   UNL     1      25.469  45.803  52.483  1.00  0.00    -0.326 N 
HETATM    3  C   UNL     1      25.257  44.460  52.797  1.00  0.00     0.255 C 
HETATM    4  O   UNL     1      24.894  43.989  53.859  1.00  0.00    -0.267 OA
HETATM    5  C   UNL     1      25.597  43.662  51.615  1.00  0.00     0.040 A 
HETATM    6  C   UNL     1      26.132  44.519  50.656  1.00  0.00    -0.015 A 
HETATM    7  C   UNL     1      25.488  42.298  51.424  1.00  0.00     0.017 A 
HETATM    8  C   UNL     1      25.935  41.783  50.207  1.00  0.00     0.001 A 
HETATM    9  C   UNL     1      26.480  42.633  49.228  1.00  0.00     0.001 A 
HETATM   10  C   UNL     1      26.588  44.010  49.450  1.00  0.00     0.011 A 
ENDROOT
BRANCH   1  11
HETATM   11  C   UNL     1      25.510  46.835  50.254  1.00  0.00     0.004 A 
HETATM   12  C   UNL     1      24.202  46.709  49.786  1.00  0.00     0.017 A 
HETATM   13  C   UNL     1      23.169  45.674  50.089  1.00  0.00     0.069 C 
HETATM   14  N   UNL     1      23.957  47.755  48.920  1.00  0.00    -0.354 N 
HETATM   15  C   UNL     1      22.704  47.958  48.219  1.00  0.00     0.156 C 
HETATM   16  C   UNL     1      25.066  48.566  48.816  1.00  0.00     0.045 A 
HETATM   17  C   UNL     1      26.054  48.019  49.638  1.00  0.00     0.001 A 
HETATM   18  C   UNL     1      25.288  49.738  48.067  1.00  0.00     0.030 A 
HETATM   19  C   UNL     1      27.302  48.678  49.714  1.00  0.00     0.014 A 
HETATM   20  C   UNL     1      27.529  49.843  48.974  1.00  0.00     0.001 A 
HETATM   21  C   UNL     1      26.533  50.364  48.161  1.00  0.00     0.002 A 
ENDBRANCH   1  11
BRANCH   2  22
HETATM   22  C   UNL     1      25.800  46.733  53.555  1.00  0.00     0.229 C 
BRANCH  22  23
HETATM   23  C   UNL     1      27.179  46.568  54.198  1.00  0.00     0.235 C 
HETATM   24  N   UNL     1      27.514  45.286  54.573  1.00  0.00    -0.357 N 
HETATM   25  H   UNL     1      26.921  44.529  54.256  1.00  0.00     0.162 HD
HETATM   26  O   UNL     1      27.866  47.546  54.493  1.00  0.00    -0.272 OA
BRANCH  24  27
HETATM   27  C   UNL     1      28.828  44.988  55.121  1.00  0.00     0.154 C 
BRANCH  27  28
HETATM   28  C   UNL     1      29.206  43.501  55.004  1.00  0.00     0.139 C 
HETATM   29  O   UNL     1      28.117  42.770  54.392  1.00  0.00    -0.384 OA
HETATM   30  C   UNL     1      28.675  41.892  53.411  1.00  0.00     0.168 C 
HETATM   31  C   UNL     1      29.893  42.611  52.886  1.00  0.00     0.029 C 
HETATM   32  C   UNL     1      30.440  43.261  54.133  1.00  0.00     0.035 C 
ENDBRANCH  27  28
ENDBRANCH  24  27
ENDBRANCH  22  23
ENDBRANCH   2  22
TORSDOF 5
ENDMDL
MODEL 3
REMARK VINA RESULT:      -9.0      0.555      2.313
REMARK  5 active torsions:
REMARK  status: ('A' for Active; 'I' for Inactive)
REMARK    1  A    between atoms: C_7  and  C_8 
REMARK    2  A    between atoms: N_9  and  C_10 
REMARK    3  A    between atoms: C_10  and  C_11 
REMARK       I    between atoms: C_11  and  N_12 
REMARK    4  A    between atoms: N_12  and  C_13 
REMARK    5  A    between atoms: C_13  and  C_14 
ROOT
HETATM    1  C   UNL     1      26.299  44.655  50.996  1.00  0.00     0.158 C 
HETATM    2  N   UNL     1      25.026  43.968  51.166  1.00  0.00    -0.326 N 
HETATM    3  C   UNL     1      24.010  44.695  50.543  1.00  0.00     0.255 C 
HETATM    4  O   UNL     1      22.876  44.331  50.296  1.00  0.00    -0.267 OA
HETATM    5  C   UNL     1      24.555  46.005  50.175  1.00  0.00     0.040 A 
HETATM    6  C   UNL     1      25.919  46.000  50.460  1.00  0.00    -0.015 A 
HETATM    7  C   UNL     1      23.913  47.084  49.597  1.00  0.00     0.017 A 
HETATM    8  C   UNL     1      24.687  48.207  49.301  1.00  0.00     0.001 A 
HETATM    9  C   UNL     1      26.066  48.219  49.580  1.00  0.00     0.001 A 
HETATM   10  C   UNL     1      26.693  47.109  50.157  1.00  0.00     0.011 A 
ENDROOT
BRANCH   1  11
HETATM   11  C   UNL     1      27.027  44.845  52.290  1.00  0.00     0.004 A 
HETATM   12  C   UNL     1      28.063  44.037  52.761  1.00  0.00     0.017 A 
HETATM   13  C   UNL     1      28.692  42.828  52.150  1.00  0.00     0.069 C 
HETATM   14  N   UNL     1      28.469  44.535  53.982  1.00  0.00    -0.354 N 
HETATM   15  C   UNL     1      29.521  43.952  54.792  1.00  0.00     0.156 C 
HETATM   16  C   UNL     1      27.734  45.652  54.317  1.00  0.00     0.045 A 
HETATM   17  C   UNL     1      26.824  45.872  53.280  1.00  0.00     0.001 A 
HETATM   18  C   UNL     1      27.789  46.490  55.447  1.00  0.00     0.030 A 
HETATM   19  C   UNL     1      25.949  46.977  53.381  1.00  0.00     0.014 A 
HETATM   20  C   UNL     1      25.999  47.814  54.499  1.00  0.00     0.001 A 
HETATM   21  C   UNL     1      26.908  47.571  55.519  1.00  0.00     0.002 A 
ENDBRANCH   1  11
BRANCH   2  22
HETATM   22  C   UNL     1      24.996  42.513  51.095  1.00  0.00     0.229 C 
BRANCH  22  23
HETATM   23  C   UNL     1      25.359  41.890  49.745  1.00  0.00     0.235 C 
HETATM   24  N   UNL     1      26.693  41.609  49.555  1.00  0.00    -0.357 N 
HETATM   25  H   UNL     1      27.309  41.670  50.357  1.00  0.00     0.162 HD
HETATM   26  O   UNL     1      24.526  41.794  48.843  1.00  0.00    -0.272 OA
BRANCH  24  27
HETATM   27  C   UNL     1      27.152  40.942  48.346  1.00  0.00     0.154 C 
BRANCH  27  28
HETATM   28  C   UNL     1      28.461  40.159  48.550  1.00  0.00     0.139 C 
HETATM   29  O   UNL     1      28.647  39.883  49.958  1.00  0.00    -0.384 OA
HETATM   30  C   UNL     1      29.057  38.519  50.087  1.00  0.00     0.168 C 
HETATM   31  C   UNL     1      28.383  37.796  48.948  1.00  0.00     0.029 C 
HETATM   32  C   UNL     1      28.470  38.808  47.832  1.00  0.00     0.035 C 
ENDBRANCH  27  28
ENDBRANCH  24  27
ENDBRANCH  22  23
ENDBRANCH   2  22
TORSDOF 5
ENDMDL
MODEL 4
REMARK VINA RESULT:      -8.9      2.780      6.330
REMARK  5 active torsions:
REMARK  status: ('A' for Active; 'I' for Inactive)
REMARK    1  A    between atoms: C_7  and  C_8 
REMARK    2  A    between atoms: N_9  and  C_10 
REMARK    3  A    between atoms: C_10  and  C_11 
REMARK       I    between atoms: C_11  and  N_12 
REMARK    4  A    between atoms: N_12  and  C_13 
REMARK    5  A    between atoms: C_13  and  C_14 
ROOT
HETATM    1  C   UNL     1      26.223  46.334  51.119  1.00  0.00     0.158 C 
HETATM    2  N   UNL     1      25.444  46.327  52.350  1.00  0.00    -0.326 N 
HETATM    3  C   UNL     1      25.042  45.023  52.646  1.00  0.00     0.255 C 
HETATM    4  O   UNL     1      24.570  44.605  53.687  1.00  0.00    -0.267 OA
HETATM    5  C   UNL     1      25.331  44.186  51.477  1.00  0.00     0.040 A 
HETATM    6  C   UNL     1      26.019  44.965  50.549  1.00  0.00    -0.015 A 
HETATM    7  C   UNL     1      25.053  42.848  51.274  1.00  0.00     0.017 A 
HETATM    8  C   UNL     1      25.486  42.278  50.077  1.00  0.00     0.001 A 
HETATM    9  C   UNL     1      26.184  43.048  49.129  1.00  0.00     0.001 A 
HETATM   10  C   UNL     1      26.461  44.399  49.363  1.00  0.00     0.011 A 
ENDROOT
BRANCH   1  11
HETATM   11  C   UNL     1      25.727  47.342  50.130  1.00  0.00     0.004 A 
HETATM   12  C   UNL     1      26.489  48.365  49.566  1.00  0.00     0.017 A 
HETATM   13  C   UNL     1      27.923  48.725  49.781  1.00  0.00     0.069 C 
HETATM   14  N   UNL     1      25.677  49.078  48.708  1.00  0.00    -0.354 N 
HETATM   15  C   UNL     1      26.111  50.231  47.943  1.00  0.00     0.156 C 
HETATM   16  C   UNL     1      24.407  48.543  48.688  1.00  0.00     0.045 A 
HETATM   17  C   UNL     1      24.406  47.456  49.567  1.00  0.00     0.001 A 
HETATM   18  C   UNL     1      23.255  48.922  47.974  1.00  0.00     0.030 A 
HETATM   19  C   UNL     1      23.207  46.724  49.722  1.00  0.00     0.014 A 
HETATM   20  C   UNL     1      22.059  47.093  49.014  1.00  0.00     0.001 A 
HETATM   21  C   UNL     1      22.085  48.179  48.152  1.00  0.00     0.002 A 
ENDBRANCH   1  11
BRANCH   2  22
HETATM   22  C   UNL     1      25.842  47.206  53.441  1.00  0.00     0.229 C 
BRANCH  22  23
HETATM   23  C   UNL     1      27.182  46.895  54.111  1.00  0.00     0.235 C 
HETATM   24  N   UNL     1      27.443  45.562  54.339  1.00  0.00    -0.357 N 
HETATM   25  H   UNL     1      26.830  44.880  53.909  1.00  0.00     0.162 HD
HETATM   26  O   UNL     1      27.900  47.795  54.549  1.00  0.00    -0.272 OA
BRANCH  24  27
HETATM   27  C   UNL     1      28.716  45.134  54.896  1.00  0.00     0.154 C 
BRANCH  27  28
HETATM   28  C   UNL     1      28.914  43.609  54.843  1.00  0.00     0.139 C 
HETATM   29  O   UNL     1      27.787  42.996  54.173  1.00  0.00    -0.384 OA
HETATM   30  C   UNL     1      28.297  42.024  53.257  1.00  0.00     0.168 C 
HETATM   31  C   UNL     1      29.627  42.572  52.802  1.00  0.00     0.029 C 
HETATM   32  C   UNL     1      30.165  43.192  54.068  1.00  0.00     0.035 C 
ENDBRANCH  27  28
ENDBRANCH  24  27
ENDBRANCH  22  23
ENDBRANCH   2  22
TORSDOF 5
ENDMDL
MODEL 5
REMARK VINA RESULT:      -8.9      5.959     10.578
REMARK  5 active torsions:
REMARK  status: ('A' for Active; 'I' for Inactive)
REMARK    1  A    between atoms: C_7  and  C_8 
REMARK    2  A    between atoms: N_9  and  C_10 
REMARK    3  A    between atoms: C_10  and  C_11 
REMARK       I    between atoms: C_11  and  N_12 
REMARK    4  A    between atoms: N_12  and  C_13 
REMARK    5  A    between atoms: C_13  and  C_14 
ROOT
HETATM    1  C   UNL     1      20.408  46.686  48.002  1.00  0.00     0.158 C 
HETATM    2  N   UNL     1      19.476  47.777  48.252  1.00  0.00    -0.326 N 
HETATM    3  C   UNL     1      18.742  48.047  47.096  1.00  0.00     0.255 C 
HETATM    4  O   UNL     1      17.742  48.731  46.988  1.00  0.00    -0.267 OA
HETATM    5  C   UNL     1      19.361  47.311  45.989  1.00  0.00     0.040 A 
HETATM    6  C   UNL     1      20.372  46.510  46.516  1.00  0.00    -0.015 A 
HETATM    7  C   UNL     1      19.029  47.315  44.648  1.00  0.00     0.017 A 
HETATM    8  C   UNL     1      19.757  46.473  43.805  1.00  0.00     0.001 A 
HETATM    9  C   UNL     1      20.779  45.655  44.320  1.00  0.00     0.001 A 
HETATM   10  C   UNL     1      21.089  45.664  45.684  1.00  0.00     0.011 A 
ENDROOT
BRANCH   1  11
HETATM   11  C   UNL     1      21.808  47.021  48.409  1.00  0.00     0.004 A 
HETATM   12  C   UNL     1      22.723  46.130  48.970  1.00  0.00     0.017 A 
HETATM   13  C   UNL     1      22.570  44.683  49.309  1.00  0.00     0.069 C 
HETATM   14  N   UNL     1      23.897  46.815  49.206  1.00  0.00    -0.354 N 
HETATM   15  C   UNL     1      25.082  46.226  49.797  1.00  0.00     0.156 C 
HETATM   16  C   UNL     1      23.778  48.128  48.804  1.00  0.00     0.045 A 
HETATM   17  C   UNL     1      22.484  48.289  48.301  1.00  0.00     0.001 A 
HETATM   18  C   UNL     1      24.698  49.193  48.840  1.00  0.00     0.030 A 
HETATM   19  C   UNL     1      22.110  49.561  47.812  1.00  0.00     0.014 A 
HETATM   20  C   UNL     1      23.019  50.623  47.843  1.00  0.00     0.001 A 
HETATM   21  C   UNL     1      24.297  50.439  48.352  1.00  0.00     0.002 A 
ENDBRANCH   1  11
BRANCH   2  22
HETATM   22  C   UNL     1      18.805  47.848  49.544  1.00  0.00     0.229 C 
BRANCH  22  23
HETATM   23  C   UNL     1      18.790  49.216  50.229  1.00  0.00     0.235 C 
HETATM   24  N   UNL     1      19.084  50.293  49.422  1.00  0.00    -0.357 N 
HETATM   25  H   UNL     1      19.122  50.139  48.421  1.00  0.00     0.162 HD
HETATM   26  O   UNL     1      18.673  49.316  51.451  1.00  0.00    -0.272 OA
BRANCH  24  27
HETATM   27  C   UNL     1      19.023  51.652  49.937  1.00  0.00     0.154 C 
BRANCH  27  28
HETATM   28  C   UNL     1      17.966  52.518  49.229  1.00  0.00     0.139 C 
HETATM   29  O   UNL     1      17.737  52.009  47.894  1.00  0.00    -0.384 OA
HETATM   30  C   UNL     1      16.325  51.987  47.670  1.00  0.00     0.168 C 
HETATM   31  C   UNL     1      15.716  51.716  49.023  1.00  0.00     0.029 C 
HETATM   32  C   UNL     1      16.612  52.512  49.940  1.00  0.00     0.035 C 
ENDBRANCH  27  28
ENDBRANCH  24  27
ENDBRANCH  22  23
ENDBRANCH   2  22
TORSDOF 5
ENDMDL
MODEL 6
REMARK VINA RESULT:      -8.8      2.087      3.306
REMARK  5 active torsions:
REMARK  status: ('A' for Active; 'I' for Inactive)
REMARK    1  A    between atoms: C_7  and  C_8 
REMARK    2  A    between atoms: N_9  and  C_10 
REMARK    3  A    between atoms: C_10  and  C_11 
REMARK       I    between atoms: C_11  and  N_12 
REMARK    4  A    between atoms: N_12  and  C_13 
REMARK    5  A    between atoms: C_13  and  C_14 
ROOT
HETATM    1  C   UNL     1      25.730  45.758  49.980  1.00  0.00     0.158 C 
HETATM    2  N   UNL     1      24.287  45.926  50.089  1.00  0.00    -0.326 N 
HETATM    3  C   UNL     1      23.915  47.168  49.570  1.00  0.00     0.255 C 
HETATM    4  O   UNL     1      22.796  47.560  49.300  1.00  0.00    -0.267 OA
HETATM    5  C   UNL     1      25.138  47.946  49.348  1.00  0.00     0.040 A 
HETATM    6  C   UNL     1      26.228  47.120  49.609  1.00  0.00    -0.015 A 
HETATM    7  C   UNL     1      25.272  49.249  48.909  1.00  0.00     0.017 A 
HETATM    8  C   UNL     1      26.568  49.736  48.732  1.00  0.00     0.001 A 
HETATM    9  C   UNL     1      27.681  48.915  48.989  1.00  0.00     0.001 A 
HETATM   10  C   UNL     1      27.517  47.596  49.424  1.00  0.00     0.011 A 
ENDROOT
BRANCH   1  11
HETATM   11  C   UNL     1      26.361  45.354  51.275  1.00  0.00     0.004 A 
HETATM   12  C   UNL     1      27.073  44.174  51.494  1.00  0.00     0.017 A 
HETATM   13  C   UNL     1      27.380  43.050  50.561  1.00  0.00     0.069 C 
HETATM   14  N   UNL     1      27.493  44.169  52.809  1.00  0.00    -0.354 N 
HETATM   15  C   UNL     1      28.255  43.096  53.418  1.00  0.00     0.156 C 
HETATM   16  C   UNL     1      27.084  45.317  53.452  1.00  0.00     0.045 A 
HETATM   17  C   UNL     1      26.374  46.079  52.520  1.00  0.00     0.001 A 
HETATM   18  C   UNL     1      27.275  45.754  54.776  1.00  0.00     0.030 A 
HETATM   19  C   UNL     1      25.849  47.324  52.935  1.00  0.00     0.014 A 
HETATM   20  C   UNL     1      26.036  47.764  54.248  1.00  0.00     0.001 A 
HETATM   21  C   UNL     1      26.740  46.987  55.156  1.00  0.00     0.002 A 
ENDBRANCH   1  11
BRANCH   2  22
HETATM   22  C   UNL     1      23.424  44.777  49.850  1.00  0.00     0.229 C 
BRANCH  22  23
HETATM   23  C   UNL     1      23.687  43.982  48.569  1.00  0.00     0.235 C 
HETATM   24  N   UNL     1      24.340  42.781  48.733  1.00  0.00    -0.357 N 
HETATM   25  H   UNL     1      24.451  42.427  49.676  1.00  0.00     0.162 HD
HETATM   26  O   UNL     1      23.461  44.467  47.460  1.00  0.00    -0.272 OA
BRANCH  24  27
HETATM   27  C   UNL     1      24.577  41.898  47.603  1.00  0.00     0.154 C 
BRANCH  27  28
HETATM   28  C   UNL     1      25.492  40.709  47.947  1.00  0.00     0.139 C 
HETATM   29  O   UNL     1      25.087  39.549  47.184  1.00  0.00    -0.384 OA
HETATM   30  C   UNL     1      26.268  38.934  46.662  1.00  0.00     0.168 C 
HETATM   31  C   UNL     1      27.232  40.069  46.427  1.00  0.00     0.029 C 
HETATM   32  C   UNL     1      26.961  40.966  47.611  1.00  0.00     0.035 C 
ENDBRANCH  27  28
ENDBRANCH  24  27
ENDBRANCH  22  23
ENDBRANCH   2  22
TORSDOF 5
ENDMDL
MODEL 7
REMARK VINA RESULT:      -8.8      6.483     10.727
REMARK  5 active torsions:
REMARK  status: ('A' for Active; 'I' for Inactive)
REMARK    1  A    between atoms: C_7  and  C_8 
REMARK    2  A    between atoms: N_9  and  C_10 
REMARK    3  A    between atoms: C_10  and  C_11 
REMARK       I    between atoms: C_11  and  N_12 
REMARK    4  A    between atoms: N_12  and  C_13 
REMARK    5  A    between atoms: C_13  and  C_14 
ROOT
HETATM    1  C   UNL     1      18.496  48.839  48.619  1.00  0.00     0.158 C 
HETATM    2  N   UNL     1      19.902  49.179  48.787  1.00  0.00    -0.326 N 
HETATM    3  C   UNL     1      20.015  50.457  49.338  1.00  0.00     0.255 C 
HETATM    4  O   UNL     1      21.006  50.981  49.811  1.00  0.00    -0.267 OA
HETATM    5  C   UNL     1      18.689  51.082  49.302  1.00  0.00     0.040 A 
HETATM    6  C   UNL     1      17.776  50.130  48.854  1.00  0.00    -0.015 A 
HETATM    7  C   UNL     1      18.319  52.359  49.676  1.00  0.00     0.017 A 
HETATM    8  C   UNL     1      16.965  52.686  49.586  1.00  0.00     0.001 A 
HETATM    9  C   UNL     1      16.028  51.737  49.139  1.00  0.00     0.001 A 
HETATM   10  C   UNL     1      16.429  50.447  48.774  1.00  0.00     0.011 A 
ENDROOT
BRANCH   1  11
HETATM   11  C   UNL     1      18.181  48.361  47.235  1.00  0.00     0.004 A 
HETATM   12  C   UNL     1      17.739  47.080  46.902  1.00  0.00     0.017 A 
HETATM   13  C   UNL     1      17.478  45.897  47.776  1.00  0.00     0.069 C 
HETATM   14  N   UNL     1      17.563  47.033  45.535  1.00  0.00    -0.354 N 
HETATM   15  C   UNL     1      17.121  45.858  44.809  1.00  0.00     0.156 C 
HETATM   16  C   UNL     1      17.867  48.250  44.966  1.00  0.00     0.045 A 
HETATM   17  C   UNL     1      18.257  49.102  46.003  1.00  0.00     0.001 A 
HETATM   18  C   UNL     1      17.836  48.679  43.625  1.00  0.00     0.030 A 
HETATM   19  C   UNL     1      18.618  50.430  45.677  1.00  0.00     0.014 A 
HETATM   20  C   UNL     1      18.588  50.863  44.348  1.00  0.00     0.001 A 
HETATM   21  C   UNL     1      18.202  49.995  43.336  1.00  0.00     0.002 A 
ENDBRANCH   1  11
BRANCH   2  22
HETATM   22  C   UNL     1      20.832  48.142  49.215  1.00  0.00     0.229 C 
BRANCH  22  23
HETATM   23  C   UNL     1      22.257  48.237  48.665  1.00  0.00     0.235 C 
HETATM   24  N   UNL     1      23.234  48.540  49.586  1.00  0.00    -0.357 N 
HETATM   25  H   UNL     1      22.985  48.514  50.568  1.00  0.00     0.162 HD
HETATM   26  O   UNL     1      22.478  48.193  47.455  1.00  0.00    -0.272 OA
BRANCH  24  27
HETATM   27  C   UNL     1      24.637  48.579  49.203  1.00  0.00     0.154 C 
BRANCH  27  28
HETATM   28  C   UNL     1      25.509  47.601  50.009  1.00  0.00     0.139 C 
HETATM   29  O   UNL     1      25.152  47.673  51.409  1.00  0.00    -0.384 OA
HETATM   30  C   UNL     1      25.062  46.335  51.908  1.00  0.00     0.168 C 
HETATM   31  C   UNL     1      24.590  45.510  50.737  1.00  0.00     0.029 C 
HETATM   32  C   UNL     1      25.328  46.143  49.583  1.00  0.00     0.035 C 
ENDBRANCH  27  28
ENDBRANCH  24  27
ENDBRANCH  22  23
ENDBRANCH   2  22
TORSDOF 5
ENDMDL
MODEL 8
REMARK VINA RESULT:      -8.6      2.007      5.073
REMARK  5 active torsions:
REMARK  status: ('A' for Active; 'I' for Inactive)
REMARK    1  A    between atoms: C_7  and  C_8 
REMARK    2  A    between atoms: N_9  and  C_10 
REMARK    3  A    between atoms: C_10  and  C_11 
REMARK       I    between atoms: C_11  and  N_12 
REMARK    4  A    between atoms: N_12  and  C_13 
REMARK    5  A    between atoms: C_13  and  C_14 
ROOT
HETATM    1  C   UNL     1      25.764  43.431  51.324  1.00  0.00     0.158 C 
HETATM    2  N   UNL     1      27.058  43.203  50.696  1.00  0.00    -0.326 N 
HETATM    3  C   UNL     1      28.077  43.394  51.631  1.00  0.00     0.255 C 
HETATM    4  O   UNL     1      29.250  43.089  51.530  1.00  0.00    -0.267 OA
HETATM    5  C   UNL     1      27.483  44.004  52.825  1.00  0.00     0.040 A 
HETATM    6  C   UNL     1      26.102  44.049  52.644  1.00  0.00    -0.015 A 
HETATM    7  C   UNL     1      28.102  44.434  53.982  1.00  0.00     0.017 A 
HETATM    8  C   UNL     1      27.286  44.936  54.997  1.00  0.00     0.001 A 
HETATM    9  C   UNL     1      25.890  44.987  54.833  1.00  0.00     0.001 A 
HETATM   10  C   UNL     1      25.288  44.537  53.654  1.00  0.00     0.011 A 
ENDROOT
BRANCH   1  11
HETATM   11  C   UNL     1      24.911  44.388  50.552  1.00  0.00     0.004 A 
HETATM   12  C   UNL     1      23.671  44.091  49.985  1.00  0.00     0.017 A 
HETATM   13  C   UNL     1      22.897  42.813  49.983  1.00  0.00     0.069 C 
HETATM   14  N   UNL     1      23.204  45.229  49.360  1.00  0.00    -0.354 N 
HETATM   15  C   UNL     1      21.946  45.310  48.644  1.00  0.00     0.156 C 
HETATM   16  C   UNL     1      24.101  46.265  49.511  1.00  0.00     0.045 A 
HETATM   17  C   UNL     1      25.178  45.771  50.252  1.00  0.00     0.001 A 
HETATM   18  C   UNL     1      24.060  47.597  49.058  1.00  0.00     0.030 A 
HETATM   19  C   UNL     1      26.242  46.652  50.552  1.00  0.00     0.014 A 
HETATM   20  C   UNL     1      26.208  47.976  50.107  1.00  0.00     0.001 A 
HETATM   21  C   UNL     1      25.128  48.441  49.369  1.00  0.00     0.002 A 
ENDBRANCH   1  11
BRANCH   2  22
HETATM   22  C   UNL     1      27.189  42.127  49.722  1.00  0.00     0.229 C 
BRANCH  22  23
HETATM   23  C   UNL     1      27.405  40.721  50.285  1.00  0.00     0.235 C 
HETATM   24  N   UNL     1      28.664  40.191  50.106  1.00  0.00    -0.357 N 
HETATM   25  H   UNL     1      29.395  40.809  49.776  1.00  0.00     0.162 HD
HETATM   26  O   UNL     1      26.466  40.061  50.730  1.00  0.00    -0.272 OA
BRANCH  24  27
HETATM   27  C   UNL     1      29.017  38.897  50.666  1.00  0.00     0.154 C 
BRANCH  27  28
HETATM   28  C   UNL     1      28.887  37.745  49.654  1.00  0.00     0.139 C 
HETATM   29  O   UNL     1      27.580  37.137  49.776  1.00  0.00    -0.384 OA
HETATM   30  C   UNL     1      27.064  36.938  48.457  1.00  0.00     0.168 C 
HETATM   31  C   UNL     1      27.630  38.071  47.637  1.00  0.00     0.029 C 
HETATM   32  C   UNL     1      29.024  38.205  48.201  1.00  0.00     0.035 C 
ENDBRANCH  27  28
ENDBRANCH  24  27
ENDBRANCH  22  23
ENDBRANCH   2  22
TORSDOF 5
ENDMDL
MODEL 9
REMARK VINA RESULT:      -8.6     10.966     13.590
REMARK  5 active torsions:
REMARK  status: ('A' for Active; 'I' for Inactive)
REMARK    1  A    between atoms: C_7  and  C_8 
REMARK    2  A    between atoms: N_9  and  C_10 
REMARK    3  A    between atoms: C_10  and  C_11 
REMARK       I    between atoms: C_11  and  N_12 
REMARK    4  A    between atoms: N_12  and  C_13 
REMARK    5  A    between atoms: C_13  and  C_14 
ROOT
HETATM    1  C   UNL     1      28.569  49.191  40.060  1.00  0.00     0.158 C 
HETATM    2  N   UNL     1      29.452  49.107  38.904  1.00  0.00    -0.326 N 
HETATM    3  C   UNL     1      30.004  50.362  38.639  1.00  0.00     0.255 C 
HETATM    4  O   UNL     1      30.932  50.628  37.900  1.00  0.00    -0.267 OA
HETATM    5  C   UNL     1      29.291  51.348  39.457  1.00  0.00     0.040 A 
HETATM    6  C   UNL     1      28.417  50.661  40.296  1.00  0.00    -0.015 A 
HETATM    7  C   UNL     1      29.439  52.721  39.490  1.00  0.00     0.017 A 
HETATM    8  C   UNL     1      28.662  53.428  40.409  1.00  0.00     0.001 A 
HETATM    9  C   UNL     1      27.775  52.751  41.266  1.00  0.00     0.001 A 
HETATM   10  C   UNL     1      27.651  51.358  41.218  1.00  0.00     0.011 A 
ENDROOT
BRANCH   1  11
HETATM   11  C   UNL     1      27.217  48.607  39.794  1.00  0.00     0.004 A 
HETATM   12  C   UNL     1      26.290  49.097  38.874  1.00  0.00     0.017 A 
HETATM   13  C   UNL     1      26.376  50.275  37.959  1.00  0.00     0.069 C 
HETATM   14  N   UNL     1      25.172  48.290  38.924  1.00  0.00    -0.354 N 
HETATM   15  C   UNL     1      23.984  48.491  38.118  1.00  0.00     0.156 C 
HETATM   16  C   UNL     1      25.348  47.279  39.844  1.00  0.00     0.045 A 
HETATM   17  C   UNL     1      26.616  47.449  40.405  1.00  0.00     0.001 A 
HETATM   18  C   UNL     1      24.498  46.226  40.234  1.00  0.00     0.030 A 
HETATM   19  C   UNL     1      27.044  46.523  41.384  1.00  0.00     0.014 A 
HETATM   20  C   UNL     1      26.206  45.474  41.775  1.00  0.00     0.001 A 
HETATM   21  C   UNL     1      24.949  45.330  41.206  1.00  0.00     0.002 A 
ENDBRANCH   1  11
BRANCH   2  22
HETATM   22  C   UNL     1      30.285  47.923  38.739  1.00  0.00     0.229 C 
BRANCH  22  23
HETATM   23  C   UNL     1      31.306  47.648  39.845  1.00  0.00     0.235 C 
HETATM   24  N   UNL     1      32.133  48.700  40.170  1.00  0.00    -0.357 N 
HETATM   25  H   UNL     1      31.911  49.613  39.791  1.00  0.00     0.162 HD
HETATM   26  O   UNL     1      31.466  46.514  40.298  1.00  0.00    -0.272 OA
BRANCH  24  27
HETATM   27  C   UNL     1      33.090  48.589  41.260  1.00  0.00     0.154 C 
BRANCH  27  28
HETATM   28  C   UNL     1      33.227  49.887  42.076  1.00  0.00     0.139 C 
HETATM   29  O   UNL     1      33.154  51.028  41.189  1.00  0.00    -0.384 OA
HETATM   30  C   UNL     1      32.292  51.997  41.792  1.00  0.00     0.168 C 
HETATM   31  C   UNL     1      31.278  51.194  42.567  1.00  0.00     0.029 C 
HETATM   32  C   UNL     1      32.116  50.064  43.112  1.00  0.00     0.035 C 
ENDBRANCH  27  28
ENDBRANCH  24  27
ENDBRANCH  22  23
ENDBRANCH   2  22
TORSDOF 5
ENDMDL
MODEL 10
REMARK VINA RESULT:      -8.5     10.731     13.585
REMARK  5 active torsions:
REMARK  status: ('A' for Active; 'I' for Inactive)
REMARK    1  A    between atoms: C_7  and  C_8 
REMARK    2  A    between atoms: N_9  and  C_10 
REMARK    3  A    between atoms: C_10  and  C_11 
REMARK       I    between atoms: C_11  and  N_12 
REMARK    4  A    between atoms: N_12  and  C_13 
REMARK    5  A    between atoms: C_13  and  C_14 
ROOT
HETATM    1  C   UNL     1      28.688  47.674  39.701  1.00  0.00     0.158 C 
HETATM    2  N   UNL     1      27.728  48.472  40.453  1.00  0.00    -0.326 N 
HETATM    3  C   UNL     1      28.395  49.229  41.417  1.00  0.00     0.255 C 
HETATM    4  O   UNL     1      27.958  50.154  42.074  1.00  0.00    -0.267 OA
HETATM    5  C   UNL     1      29.778  48.747  41.489  1.00  0.00     0.040 A 
HETATM    6  C   UNL     1      29.959  47.803  40.481  1.00  0.00    -0.015 A 
HETATM    7  C   UNL     1      30.794  49.143  42.337  1.00  0.00     0.017 A 
HETATM    8  C   UNL     1      32.046  48.552  42.158  1.00  0.00     0.001 A 
HETATM    9  C   UNL     1      32.247  47.599  41.143  1.00  0.00     0.001 A 
HETATM   10  C   UNL     1      31.203  47.222  40.292  1.00  0.00     0.011 A 
ENDROOT
BRANCH   1  11
HETATM   11  C   UNL     1      28.309  46.228  39.638  1.00  0.00     0.004 A 
HETATM   12  C   UNL     1      28.688  45.335  38.635  1.00  0.00     0.017 A 
HETATM   13  C   UNL     1      29.518  45.559  37.413  1.00  0.00     0.069 C 
HETATM   14  N   UNL     1      28.142  44.104  38.932  1.00  0.00    -0.354 N 
HETATM   15  C   UNL     1      28.304  42.919  38.111  1.00  0.00     0.156 C 
HETATM   16  C   UNL     1      27.426  44.163  40.108  1.00  0.00     0.045 A 
HETATM   17  C   UNL     1      27.512  45.478  40.574  1.00  0.00     0.001 A 
HETATM   18  C   UNL     1      26.707  43.174  40.804  1.00  0.00     0.030 A 
HETATM   19  C   UNL     1      26.858  45.802  41.785  1.00  0.00     0.014 A 
HETATM   20  C   UNL     1      26.143  44.824  42.483  1.00  0.00     0.001 A 
HETATM   21  C   UNL     1      26.069  43.527  41.996  1.00  0.00     0.002 A 
ENDBRANCH   1  11
BRANCH   2  22
HETATM   22  C   UNL     1      26.600  49.066  39.747  1.00  0.00     0.229 C 
BRANCH  22  23
HETATM   23  C   UNL     1      26.935  50.150  38.719  1.00  0.00     0.235 C 
HETATM   24  N   UNL     1      27.575  51.265  39.213  1.00  0.00    -0.357 N 
HETATM   25  H   UNL     1      27.928  51.228  40.162  1.00  0.00     0.162 HD
HETATM   26  O   UNL     1      26.518  50.082  37.562  1.00  0.00    -0.272 OA
BRANCH  24  27
HETATM   27  C   UNL     1      28.018  52.327  38.324  1.00  0.00     0.154 C 
BRANCH  27  28
HETATM   28  C   UNL     1      29.528  52.607  38.424  1.00  0.00     0.139 C 
HETATM   29  O   UNL     1      29.957  52.469  39.799  1.00  0.00    -0.384 OA
HETATM   30  C   UNL     1      31.175  51.721  39.805  1.00  0.00     0.168 C 
HETATM   31  C   UNL     1      31.065  50.778  38.632  1.00  0.00     0.029 C 
HETATM   32  C   UNL     1      30.374  51.635  37.600  1.00  0.00     0.035 C 
ENDBRANCH  27  28
ENDBRANCH  24  27
ENDBRANCH  22  23
ENDBRANCH   2  22
TORSDOF 5
ENDMDL
