MODEL 1
REMARK VINA RESULT:      -8.2      0.000      0.000
REMARK  3 active torsions:
REMARK  status: ('A' for Active; 'I' for Inactive)
REMARK    1  A    between atoms: C_5  and  N_6 
REMARK       I    between atoms: N_6  and  C_7 
REMARK    2  A    between atoms: C_7  and  C_8 
REMARK    3  A    between atoms: C_8  and  C_9 
ROOT
HETATM    1  C   UNL     1      26.698  43.104  52.811  1.00  0.00     0.286 C 
HETATM    2  N   UNL     1      27.550  43.761  51.729  1.00  0.00    -0.056 N 
HETATM    3  H   UNL     1      28.362  44.174  52.238  1.00  0.00     0.278 HD
HETATM    4  H   UNL     1      27.947  43.061  51.092  1.00  0.00     0.278 HD
HETATM    5  C   UNL     1      26.879  44.875  50.976  1.00  0.00     0.209 C 
HETATM    6  C   UNL     1      26.295  45.902  51.978  1.00  0.00     0.115 C 
HETATM    7  N   UNL     1      25.511  45.278  53.042  1.00  0.00    -0.353 N 
HETATM    8  C   UNL     1      25.892  44.111  53.658  1.00  0.00     0.249 C 
HETATM    9  O   UNL     1      25.497  43.861  54.792  1.00  0.00    -0.271 OA
HETATM   10  C   UNL     1      25.836  44.301  50.015  1.00  0.00     0.035 C 
HETATM   11  C   UNL     1      25.075  45.417  49.303  1.00  0.00     0.002 C 
HETATM   12  C   UNL     1      24.437  46.380  50.302  1.00  0.00     0.002 C 
HETATM   13  C   UNL     1      25.476  46.975  51.253  1.00  0.00     0.027 C 
HETATM   14  H   UNL     1      25.010  45.895  53.679  1.00  0.00     0.163 HD
ENDROOT
BRANCH   1  15
HETATM   15  C   UNL     1      27.530  42.167  53.702  1.00  0.00     0.146 C 
BRANCH  15  16
HETATM   16  C   UNL     1      28.960  42.088  53.237  1.00  0.00     0.224 C 
HETATM   17  N   UNL     1      29.971  42.768  53.832  1.00  0.00    -0.327 N 
HETATM   18  H   UNL     1      30.856  42.590  53.363  1.00  0.00     0.169 HD
HETATM   19  O   UNL     1      29.236  41.303  52.317  1.00  0.00    -0.273 OA
BRANCH  17  20
HETATM   20  C   UNL     1      30.060  43.659  54.921  1.00  0.00     0.034 A 
HETATM   21  C   UNL     1      29.334  44.837  55.084  1.00  0.00     0.030 A 
HETATM   22  C   UNL     1      29.533  45.651  56.210  1.00  0.00     0.009 A 
HETATM   23  C   UNL     1      30.444  45.292  57.204  1.00  0.00    -0.062 A 
HETATM   24  C   UNL     1      30.687  46.178  58.390  1.00  0.00     0.048 C 
HETATM   25  C   UNL     1      31.166  44.108  57.053  1.00  0.00     0.009 A 
HETATM   26  C   UNL     1      30.972  43.303  55.926  1.00  0.00     0.030 A 
ENDBRANCH  17  20
ENDBRANCH  15  16
ENDBRANCH   1  15
TORSDOF 3
ENDMDL
MODEL 2
REMARK VINA RESULT:      -8.1      2.429      3.888
REMARK  3 active torsions:
REMARK  status: ('A' for Active; 'I' for Inactive)
REMARK    1  A    between atoms: C_5  and  N_6 
REMARK       I    between atoms: N_6  and  C_7 
REMARK    2  A    between atoms: C_7  and  C_8 
REMARK    3  A    between atoms: C_8  and  C_9 
ROOT
HETATM    1  C   UNL     1      26.953  42.705  52.285  1.00  0.00     0.286 C 
HETATM    2  N   UNL     1      25.730  42.632  51.376  1.00  0.00    -0.056 N 
HETATM    3  H   UNL     1      24.966  42.260  51.980  1.00  0.00     0.278 HD
HETATM    4  H   UNL     1      25.426  43.568  51.086  1.00  0.00     0.278 HD
HETATM    5  C   UNL     1      25.862  41.706  50.200  1.00  0.00     0.209 C 
HETATM    6  C   UNL     1      26.325  40.310  50.688  1.00  0.00     0.115 C 
HETATM    7  N   UNL     1      27.471  40.373  51.592  1.00  0.00    -0.353 N 
HETATM    8  C   UNL     1      27.594  41.330  52.569  1.00  0.00     0.249 C 
HETATM    9  O   UNL     1      28.284  41.109  53.558  1.00  0.00    -0.271 OA
HETATM   10  C   UNL     1      26.791  42.322  49.151  1.00  0.00     0.035 C 
HETATM   11  C   UNL     1      27.015  41.362  47.987  1.00  0.00     0.002 C 
HETATM   12  C   UNL     1      27.546  40.015  48.471  1.00  0.00     0.002 C 
HETATM   13  C   UNL     1      26.614  39.380  49.504  1.00  0.00     0.027 C 
HETATM   14  H   UNL     1      27.897  39.491  51.873  1.00  0.00     0.163 HD
ENDROOT
BRANCH   1  15
HETATM   15  C   UNL     1      26.649  43.458  53.590  1.00  0.00     0.146 C 
BRANCH  15  16
HETATM   16  C   UNL     1      26.973  44.924  53.471  1.00  0.00     0.224 C 
HETATM   17  N   UNL     1      28.013  45.508  54.116  1.00  0.00    -0.327 N 
HETATM   18  H   UNL     1      28.055  46.503  53.916  1.00  0.00     0.169 HD
HETATM   19  O   UNL     1      26.304  45.611  52.685  1.00  0.00    -0.273 OA
BRANCH  17  20
HETATM   20  C   UNL     1      29.016  45.051  54.997  1.00  0.00     0.034 A 
HETATM   21  C   UNL     1      29.395  45.649  56.196  1.00  0.00     0.030 A 
HETATM   22  C   UNL     1      30.428  45.103  56.973  1.00  0.00     0.009 A 
HETATM   23  C   UNL     1      31.086  43.937  56.577  1.00  0.00    -0.062 A 
HETATM   24  C   UNL     1      32.216  43.372  57.386  1.00  0.00     0.048 C 
HETATM   25  C   UNL     1      30.703  43.327  55.384  1.00  0.00     0.009 A 
HETATM   26  C   UNL     1      29.679  43.877  54.606  1.00  0.00     0.030 A 
ENDBRANCH  17  20
ENDBRANCH  15  16
ENDBRANCH   1  15
TORSDOF 3
ENDMDL
MODEL 3
REMARK VINA RESULT:      -8.1      5.119      7.549
REMARK  3 active torsions:
REMARK  status: ('A' for Active; 'I' for Inactive)
REMARK    1  A    between atoms: C_5  and  N_6 
REMARK       I    between atoms: N_6  and  C_7 
REMARK    2  A    between atoms: C_7  and  C_8 
REMARK    3  A    between atoms: C_8  and  C_9 
ROOT
HETATM    1  C   UNL     1      23.178  49.287  49.273  1.00  0.00     0.286 C 
HETATM    2  N   UNL     1      21.833  48.678  49.656  1.00  0.00    -0.056 N 
HETATM    3  H   UNL     1      21.763  47.802  49.093  1.00  0.00     0.278 HD
HETATM    4  H   UNL     1      21.826  48.379  50.638  1.00  0.00     0.278 HD
HETATM    5  C   UNL     1      20.633  49.520  49.326  1.00  0.00     0.209 C 
HETATM    6  C   UNL     1      20.691  49.946  47.837  1.00  0.00     0.115 C 
HETATM    7  N   UNL     1      21.990  50.494  47.452  1.00  0.00    -0.353 N 
HETATM    8  C   UNL     1      23.179  49.960  47.884  1.00  0.00     0.249 C 
HETATM    9  O   UNL     1      24.199  50.127  47.226  1.00  0.00    -0.271 OA
HETATM   10  C   UNL     1      20.541  50.701  50.294  1.00  0.00     0.035 C 
HETATM   11  C   UNL     1      19.383  51.623  49.924  1.00  0.00     0.002 C 
HETATM   12  C   UNL     1      19.492  52.101  48.478  1.00  0.00     0.002 C 
HETATM   13  C   UNL     1      19.563  50.928  47.501  1.00  0.00     0.027 C 
HETATM   14  H   UNL     1      22.073  50.891  46.517  1.00  0.00     0.163 HD
ENDROOT
BRANCH   1  15
HETATM   15  C   UNL     1      24.323  48.269  49.399  1.00  0.00     0.146 C 
BRANCH  15  16
HETATM   16  C   UNL     1      23.803  46.856  49.441  1.00  0.00     0.224 C 
HETATM   17  N   UNL     1      24.171  45.960  50.390  1.00  0.00    -0.327 N 
HETATM   18  H   UNL     1      23.721  45.061  50.238  1.00  0.00     0.169 HD
HETATM   19  O   UNL     1      22.941  46.522  48.615  1.00  0.00    -0.273 OA
BRANCH  17  20
HETATM   20  C   UNL     1      25.032  45.996  51.507  1.00  0.00     0.034 A 
HETATM   21  C   UNL     1      25.378  47.125  52.245  1.00  0.00     0.030 A 
HETATM   22  C   UNL     1      26.267  47.029  53.327  1.00  0.00     0.009 A 
HETATM   23  C   UNL     1      26.810  45.800  53.704  1.00  0.00    -0.062 A 
HETATM   24  C   UNL     1      27.790  45.699  54.835  1.00  0.00     0.048 C 
HETATM   25  C   UNL     1      26.459  44.663  52.976  1.00  0.00     0.009 A 
HETATM   26  C   UNL     1      25.579  44.763  51.893  1.00  0.00     0.030 A 
ENDBRANCH  17  20
ENDBRANCH  15  16
ENDBRANCH   1  15
TORSDOF 3
ENDMDL
MODEL 4
REMARK VINA RESULT:      -8.1      2.444      3.900
REMARK  3 active torsions:
REMARK  status: ('A' for Active; 'I' for Inactive)
REMARK    1  A    between atoms: C_5  and  N_6 
REMARK       I    between atoms: N_6  and  C_7 
REMARK    2  A    between atoms: C_7  and  C_8 
REMARK    3  A    between atoms: C_8  and  C_9 
ROOT
HETATM    1  C   UNL     1      26.106  45.204  50.145  1.00  0.00     0.286 C 
HETATM    2  N   UNL     1      26.187  46.370  51.125  1.00  0.00    -0.056 N 
HETATM    3  H   UNL     1      25.499  46.141  51.875  1.00  0.00     0.278 HD
HETATM    4  H   UNL     1      27.102  46.403  51.589  1.00  0.00     0.278 HD
HETATM    5  C   UNL     1      25.805  47.708  50.559  1.00  0.00     0.209 C 
HETATM    6  C   UNL     1      24.422  47.605  49.870  1.00  0.00     0.115 C 
HETATM    7  N   UNL     1      24.322  46.467  48.960  1.00  0.00    -0.353 N 
HETATM    8  C   UNL     1      24.847  45.232  49.253  1.00  0.00     0.249 C 
HETATM    9  O   UNL     1      24.383  44.228  48.725  1.00  0.00    -0.271 OA
HETATM   10  C   UNL     1      26.911  48.218  49.632  1.00  0.00     0.035 C 
HETATM   11  C   UNL     1      26.508  49.533  48.971  1.00  0.00     0.002 C 
HETATM   12  C   UNL     1      25.181  49.399  48.228  1.00  0.00     0.002 C 
HETATM   13  C   UNL     1      24.065  48.912  49.152  1.00  0.00     0.027 C 
HETATM   14  H   UNL     1      23.478  46.392  48.392  1.00  0.00     0.163 HD
ENDROOT
BRANCH   1  15
HETATM   15  C   UNL     1      26.254  43.849  50.856  1.00  0.00     0.146 C 
BRANCH  15  16
HETATM   16  C   UNL     1      25.404  43.781  52.098  1.00  0.00     0.224 C 
HETATM   17  N   UNL     1      25.925  43.688  53.347  1.00  0.00    -0.327 N 
HETATM   18  H   UNL     1      25.188  43.642  54.047  1.00  0.00     0.169 HD
HETATM   19  O   UNL     1      24.175  43.893  51.976  1.00  0.00    -0.273 OA
BRANCH  17  20
HETATM   20  C   UNL     1      27.231  43.627  53.875  1.00  0.00     0.034 A 
HETATM   21  C   UNL     1      28.094  42.535  53.815  1.00  0.00     0.030 A 
HETATM   22  C   UNL     1      29.367  42.597  54.402  1.00  0.00     0.009 A 
HETATM   23  C   UNL     1      29.810  43.757  55.039  1.00  0.00    -0.062 A 
HETATM   24  C   UNL     1      31.156  43.814  55.700  1.00  0.00     0.048 C 
HETATM   25  C   UNL     1      28.956  44.858  55.092  1.00  0.00     0.009 A 
HETATM   26  C   UNL     1      27.684  44.792  54.514  1.00  0.00     0.030 A 
ENDBRANCH  17  20
ENDBRANCH  15  16
ENDBRANCH   1  15
TORSDOF 3
ENDMDL
MODEL 5
REMARK VINA RESULT:      -8.0      5.342      8.065
REMARK  3 active torsions:
REMARK  status: ('A' for Active; 'I' for Inactive)
REMARK    1  A    between atoms: C_5  and  N_6 
REMARK       I    between atoms: N_6  and  C_7 
REMARK    2  A    between atoms: C_7  and  C_8 
REMARK    3  A    between atoms: C_8  and  C_9 
ROOT
HETATM    1  C   UNL     1      21.986  48.792  48.976  1.00  0.00     0.286 C 
HETATM    2  N   UNL     1      21.969  49.998  49.909  1.00  0.00    -0.056 N 
HETATM    3  H   UNL     1      22.085  49.601  50.866  1.00  0.00     0.278 HD
HETATM    4  H   UNL     1      22.787  50.598  49.755  1.00  0.00     0.278 HD
HETATM    5  C   UNL     1      20.693  50.792  49.904  1.00  0.00     0.209 C 
HETATM    6  C   UNL     1      19.491  49.843  50.136  1.00  0.00     0.115 C 
HETATM    7  N   UNL     1      19.520  48.663  49.274  1.00  0.00    -0.353 N 
HETATM    8  C   UNL     1      20.676  47.976  48.996  1.00  0.00     0.249 C 
HETATM    9  O   UNL     1      20.623  46.795  48.673  1.00  0.00    -0.271 OA
HETATM   10  C   UNL     1      20.588  51.603  48.610  1.00  0.00     0.035 C 
HETATM   11  C   UNL     1      19.257  52.348  48.539  1.00  0.00     0.002 C 
HETATM   12  C   UNL     1      18.076  51.392  48.690  1.00  0.00     0.002 C 
HETATM   13  C   UNL     1      18.161  50.592  49.990  1.00  0.00     0.027 C 
HETATM   14  H   UNL     1      18.710  48.045  49.296  1.00  0.00     0.163 HD
ENDROOT
BRANCH   1  15
HETATM   15  C   UNL     1      23.206  47.891  49.229  1.00  0.00     0.146 C 
BRANCH  15  16
HETATM   16  C   UNL     1      24.496  48.658  49.099  1.00  0.00     0.224 C 
HETATM   17  N   UNL     1      25.680  48.204  49.579  1.00  0.00    -0.327 N 
HETATM   18  H   UNL     1      26.426  48.871  49.402  1.00  0.00     0.169 HD
HETATM   19  O   UNL     1      24.487  49.718  48.454  1.00  0.00    -0.273 OA
BRANCH  17  20
HETATM   20  C   UNL     1      26.090  47.043  50.268  1.00  0.00     0.034 A 
HETATM   21  C   UNL     1      26.674  45.912  49.701  1.00  0.00     0.030 A 
HETATM   22  C   UNL     1      27.017  44.809  50.498  1.00  0.00     0.009 A 
HETATM   23  C   UNL     1      26.805  44.825  51.878  1.00  0.00    -0.062 A 
HETATM   24  C   UNL     1      27.137  43.634  52.727  1.00  0.00     0.048 C 
HETATM   25  C   UNL     1      26.232  45.959  52.452  1.00  0.00     0.009 A 
HETATM   26  C   UNL     1      25.882  47.053  51.655  1.00  0.00     0.030 A 
ENDBRANCH  17  20
ENDBRANCH  15  16
ENDBRANCH   1  15
TORSDOF 3
ENDMDL
MODEL 6
REMARK VINA RESULT:      -7.9      2.302      3.630
REMARK  3 active torsions:
REMARK  status: ('A' for Active; 'I' for Inactive)
REMARK    1  A    between atoms: C_5  and  N_6 
REMARK       I    between atoms: N_6  and  C_7 
REMARK    2  A    between atoms: C_7  and  C_8 
REMARK    3  A    between atoms: C_8  and  C_9 
ROOT
HETATM    1  C   UNL     1      25.777  44.116  51.399  1.00  0.00     0.286 C 
HETATM    2  N   UNL     1      24.791  42.955  51.467  1.00  0.00    -0.056 N 
HETATM    3  H   UNL     1      25.382  42.106  51.608  1.00  0.00     0.278 HD
HETATM    4  H   UNL     1      24.196  43.021  52.301  1.00  0.00     0.278 HD
HETATM    5  C   UNL     1      23.977  42.734  50.224  1.00  0.00     0.209 C 
HETATM    6  C   UNL     1      24.918  42.644  48.997  1.00  0.00     0.115 C 
HETATM    7  N   UNL     1      25.894  43.731  48.945  1.00  0.00    -0.353 N 
HETATM    8  C   UNL     1      26.542  44.201  50.061  1.00  0.00     0.249 C 
HETATM    9  O   UNL     1      27.628  44.757  49.949  1.00  0.00    -0.271 OA
HETATM   10  C   UNL     1      22.912  43.826  50.096  1.00  0.00     0.035 C 
HETATM   11  C   UNL     1      22.131  43.677  48.793  1.00  0.00     0.002 C 
HETATM   12  C   UNL     1      23.062  43.669  47.583  1.00  0.00     0.002 C 
HETATM   13  C   UNL     1      24.117  42.567  47.692  1.00  0.00     0.027 C 
HETATM   14  H   UNL     1      26.479  43.798  48.113  1.00  0.00     0.163 HD
ENDROOT
BRANCH   1  15
HETATM   15  C   UNL     1      26.745  44.114  52.594  1.00  0.00     0.146 C 
BRANCH  15  16
HETATM   16  C   UNL     1      26.773  45.451  53.286  1.00  0.00     0.224 C 
HETATM   17  N   UNL     1      27.676  45.770  54.246  1.00  0.00    -0.327 N 
HETATM   18  H   UNL     1      27.520  46.712  54.596  1.00  0.00     0.169 HD
HETATM   19  O   UNL     1      25.982  46.327  52.904  1.00  0.00    -0.273 OA
BRANCH  17  20
HETATM   20  C   UNL     1      28.748  45.092  54.863  1.00  0.00     0.034 A 
HETATM   21  C   UNL     1      29.295  43.875  54.460  1.00  0.00     0.030 A 
HETATM   22  C   UNL     1      30.352  43.294  55.176  1.00  0.00     0.009 A 
HETATM   23  C   UNL     1      30.896  43.926  56.295  1.00  0.00    -0.062 A 
HETATM   24  C   UNL     1      32.000  43.289  57.086  1.00  0.00     0.048 C 
HETATM   25  C   UNL     1      30.361  45.149  56.697  1.00  0.00     0.009 A 
HETATM   26  C   UNL     1      29.302  45.724  55.986  1.00  0.00     0.030 A 
ENDBRANCH  17  20
ENDBRANCH  15  16
ENDBRANCH   1  15
TORSDOF 3
ENDMDL
MODEL 7
REMARK VINA RESULT:      -7.8      3.679      8.475
REMARK  3 active torsions:
REMARK  status: ('A' for Active; 'I' for Inactive)
REMARK    1  A    between atoms: C_5  and  N_6 
REMARK       I    between atoms: N_6  and  C_7 
REMARK    2  A    between atoms: C_7  and  C_8 
REMARK    3  A    between atoms: C_8  and  C_9 
ROOT
HETATM    1  C   UNL     1      25.876  46.352  51.443  1.00  0.00     0.286 C 
HETATM    2  N   UNL     1      25.724  44.866  51.137  1.00  0.00    -0.056 N 
HETATM    3  H   UNL     1      24.700  44.678  51.216  1.00  0.00     0.278 HD
HETATM    4  H   UNL     1      25.969  44.660  50.162  1.00  0.00     0.278 HD
HETATM    5  C   UNL     1      26.426  43.941  52.090  1.00  0.00     0.209 C 
HETATM    6  C   UNL     1      26.024  44.293  53.545  1.00  0.00     0.115 C 
HETATM    7  N   UNL     1      26.129  45.722  53.835  1.00  0.00    -0.353 N 
HETATM    8  C   UNL     1      25.743  46.692  52.943  1.00  0.00     0.249 C 
HETATM    9  O   UNL     1      25.420  47.802  53.348  1.00  0.00    -0.271 OA
HETATM   10  C   UNL     1      27.936  43.988  51.847  1.00  0.00     0.035 C 
HETATM   11  C   UNL     1      28.680  43.127  52.864  1.00  0.00     0.002 C 
HETATM   12  C   UNL     1      28.338  43.535  54.295  1.00  0.00     0.002 C 
HETATM   13  C   UNL     1      26.833  43.470  54.554  1.00  0.00     0.027 C 
HETATM   14  H   UNL     1      25.981  46.017  54.800  1.00  0.00     0.163 HD
ENDROOT
BRANCH   1  15
HETATM   15  C   UNL     1      24.927  47.211  50.592  1.00  0.00     0.146 C 
BRANCH  15  16
HETATM   16  C   UNL     1      25.687  48.131  49.673  1.00  0.00     0.224 C 
HETATM   17  N   UNL     1      25.082  49.031  48.859  1.00  0.00    -0.327 N 
HETATM   18  H   UNL     1      25.766  49.546  48.312  1.00  0.00     0.169 HD
HETATM   19  O   UNL     1      26.927  48.117  49.721  1.00  0.00    -0.273 OA
BRANCH  17  20
HETATM   20  C   UNL     1      23.743  49.391  48.601  1.00  0.00     0.034 A 
HETATM   21  C   UNL     1      22.744  48.552  48.110  1.00  0.00     0.030 A 
HETATM   22  C   UNL     1      21.450  49.042  47.875  1.00  0.00     0.009 A 
HETATM   23  C   UNL     1      21.124  50.371  48.147  1.00  0.00    -0.062 A 
HETATM   24  C   UNL     1      19.753  50.907  47.862  1.00  0.00     0.048 C 
HETATM   25  C   UNL     1      22.116  51.213  48.650  1.00  0.00     0.009 A 
HETATM   26  C   UNL     1      23.407  50.725  48.875  1.00  0.00     0.030 A 
ENDBRANCH  17  20
ENDBRANCH  15  16
ENDBRANCH   1  15
TORSDOF 3
ENDMDL
MODEL 8
REMARK VINA RESULT:      -7.8      2.442      6.655
REMARK  3 active torsions:
REMARK  status: ('A' for Active; 'I' for Inactive)
REMARK    1  A    between atoms: C_5  and  N_6 
REMARK       I    between atoms: N_6  and  C_7 
REMARK    2  A    between atoms: C_7  and  C_8 
REMARK    3  A    between atoms: C_8  and  C_9 
ROOT
HETATM    1  C   UNL     1      26.336  44.707  52.812  1.00  0.00     0.286 C 
HETATM    2  N   UNL     1      26.368  43.243  53.241  1.00  0.00    -0.056 N 
HETATM    3  H   UNL     1      25.722  43.187  54.059  1.00  0.00     0.278 HD
HETATM    4  H   UNL     1      25.959  42.636  52.522  1.00  0.00     0.278 HD
HETATM    5  C   UNL     1      27.709  42.739  53.693  1.00  0.00     0.209 C 
HETATM    6  C   UNL     1      28.284  43.688  54.774  1.00  0.00     0.115 C 
HETATM    7  N   UNL     1      28.220  45.097  54.388  1.00  0.00    -0.353 N 
HETATM    8  C   UNL     1      27.137  45.641  53.743  1.00  0.00     0.249 C 
HETATM    9  O   UNL     1      26.911  46.843  53.835  1.00  0.00    -0.271 OA
HETATM   10  C   UNL     1      28.634  42.560  52.486  1.00  0.00     0.035 C 
HETATM   11  C   UNL     1      30.032  42.136  52.927  1.00  0.00     0.002 C 
HETATM   12  C   UNL     1      30.621  43.122  53.933  1.00  0.00     0.002 C 
HETATM   13  C   UNL     1      29.715  43.291  55.153  1.00  0.00     0.027 C 
HETATM   14  H   UNL     1      28.672  45.773  55.002  1.00  0.00     0.163 HD
ENDROOT
BRANCH   1  15
HETATM   15  C   UNL     1      24.897  45.213  52.619  1.00  0.00     0.146 C 
BRANCH  15  16
HETATM   16  C   UNL     1      24.300  44.704  51.333  1.00  0.00     0.224 C 
HETATM   17  N   UNL     1      24.360  45.392  50.166  1.00  0.00    -0.327 N 
HETATM   18  H   UNL     1      23.890  44.887  49.420  1.00  0.00     0.169 HD
HETATM   19  O   UNL     1      23.800  43.570  51.326  1.00  0.00    -0.273 OA
BRANCH  17  20
HETATM   20  C   UNL     1      24.905  46.632  49.772  1.00  0.00     0.034 A 
HETATM   21  C   UNL     1      24.188  47.772  49.418  1.00  0.00     0.030 A 
HETATM   22  C   UNL     1      24.854  48.943  49.022  1.00  0.00     0.009 A 
HETATM   23  C   UNL     1      26.248  49.002  48.995  1.00  0.00    -0.062 A 
HETATM   24  C   UNL     1      26.963  50.239  48.537  1.00  0.00     0.048 C 
HETATM   25  C   UNL     1      26.972  47.868  49.360  1.00  0.00     0.009 A 
HETATM   26  C   UNL     1      26.306  46.699  49.746  1.00  0.00     0.030 A 
ENDBRANCH  17  20
ENDBRANCH  15  16
ENDBRANCH   1  15
TORSDOF 3
ENDMDL
MODEL 9
REMARK VINA RESULT:      -7.6      2.258      3.207
REMARK  3 active torsions:
REMARK  status: ('A' for Active; 'I' for Inactive)
REMARK    1  A    between atoms: C_5  and  N_6 
REMARK       I    between atoms: N_6  and  C_7 
REMARK    2  A    between atoms: C_7  and  C_8 
REMARK    3  A    between atoms: C_8  and  C_9 
ROOT
HETATM    1  C   UNL     1      26.618  42.381  50.904  1.00  0.00     0.286 C 
HETATM    2  N   UNL     1      25.433  42.933  51.690  1.00  0.00    -0.056 N 
HETATM    3  H   UNL     1      24.607  42.395  51.348  1.00  0.00     0.278 HD
HETATM    4  H   UNL     1      25.514  42.712  52.689  1.00  0.00     0.278 HD
HETATM    5  C   UNL     1      25.142  44.391  51.469  1.00  0.00     0.209 C 
HETATM    6  C   UNL     1      25.031  44.673  49.950  1.00  0.00     0.115 C 
HETATM    7  N   UNL     1      26.142  44.112  49.183  1.00  0.00    -0.353 N 
HETATM    8  C   UNL     1      26.672  42.872  49.442  1.00  0.00     0.249 C 
HETATM    9  O   UNL     1      27.254  42.258  48.555  1.00  0.00    -0.271 OA
HETATM   10  C   UNL     1      26.198  45.247  52.172  1.00  0.00     0.035 C 
HETATM   11  C   UNL     1      25.978  46.730  51.886  1.00  0.00     0.002 C 
HETATM   12  C   UNL     1      25.949  47.009  50.385  1.00  0.00     0.002 C 
HETATM   13  C   UNL     1      24.882  46.174  49.677  1.00  0.00     0.027 C 
HETATM   14  H   UNL     1      26.193  44.345  48.192  1.00  0.00     0.163 HD
ENDROOT
BRANCH   1  15
HETATM   15  C   UNL     1      26.688  40.847  50.979  1.00  0.00     0.146 C 
BRANCH  15  16
HETATM   16  C   UNL     1      28.112  40.361  51.040  1.00  0.00     0.224 C 
HETATM   17  N   UNL     1      29.031  40.868  51.898  1.00  0.00    -0.327 N 
HETATM   18  H   UNL     1      29.934  40.416  51.775  1.00  0.00     0.169 HD
HETATM   19  O   UNL     1      28.436  39.401  50.325  1.00  0.00    -0.273 OA
BRANCH  17  20
HETATM   20  C   UNL     1      29.015  41.871  52.890  1.00  0.00     0.034 A 
HETATM   21  C   UNL     1      27.966  42.150  53.763  1.00  0.00     0.030 A 
HETATM   22  C   UNL     1      28.069  43.195  54.694  1.00  0.00     0.009 A 
HETATM   23  C   UNL     1      29.228  43.966  54.784  1.00  0.00    -0.062 A 
HETATM   24  C   UNL     1      29.326  45.108  55.752  1.00  0.00     0.048 C 
HETATM   25  C   UNL     1      30.286  43.685  53.921  1.00  0.00     0.009 A 
HETATM   26  C   UNL     1      30.179  42.649  52.988  1.00  0.00     0.030 A 
ENDBRANCH  17  20
ENDBRANCH  15  16
ENDBRANCH   1  15
TORSDOF 3
ENDMDL
MODEL 10
REMARK VINA RESULT:      -7.5      3.140      6.102
REMARK  3 active torsions:
REMARK  status: ('A' for Active; 'I' for Inactive)
REMARK    1  A    between atoms: C_5  and  N_6 
REMARK       I    between atoms: N_6  and  C_7 
REMARK    2  A    between atoms: C_7  and  C_8 
REMARK    3  A    between atoms: C_8  and  C_9 
ROOT
HETATM    1  C   UNL     1      26.592  44.815  51.432  1.00  0.00     0.286 C 
HETATM    2  N   UNL     1      26.223  44.310  52.823  1.00  0.00    -0.056 N 
HETATM    3  H   UNL     1      25.191  44.159  52.791  1.00  0.00     0.278 HD
HETATM    4  H   UNL     1      26.634  43.386  53.003  1.00  0.00     0.278 HD
HETATM    5  C   UNL     1      26.502  45.268  53.946  1.00  0.00     0.209 C 
HETATM    6  C   UNL     1      25.866  46.643  53.625  1.00  0.00     0.115 C 
HETATM    7  N   UNL     1      26.180  47.117  52.279  1.00  0.00    -0.353 N 
HETATM    8  C   UNL     1      26.198  46.287  51.185  1.00  0.00     0.249 C 
HETATM    9  O   UNL     1      26.017  46.749  50.064  1.00  0.00    -0.271 OA
HETATM   10  C   UNL     1      28.008  45.340  54.209  1.00  0.00     0.035 C 
HETATM   11  C   UNL     1      28.326  46.376  55.284  1.00  0.00     0.002 C 
HETATM   12  C   UNL     1      27.762  47.747  54.920  1.00  0.00     0.002 C 
HETATM   13  C   UNL     1      26.254  47.689  54.677  1.00  0.00     0.027 C 
HETATM   14  H   UNL     1      25.883  48.060  52.032  1.00  0.00     0.163 HD
ENDROOT
BRANCH   1  15
HETATM   15  C   UNL     1      26.041  43.899  50.327  1.00  0.00     0.146 C 
BRANCH  15  16
HETATM   16  C   UNL     1      25.064  42.894  50.877  1.00  0.00     0.224 C 
HETATM   17  N   UNL     1      25.360  41.580  51.031  1.00  0.00    -0.327 N 
HETATM   18  H   UNL     1      24.566  41.068  51.405  1.00  0.00     0.169 HD
HETATM   19  O   UNL     1      23.964  43.304  51.281  1.00  0.00    -0.273 OA
BRANCH  17  20
HETATM   20  C   UNL     1      26.497  40.784  50.776  1.00  0.00     0.034 A 
HETATM   21  C   UNL     1      27.720  40.858  51.438  1.00  0.00     0.030 A 
HETATM   22  C   UNL     1      28.784  40.019  51.072  1.00  0.00     0.009 A 
HETATM   23  C   UNL     1      28.638  39.076  50.053  1.00  0.00    -0.062 A 
HETATM   24  C   UNL     1      29.784  38.205  49.634  1.00  0.00     0.048 C 
HETATM   25  C   UNL     1      27.412  38.989  49.394  1.00  0.00     0.009 A 
HETATM   26  C   UNL     1      26.356  39.832  49.755  1.00  0.00     0.030 A 
ENDBRANCH  17  20
ENDBRANCH  15  16
ENDBRANCH   1  15
TORSDOF 3
ENDMDL
