MODEL 1
REMARK VINA RESULT:      -9.5      0.000      0.000
REMARK  6 active torsions:
REMARK  status: ('A' for Active; 'I' for Inactive)
REMARK    1  A    between atoms: C_2  and  C_3 
REMARK    2  A    between atoms: C_3  and  C_4 
REMARK    3  A    between atoms: C_3  and  C_10 
REMARK    4  A    between atoms: C_10  and  C_11 
REMARK       I    between atoms: C_11  and  N_12 
REMARK    5  A    between atoms: N_12  and  C_13 
REMARK    6  A    between atoms: C_20  and  C_21 
REMARK       I    between atoms: C_21  and  N_22 
ROOT
HETATM    1  C   UNL     1      27.575  41.900  51.314  1.00  0.00     0.035 A 
HETATM    2  C   UNL     1      28.225  40.666  51.180  1.00  0.00     0.046 A 
HETATM    3  C   UNL     1      28.276  40.038  49.915  1.00  0.00     0.030 A 
HETATM    4  C   UNL     1      27.672  40.662  48.832  1.00  0.00     0.063 A 
HETATM    5  N   UNL     1      27.875  39.826  47.771  1.00  0.00    -0.277 N 
HETATM    6  H   UNL     1      27.564  39.961  46.814  1.00  0.00     0.189 HD
HETATM    7  N   UNL     1      28.570  38.715  48.062  1.00  0.00    -0.168 NA
HETATM    8  C   UNL     1      28.828  38.832  49.385  1.00  0.00     0.156 A 
HETATM    9  C   UNL     1      27.020  41.893  48.927  1.00  0.00     0.034 A 
HETATM   10  C   UNL     1      26.990  42.498  50.189  1.00  0.00     0.032 A 
ENDROOT
BRANCH   1  11
HETATM   11  N   UNL     1      27.470  42.606  52.532  1.00  0.00    -0.327 N 
HETATM   12  C   UNL     1      28.450  43.357  53.164  1.00  0.00     0.222 C 
HETATM   13  O   UNL     1      29.599  43.523  52.777  1.00  0.00    -0.273 OA
HETATM   14  H   UNL     1      26.592  42.506  53.026  1.00  0.00     0.169 HD
BRANCH  12  15
HETATM   15  C   UNL     1      27.926  43.964  54.460  1.00  0.00     0.113 C 
BRANCH  15  16
HETATM   16  C   UNL     1      28.593  45.308  54.834  1.00  0.00     0.030 C 
BRANCH  16  17
HETATM   17  C   UNL     1      27.576  46.481  55.008  1.00  0.00    -0.014 C 
HETATM   18  C   UNL     1      26.247  46.187  54.301  1.00  0.00     0.010 C 
HETATM   19  C   UNL     1      28.088  47.859  54.579  1.00  0.00     0.010 C 
ENDBRANCH  16  17
BRANCH  16  20
HETATM   20  C   UNL     1      29.535  45.131  56.025  1.00  0.00    -0.053 A 
HETATM   21  C   UNL     1      29.431  45.912  57.187  1.00  0.00     0.007 A 
HETATM   22  C   UNL     1      30.303  45.717  58.261  1.00  0.00     0.001 A 
HETATM   23  C   UNL     1      31.291  44.738  58.189  1.00  0.00     0.000 A 
HETATM   24  C   UNL     1      31.409  43.956  57.044  1.00  0.00     0.001 A 
HETATM   25  C   UNL     1      30.538  44.150  55.970  1.00  0.00     0.007 A 
ENDBRANCH  16  20
ENDBRANCH  15  16
ENDBRANCH  12  15
ENDBRANCH   1  11
BRANCH   8  26
HETATM   26  C   UNL     1      29.594  37.802  50.102  1.00  0.00     0.270 C 
HETATM   27  N   UNL     1      28.831  36.768  50.574  1.00  0.00    -0.365 N 
HETATM   28  H   UNL     1      27.834  36.781  50.396  1.00  0.00     0.159 HD
HETATM   29  H   UNL     1      29.271  36.011  51.071  1.00  0.00     0.159 HD
HETATM   30  O   UNL     1      30.806  37.827  50.280  1.00  0.00    -0.266 OA
ENDBRANCH   8  26
TORSDOF 6
ENDMDL
MODEL 2
REMARK VINA RESULT:      -9.4      5.322      7.482
REMARK  6 active torsions:
REMARK  status: ('A' for Active; 'I' for Inactive)
REMARK    1  A    between atoms: C_2  and  C_3 
REMARK    2  A    between atoms: C_3  and  C_4 
REMARK    3  A    between atoms: C_3  and  C_10 
REMARK    4  A    between atoms: C_10  and  C_11 
REMARK       I    between atoms: C_11  and  N_12 
REMARK    5  A    between atoms: N_12  and  C_13 
REMARK    6  A    between atoms: C_20  and  C_21 
REMARK       I    between atoms: C_21  and  N_22 
ROOT
HETATM    1  C   UNL     1      26.102  47.317  50.332  1.00  0.00     0.035 A 
HETATM    2  C   UNL     1      24.801  47.566  49.874  1.00  0.00     0.046 A 
HETATM    3  C   UNL     1      24.578  48.600  48.936  1.00  0.00     0.030 A 
HETATM    4  C   UNL     1      25.660  49.350  48.494  1.00  0.00     0.063 A 
HETATM    5  N   UNL     1      25.138  50.261  47.620  1.00  0.00    -0.277 N 
HETATM    6  H   UNL     1      25.640  50.977  47.107  1.00  0.00     0.189 HD
HETATM    7  N   UNL     1      23.811  50.165  47.441  1.00  0.00    -0.168 NA
HETATM    8  C   UNL     1      23.449  49.140  48.246  1.00  0.00     0.156 A 
HETATM    9  C   UNL     1      26.969  49.128  48.925  1.00  0.00     0.034 A 
HETATM   10  C   UNL     1      27.165  48.093  49.848  1.00  0.00     0.032 A 
ENDROOT
BRANCH   1  11
HETATM   11  N   UNL     1      26.428  46.311  51.265  1.00  0.00    -0.327 N 
HETATM   12  C   UNL     1      27.014  45.078  51.014  1.00  0.00     0.222 C 
HETATM   13  O   UNL     1      27.336  44.638  49.918  1.00  0.00    -0.273 OA
HETATM   14  H   UNL     1      26.152  46.489  52.222  1.00  0.00     0.169 HD
BRANCH  12  15
HETATM   15  C   UNL     1      27.204  44.287  52.303  1.00  0.00     0.113 C 
BRANCH  15  16
HETATM   16  C   UNL     1      27.575  45.163  53.522  1.00  0.00     0.030 C 
BRANCH  16  17
HETATM   17  C   UNL     1      26.358  45.498  54.442  1.00  0.00    -0.014 C 
HETATM   18  C   UNL     1      25.154  44.596  54.139  1.00  0.00     0.010 C 
HETATM   19  C   UNL     1      25.911  46.963  54.427  1.00  0.00     0.010 C 
ENDBRANCH  16  17
BRANCH  16  20
HETATM   20  C   UNL     1      28.766  44.567  54.274  1.00  0.00    -0.053 A 
HETATM   21  C   UNL     1      29.377  43.367  53.880  1.00  0.00     0.007 A 
HETATM   22  C   UNL     1      30.470  42.856  54.584  1.00  0.00     0.001 A 
HETATM   23  C   UNL     1      30.969  43.539  55.691  1.00  0.00     0.000 A 
HETATM   24  C   UNL     1      30.374  44.730  56.095  1.00  0.00     0.001 A 
HETATM   25  C   UNL     1      29.281  45.242  55.393  1.00  0.00     0.007 A 
ENDBRANCH  16  20
ENDBRANCH  15  16
ENDBRANCH  12  15
ENDBRANCH   1  11
BRANCH   8  26
HETATM   26  C   UNL     1      22.049  48.701  48.333  1.00  0.00     0.270 C 
HETATM   27  N   UNL     1      21.437  49.022  49.515  1.00  0.00    -0.365 N 
HETATM   28  H   UNL     1      21.967  49.525  50.215  1.00  0.00     0.159 HD
HETATM   29  H   UNL     1      20.472  48.769  49.661  1.00  0.00     0.159 HD
HETATM   30  O   UNL     1      21.445  48.104  47.449  1.00  0.00    -0.266 OA
ENDBRANCH   8  26
TORSDOF 6
ENDMDL
MODEL 3
REMARK VINA RESULT:      -9.1      5.371      7.889
REMARK  6 active torsions:
REMARK  status: ('A' for Active; 'I' for Inactive)
REMARK    1  A    between atoms: C_2  and  C_3 
REMARK    2  A    between atoms: C_3  and  C_4 
REMARK    3  A    between atoms: C_3  and  C_10 
REMARK    4  A    between atoms: C_10  and  C_11 
REMARK       I    between atoms: C_11  and  N_12 
REMARK    5  A    between atoms: N_12  and  C_13 
REMARK    6  A    between atoms: C_20  and  C_21 
REMARK       I    between atoms: C_21  and  N_22 
ROOT
HETATM    1  C   UNL     1      25.866  47.422  50.649  1.00  0.00     0.035 A 
HETATM    2  C   UNL     1      24.604  47.733  50.122  1.00  0.00     0.046 A 
HETATM    3  C   UNL     1      24.499  48.683  49.081  1.00  0.00     0.030 A 
HETATM    4  C   UNL     1      25.654  49.291  48.608  1.00  0.00     0.063 A 
HETATM    5  N   UNL     1      25.238  50.151  47.631  1.00  0.00    -0.277 N 
HETATM    6  H   UNL     1      25.815  50.767  47.069  1.00  0.00     0.189 HD
HETATM    7  N   UNL     1      23.913  50.150  47.414  1.00  0.00    -0.168 NA
HETATM    8  C   UNL     1      23.441  49.245  48.302  1.00  0.00     0.156 A 
HETATM    9  C   UNL     1      26.926  49.003  49.105  1.00  0.00     0.034 A 
HETATM   10  C   UNL     1      27.006  48.053  50.131  1.00  0.00     0.032 A 
ENDROOT
BRANCH   1  11
HETATM   11  N   UNL     1      26.076  46.490  51.687  1.00  0.00    -0.327 N 
HETATM   12  C   UNL     1      25.887  46.680  53.049  1.00  0.00     0.222 C 
HETATM   13  O   UNL     1      25.518  47.713  53.592  1.00  0.00    -0.273 OA
HETATM   14  H   UNL     1      26.461  45.597  51.408  1.00  0.00     0.169 HD
BRANCH  12  15
HETATM   15  C   UNL     1      26.223  45.416  53.831  1.00  0.00     0.113 C 
BRANCH  15  16
HETATM   16  C   UNL     1      27.733  45.238  54.111  1.00  0.00     0.030 C 
BRANCH  16  17
HETATM   17  C   UNL     1      28.153  45.658  55.555  1.00  0.00    -0.014 C 
HETATM   18  C   UNL     1      27.870  47.143  55.818  1.00  0.00     0.010 C 
HETATM   19  C   UNL     1      29.603  45.342  55.933  1.00  0.00     0.010 C 
ENDBRANCH  16  17
BRANCH  16  20
HETATM   20  C   UNL     1      28.194  43.833  53.722  1.00  0.00    -0.053 A 
HETATM   21  C   UNL     1      29.402  43.599  53.048  1.00  0.00     0.007 A 
HETATM   22  C   UNL     1      29.797  42.301  52.717  1.00  0.00     0.001 A 
HETATM   23  C   UNL     1      28.990  41.217  53.056  1.00  0.00     0.000 A 
HETATM   24  C   UNL     1      27.788  41.431  53.724  1.00  0.00     0.001 A 
HETATM   25  C   UNL     1      27.392  42.729  54.055  1.00  0.00     0.007 A 
ENDBRANCH  16  20
ENDBRANCH  15  16
ENDBRANCH  12  15
ENDBRANCH   1  11
BRANCH   8  26
HETATM   26  C   UNL     1      22.006  48.936  48.381  1.00  0.00     0.270 C 
HETATM   27  N   UNL     1      21.414  49.332  49.550  1.00  0.00    -0.365 N 
HETATM   28  H   UNL     1      21.982  49.797  50.247  1.00  0.00     0.159 HD
HETATM   29  H   UNL     1      20.429  49.171  49.689  1.00  0.00     0.159 HD
HETATM   30  O   UNL     1      21.359  48.381  47.500  1.00  0.00    -0.266 OA
ENDBRANCH   8  26
TORSDOF 6
ENDMDL
MODEL 4
REMARK VINA RESULT:      -8.6      4.586      6.437
REMARK  6 active torsions:
REMARK  status: ('A' for Active; 'I' for Inactive)
REMARK    1  A    between atoms: C_2  and  C_3 
REMARK    2  A    between atoms: C_3  and  C_4 
REMARK    3  A    between atoms: C_3  and  C_10 
REMARK    4  A    between atoms: C_10  and  C_11 
REMARK       I    between atoms: C_11  and  N_12 
REMARK    5  A    between atoms: N_12  and  C_13 
REMARK    6  A    between atoms: C_20  and  C_21 
REMARK       I    between atoms: C_21  and  N_22 
ROOT
HETATM    1  C   UNL     1      24.535  44.230  50.067  1.00  0.00     0.035 A 
HETATM    2  C   UNL     1      24.059  45.503  49.723  1.00  0.00     0.046 A 
HETATM    3  C   UNL     1      23.252  45.659  48.573  1.00  0.00     0.030 A 
HETATM    4  C   UNL     1      22.954  44.540  47.806  1.00  0.00     0.063 A 
HETATM    5  N   UNL     1      22.182  44.999  46.777  1.00  0.00    -0.277 N 
HETATM    6  H   UNL     1      21.785  44.457  46.017  1.00  0.00     0.189 HD
HETATM    7  N   UNL     1      21.938  46.319  46.810  1.00  0.00    -0.168 NA
HETATM    8  C   UNL     1      22.590  46.742  47.917  1.00  0.00     0.156 A 
HETATM    9  C   UNL     1      23.406  43.257  48.120  1.00  0.00     0.034 A 
HETATM   10  C   UNL     1      24.198  43.128  49.269  1.00  0.00     0.032 A 
ENDROOT
BRANCH   1  11
HETATM   11  N   UNL     1      25.345  43.972  51.192  1.00  0.00    -0.327 N 
HETATM   12  C   UNL     1      26.723  44.109  51.295  1.00  0.00     0.222 C 
HETATM   13  O   UNL     1      27.484  44.465  50.406  1.00  0.00    -0.273 OA
HETATM   14  H   UNL     1      24.871  43.590  52.000  1.00  0.00     0.169 HD
BRANCH  12  15
HETATM   15  C   UNL     1      27.209  43.733  52.689  1.00  0.00     0.113 C 
BRANCH  15  16
HETATM   16  C   UNL     1      27.567  44.949  53.574  1.00  0.00     0.030 C 
BRANCH  16  17
HETATM   17  C   UNL     1      26.341  45.552  54.330  1.00  0.00    -0.014 C 
HETATM   18  C   UNL     1      25.238  44.508  54.544  1.00  0.00     0.010 C 
HETATM   19  C   UNL     1      25.736  46.809  53.697  1.00  0.00     0.010 C 
ENDBRANCH  16  17
BRANCH  16  20
HETATM   20  C   UNL     1      28.751  44.625  54.486  1.00  0.00    -0.053 A 
HETATM   21  C   UNL     1      29.505  43.449  54.348  1.00  0.00     0.007 A 
HETATM   22  C   UNL     1      30.586  43.189  55.192  1.00  0.00     0.001 A 
HETATM   23  C   UNL     1      30.932  44.102  56.186  1.00  0.00     0.000 A 
HETATM   24  C   UNL     1      30.194  45.273  56.338  1.00  0.00     0.001 A 
HETATM   25  C   UNL     1      29.113  45.533  55.494  1.00  0.00     0.007 A 
ENDBRANCH  16  20
ENDBRANCH  15  16
ENDBRANCH  12  15
ENDBRANCH   1  11
BRANCH   8  26
HETATM   26  C   UNL     1      22.563  48.155  48.320  1.00  0.00     0.270 C 
HETATM   27  N   UNL     1      21.854  48.393  49.467  1.00  0.00    -0.365 N 
HETATM   28  H   UNL     1      21.423  47.610  49.942  1.00  0.00     0.159 HD
HETATM   29  H   UNL     1      21.789  49.332  49.826  1.00  0.00     0.159 HD
HETATM   30  O   UNL     1      23.116  49.067  47.716  1.00  0.00    -0.266 OA
ENDBRANCH   8  26
TORSDOF 6
ENDMDL
MODEL 5
REMARK VINA RESULT:      -8.2      9.168     12.185
REMARK  6 active torsions:
REMARK  status: ('A' for Active; 'I' for Inactive)
REMARK    1  A    between atoms: C_2  and  C_3 
REMARK    2  A    between atoms: C_3  and  C_4 
REMARK    3  A    between atoms: C_3  and  C_10 
REMARK    4  A    between atoms: C_10  and  C_11 
REMARK       I    between atoms: C_11  and  N_12 
REMARK    5  A    between atoms: N_12  and  C_13 
REMARK    6  A    between atoms: C_20  and  C_21 
REMARK       I    between atoms: C_21  and  N_22 
ROOT
HETATM    1  C   UNL     1      22.712  49.227  49.076  1.00  0.00     0.035 A 
HETATM    2  C   UNL     1      23.646  48.309  49.576  1.00  0.00     0.046 A 
HETATM    3  C   UNL     1      25.014  48.462  49.257  1.00  0.00     0.030 A 
HETATM    4  C   UNL     1      25.400  49.521  48.446  1.00  0.00     0.063 A 
HETATM    5  N   UNL     1      26.753  49.400  48.309  1.00  0.00    -0.277 N 
HETATM    6  H   UNL     1      27.373  50.002  47.777  1.00  0.00     0.189 HD
HETATM    7  N   UNL     1      27.290  48.361  48.970  1.00  0.00    -0.168 NA
HETATM    8  C   UNL     1      26.227  47.772  49.564  1.00  0.00     0.156 A 
HETATM    9  C   UNL     1      24.499  50.456  47.934  1.00  0.00     0.034 A 
HETATM   10  C   UNL     1      23.150  50.288  48.271  1.00  0.00     0.032 A 
ENDROOT
BRANCH   1  11
HETATM   11  N   UNL     1      21.327  49.162  49.336  1.00  0.00    -0.327 N 
HETATM   12  C   UNL     1      20.423  48.209  48.886  1.00  0.00     0.222 C 
HETATM   13  O   UNL     1      20.675  47.259  48.157  1.00  0.00    -0.273 OA
HETATM   14  H   UNL     1      20.941  49.930  49.870  1.00  0.00     0.169 HD
BRANCH  12  15
HETATM   15  C   UNL     1      19.019  48.498  49.402  1.00  0.00     0.113 C 
BRANCH  15  16
HETATM   16  C   UNL     1      18.068  49.082  48.331  1.00  0.00     0.030 C 
BRANCH  16  17
HETATM   17  C   UNL     1      17.015  48.055  47.807  1.00  0.00    -0.014 C 
HETATM   18  C   UNL     1      16.795  46.911  48.806  1.00  0.00     0.010 C 
HETATM   19  C   UNL     1      17.302  47.472  46.421  1.00  0.00     0.010 C 
ENDBRANCH  16  17
BRANCH  16  20
HETATM   20  C   UNL     1      17.457  50.398  48.810  1.00  0.00    -0.053 A 
HETATM   21  C   UNL     1      16.102  50.711  48.614  1.00  0.00     0.007 A 
HETATM   22  C   UNL     1      15.574  51.920  49.074  1.00  0.00     0.001 A 
HETATM   23  C   UNL     1      16.391  52.833  49.737  1.00  0.00     0.000 A 
HETATM   24  C   UNL     1      17.737  52.539  49.937  1.00  0.00     0.001 A 
HETATM   25  C   UNL     1      18.266  51.331  49.478  1.00  0.00     0.007 A 
ENDBRANCH  16  20
ENDBRANCH  15  16
ENDBRANCH  12  15
ENDBRANCH   1  11
BRANCH   8  26
HETATM   26  C   UNL     1      26.393  46.579  50.407  1.00  0.00     0.270 C 
HETATM   27  N   UNL     1      26.821  45.471  49.727  1.00  0.00    -0.365 N 
HETATM   28  H   UNL     1      26.993  45.550  48.732  1.00  0.00     0.159 HD
HETATM   29  H   UNL     1      26.973  44.609  50.224  1.00  0.00     0.159 HD
HETATM   30  O   UNL     1      26.184  46.539  51.615  1.00  0.00    -0.266 OA
ENDBRANCH   8  26
TORSDOF 6
ENDMDL
MODEL 6
REMARK VINA RESULT:      -8.2      6.577      9.020
REMARK  6 active torsions:
REMARK  status: ('A' for Active; 'I' for Inactive)
REMARK    1  A    between atoms: C_2  and  C_3 
REMARK    2  A    between atoms: C_3  and  C_4 
REMARK    3  A    between atoms: C_3  and  C_10 
REMARK    4  A    between atoms: C_10  and  C_11 
REMARK       I    between atoms: C_11  and  N_12 
REMARK    5  A    between atoms: N_12  and  C_13 
REMARK    6  A    between atoms: C_20  and  C_21 
REMARK       I    between atoms: C_21  and  N_22 
ROOT
HETATM    1  C   UNL     1      23.922  48.242  49.200  1.00  0.00     0.035 A 
HETATM    2  C   UNL     1      22.547  47.966  49.216  1.00  0.00     0.046 A 
HETATM    3  C   UNL     1      21.630  48.966  48.819  1.00  0.00     0.030 A 
HETATM    4  C   UNL     1      22.118  50.205  48.426  1.00  0.00     0.063 A 
HETATM    5  N   UNL     1      21.014  50.948  48.117  1.00  0.00    -0.277 N 
HETATM    6  H   UNL     1      20.992  51.910  47.796  1.00  0.00     0.189 HD
HETATM    7  N   UNL     1      19.847  50.300  48.261  1.00  0.00    -0.168 NA
HETATM    8  C   UNL     1      20.211  49.071  48.693  1.00  0.00     0.156 A 
HETATM    9  C   UNL     1      23.478  50.514  48.393  1.00  0.00     0.034 A 
HETATM   10  C   UNL     1      24.367  49.505  48.784  1.00  0.00     0.032 A 
ENDROOT
BRANCH   1  11
HETATM   11  N   UNL     1      24.915  47.314  49.577  1.00  0.00    -0.327 N 
HETATM   12  C   UNL     1      25.380  47.042  50.856  1.00  0.00     0.222 C 
HETATM   13  O   UNL     1      25.015  47.585  51.891  1.00  0.00    -0.273 OA
HETATM   14  H   UNL     1      25.378  46.830  48.819  1.00  0.00     0.169 HD
BRANCH  12  15
HETATM   15  C   UNL     1      26.455  45.962  50.831  1.00  0.00     0.113 C 
BRANCH  15  16
HETATM   16  C   UNL     1      26.173  44.780  51.786  1.00  0.00     0.030 C 
BRANCH  16  17
HETATM   17  C   UNL     1      26.006  43.412  51.051  1.00  0.00    -0.014 C 
HETATM   18  C   UNL     1      26.642  43.437  49.655  1.00  0.00     0.010 C 
HETATM   19  C   UNL     1      24.567  42.899  50.945  1.00  0.00     0.010 C 
ENDBRANCH  16  17
BRANCH  16  20
HETATM   20  C   UNL     1      27.198  44.744  52.921  1.00  0.00    -0.053 A 
HETATM   21  C   UNL     1      27.253  45.736  53.913  1.00  0.00     0.007 A 
HETATM   22  C   UNL     1      28.196  45.668  54.941  1.00  0.00     0.001 A 
HETATM   23  C   UNL     1      29.096  44.606  54.994  1.00  0.00     0.000 A 
HETATM   24  C   UNL     1      29.056  43.614  54.018  1.00  0.00     0.001 A 
HETATM   25  C   UNL     1      28.114  43.682  52.989  1.00  0.00     0.007 A 
ENDBRANCH  16  20
ENDBRANCH  15  16
ENDBRANCH  12  15
ENDBRANCH   1  11
BRANCH   8  26
HETATM   26  C   UNL     1      19.206  48.034  48.966  1.00  0.00     0.270 C 
HETATM   27  N   UNL     1      19.037  47.758  50.296  1.00  0.00    -0.365 N 
HETATM   28  H   UNL     1      19.588  48.272  50.971  1.00  0.00     0.159 HD
HETATM   29  H   UNL     1      18.360  47.067  50.579  1.00  0.00     0.159 HD
HETATM   30  O   UNL     1      18.553  47.448  48.109  1.00  0.00    -0.266 OA
ENDBRANCH   8  26
TORSDOF 6
ENDMDL
MODEL 7
REMARK VINA RESULT:      -8.1      5.457      8.626
REMARK  6 active torsions:
REMARK  status: ('A' for Active; 'I' for Inactive)
REMARK    1  A    between atoms: C_2  and  C_3 
REMARK    2  A    between atoms: C_3  and  C_4 
REMARK    3  A    between atoms: C_3  and  C_10 
REMARK    4  A    between atoms: C_10  and  C_11 
REMARK       I    between atoms: C_11  and  N_12 
REMARK    5  A    between atoms: N_12  and  C_13 
REMARK    6  A    between atoms: C_20  and  C_21 
REMARK       I    between atoms: C_21  and  N_22 
ROOT
HETATM    1  C   UNL     1      25.706  47.200  50.215  1.00  0.00     0.035 A 
HETATM    2  C   UNL     1      24.420  47.549  49.776  1.00  0.00     0.046 A 
HETATM    3  C   UNL     1      24.255  48.654  48.911  1.00  0.00     0.030 A 
HETATM    4  C   UNL     1      25.376  49.374  48.520  1.00  0.00     0.063 A 
HETATM    5  N   UNL     1      24.905  50.369  47.711  1.00  0.00    -0.277 N 
HETATM    6  H   UNL     1      25.447  51.090  47.247  1.00  0.00     0.189 HD
HETATM    7  N   UNL     1      23.575  50.356  47.527  1.00  0.00    -0.168 NA
HETATM    8  C   UNL     1      23.158  49.299  48.262  1.00  0.00     0.156 A 
HETATM    9  C   UNL     1      26.670  49.053  48.933  1.00  0.00     0.034 A 
HETATM   10  C   UNL     1      26.809  47.949  49.783  1.00  0.00     0.032 A 
ENDROOT
BRANCH   1  11
HETATM   11  N   UNL     1      25.975  46.117  51.077  1.00  0.00    -0.327 N 
HETATM   12  C   UNL     1      26.232  46.161  52.441  1.00  0.00     0.222 C 
HETATM   13  O   UNL     1      26.289  47.167  53.135  1.00  0.00    -0.273 OA
HETATM   14  H   UNL     1      26.042  45.208  50.638  1.00  0.00     0.169 HD
BRANCH  12  15
HETATM   15  C   UNL     1      26.466  44.764  53.001  1.00  0.00     0.113 C 
BRANCH  15  16
HETATM   16  C   UNL     1      27.690  44.044  52.389  1.00  0.00     0.030 C 
BRANCH  16  17
HETATM   17  C   UNL     1      28.696  43.508  53.457  1.00  0.00    -0.014 C 
HETATM   18  C   UNL     1      28.889  44.508  54.604  1.00  0.00     0.010 C 
HETATM   19  C   UNL     1      30.064  43.087  52.914  1.00  0.00     0.010 C 
ENDBRANCH  16  17
BRANCH  16  20
HETATM   20  C   UNL     1      27.247  42.985  51.379  1.00  0.00    -0.053 A 
HETATM   21  C   UNL     1      27.094  43.268  50.013  1.00  0.00     0.007 A 
HETATM   22  C   UNL     1      26.696  42.274  49.116  1.00  0.00     0.001 A 
HETATM   23  C   UNL     1      26.447  40.981  49.572  1.00  0.00     0.000 A 
HETATM   24  C   UNL     1      26.592  40.684  50.924  1.00  0.00     0.001 A 
HETATM   25  C   UNL     1      26.989  41.677  51.821  1.00  0.00     0.007 A 
ENDBRANCH  16  20
ENDBRANCH  15  16
ENDBRANCH  12  15
ENDBRANCH   1  11
BRANCH   8  26
HETATM   26  C   UNL     1      21.736  48.930  48.321  1.00  0.00     0.270 C 
HETATM   27  N   UNL     1      21.155  49.146  49.541  1.00  0.00    -0.365 N 
HETATM   28  H   UNL     1      21.720  49.536  50.285  1.00  0.00     0.159 HD
HETATM   29  H   UNL     1      20.179  48.932  49.673  1.00  0.00     0.159 HD
HETATM   30  O   UNL     1      21.091  48.473  47.384  1.00  0.00    -0.266 OA
ENDBRANCH   8  26
TORSDOF 6
ENDMDL
MODEL 8
REMARK VINA RESULT:      -8.1      8.645     11.711
REMARK  6 active torsions:
REMARK  status: ('A' for Active; 'I' for Inactive)
REMARK    1  A    between atoms: C_2  and  C_3 
REMARK    2  A    between atoms: C_3  and  C_4 
REMARK    3  A    between atoms: C_3  and  C_10 
REMARK    4  A    between atoms: C_10  and  C_11 
REMARK       I    between atoms: C_11  and  N_12 
REMARK    5  A    between atoms: N_12  and  C_13 
REMARK    6  A    between atoms: C_20  and  C_21 
REMARK       I    between atoms: C_21  and  N_22 
ROOT
HETATM    1  C   UNL     1      23.622  49.349  48.966  1.00  0.00     0.035 A 
HETATM    2  C   UNL     1      23.687  48.105  49.610  1.00  0.00     0.046 A 
HETATM    3  C   UNL     1      24.940  47.474  49.783  1.00  0.00     0.030 A 
HETATM    4  C   UNL     1      26.080  48.103  49.302  1.00  0.00     0.063 A 
HETATM    5  N   UNL     1      27.114  47.262  49.602  1.00  0.00    -0.277 N 
HETATM    6  H   UNL     1      28.097  47.399  49.394  1.00  0.00     0.189 HD
HETATM    7  N   UNL     1      26.751  46.142  50.248  1.00  0.00    -0.168 NA
HETATM    8  C   UNL     1      25.409  46.259  50.370  1.00  0.00     0.156 A 
HETATM    9  C   UNL     1      26.055  49.343  48.661  1.00  0.00     0.034 A 
HETATM   10  C   UNL     1      24.802  49.952  48.509  1.00  0.00     0.032 A 
ENDROOT
BRANCH   1  11
HETATM   11  N   UNL     1      22.423  50.059  48.746  1.00  0.00    -0.327 N 
HETATM   12  C   UNL     1      21.726  50.849  49.649  1.00  0.00     0.222 C 
HETATM   13  O   UNL     1      22.029  51.053  50.818  1.00  0.00    -0.273 OA
HETATM   14  H   UNL     1      21.995  49.932  47.838  1.00  0.00     0.169 HD
BRANCH  12  15
HETATM   15  C   UNL     1      20.479  51.446  49.008  1.00  0.00     0.113 C 
BRANCH  15  16
HETATM   16  C   UNL     1      19.326  50.433  48.825  1.00  0.00     0.030 C 
BRANCH  16  17
HETATM   17  C   UNL     1      19.494  49.137  49.681  1.00  0.00    -0.014 C 
HETATM   18  C   UNL     1      19.152  47.877  48.875  1.00  0.00     0.010 C 
HETATM   19  C   UNL     1      18.719  49.121  51.002  1.00  0.00     0.010 C 
ENDBRANCH  16  17
BRANCH  16  20
HETATM   20  C   UNL     1      17.971  51.116  49.006  1.00  0.00    -0.053 A 
HETATM   21  C   UNL     1      16.795  50.615  48.427  1.00  0.00     0.007 A 
HETATM   22  C   UNL     1      15.571  51.259  48.621  1.00  0.00     0.001 A 
HETATM   23  C   UNL     1      15.505  52.413  49.398  1.00  0.00     0.000 A 
HETATM   24  C   UNL     1      16.662  52.925  49.979  1.00  0.00     0.001 A 
HETATM   25  C   UNL     1      17.886  52.281  49.785  1.00  0.00     0.007 A 
ENDBRANCH  16  20
ENDBRANCH  15  16
ENDBRANCH  12  15
ENDBRANCH   1  11
BRANCH   8  26
HETATM   26  C   UNL     1      24.615  45.221  51.043  1.00  0.00     0.270 C 
HETATM   27  N   UNL     1      23.843  44.473  50.196  1.00  0.00    -0.365 N 
HETATM   28  H   UNL     1      23.877  44.675  49.204  1.00  0.00     0.159 HD
HETATM   29  H   UNL     1      23.271  43.731  50.567  1.00  0.00     0.159 HD
HETATM   30  O   UNL     1      24.619  45.008  52.251  1.00  0.00    -0.266 OA
ENDBRANCH   8  26
TORSDOF 6
ENDMDL
MODEL 9
REMARK VINA RESULT:      -8.0      5.380      7.604
REMARK  6 active torsions:
REMARK  status: ('A' for Active; 'I' for Inactive)
REMARK    1  A    between atoms: C_2  and  C_3 
REMARK    2  A    between atoms: C_3  and  C_4 
REMARK    3  A    between atoms: C_3  and  C_10 
REMARK    4  A    between atoms: C_10  and  C_11 
REMARK       I    between atoms: C_11  and  N_12 
REMARK    5  A    between atoms: N_12  and  C_13 
REMARK    6  A    between atoms: C_20  and  C_21 
REMARK       I    between atoms: C_21  and  N_22 
ROOT
HETATM    1  C   UNL     1      24.357  45.616  49.478  1.00  0.00     0.035 A 
HETATM    2  C   UNL     1      23.894  46.931  49.630  1.00  0.00     0.046 A 
HETATM    3  C   UNL     1      22.849  47.402  48.802  1.00  0.00     0.030 A 
HETATM    4  C   UNL     1      22.310  46.547  47.850  1.00  0.00     0.063 A 
HETATM    5  N   UNL     1      21.347  47.276  47.211  1.00  0.00    -0.277 N 
HETATM    6  H   UNL     1      20.749  46.970  46.451  1.00  0.00     0.189 HD
HETATM    7  N   UNL     1      21.200  48.529  47.670  1.00  0.00    -0.168 NA
HETATM    8  C   UNL     1      22.121  48.622  48.656  1.00  0.00     0.156 A 
HETATM    9  C   UNL     1      22.743  45.232  47.673  1.00  0.00     0.034 A 
HETATM   10  C   UNL     1      23.773  44.786  48.511  1.00  0.00     0.032 A 
ENDROOT
BRANCH   1  11
HETATM   11  N   UNL     1      25.393  45.053  50.253  1.00  0.00    -0.327 N 
HETATM   12  C   UNL     1      25.313  43.968  51.115  1.00  0.00     0.222 C 
HETATM   13  O   UNL     1      24.309  43.316  51.368  1.00  0.00    -0.273 OA
HETATM   14  H   UNL     1      26.284  45.531  50.214  1.00  0.00     0.169 HD
BRANCH  12  15
HETATM   15  C   UNL     1      26.665  43.676  51.754  1.00  0.00     0.113 C 
BRANCH  15  16
HETATM   16  C   UNL     1      27.059  44.677  52.865  1.00  0.00     0.030 C 
BRANCH  16  17
HETATM   17  C   UNL     1      25.880  45.042  53.821  1.00  0.00    -0.014 C 
HETATM   18  C   UNL     1      26.055  46.441  54.428  1.00  0.00     0.010 C 
HETATM   19  C   UNL     1      25.609  44.033  54.941  1.00  0.00     0.010 C 
ENDBRANCH  16  17
BRANCH  16  20
HETATM   20  C   UNL     1      28.318  44.208  53.594  1.00  0.00    -0.053 A 
HETATM   21  C   UNL     1      28.810  44.860  54.736  1.00  0.00     0.007 A 
HETATM   22  C   UNL     1      29.958  44.399  55.384  1.00  0.00     0.001 A 
HETATM   23  C   UNL     1      30.630  43.278  54.901  1.00  0.00     0.000 A 
HETATM   24  C   UNL     1      30.157  42.621  53.770  1.00  0.00     0.001 A 
HETATM   25  C   UNL     1      29.009  43.081  53.121  1.00  0.00     0.007 A 
ENDBRANCH  16  20
ENDBRANCH  15  16
ENDBRANCH  12  15
ENDBRANCH   1  11
BRANCH   8  26
HETATM   26  C   UNL     1      22.278  49.861  49.433  1.00  0.00     0.270 C 
HETATM   27  N   UNL     1      21.145  50.252  50.093  1.00  0.00    -0.365 N 
HETATM   28  H   UNL     1      20.313  49.681  50.009  1.00  0.00     0.159 HD
HETATM   29  H   UNL     1      21.160  51.086  50.659  1.00  0.00     0.159 HD
HETATM   30  O   UNL     1      23.314  50.511  49.513  1.00  0.00    -0.266 OA
ENDBRANCH   8  26
TORSDOF 6
ENDMDL
MODEL 10
REMARK VINA RESULT:      -7.8      6.537      9.956
REMARK  6 active torsions:
REMARK  status: ('A' for Active; 'I' for Inactive)
REMARK    1  A    between atoms: C_2  and  C_3 
REMARK    2  A    between atoms: C_3  and  C_4 
REMARK    3  A    between atoms: C_3  and  C_10 
REMARK    4  A    between atoms: C_10  and  C_11 
REMARK       I    between atoms: C_11  and  N_12 
REMARK    5  A    between atoms: N_12  and  C_13 
REMARK    6  A    between atoms: C_20  and  C_21 
REMARK       I    between atoms: C_21  and  N_22 
ROOT
HETATM    1  C   UNL     1      24.346  45.546  50.707  1.00  0.00     0.035 A 
HETATM    2  C   UNL     1      24.980  46.092  51.833  1.00  0.00     0.046 A 
HETATM    3  C   UNL     1      25.691  45.246  52.713  1.00  0.00     0.030 A 
HETATM    4  C   UNL     1      25.739  43.885  52.441  1.00  0.00     0.063 A 
HETATM    5  N   UNL     1      26.474  43.338  53.454  1.00  0.00    -0.277 N 
HETATM    6  H   UNL     1      26.710  42.359  53.583  1.00  0.00     0.189 HD
HETATM    7  N   UNL     1      26.922  44.223  54.359  1.00  0.00    -0.168 NA
HETATM    8  C   UNL     1      26.448  45.409  53.913  1.00  0.00     0.156 A 
HETATM    9  C   UNL     1      25.125  43.306  51.329  1.00  0.00     0.034 A 
HETATM   10  C   UNL     1      24.434  44.167  50.468  1.00  0.00     0.032 A 
ENDROOT
BRANCH   1  11
HETATM   11  N   UNL     1      23.614  46.305  49.771  1.00  0.00    -0.327 N 
HETATM   12  C   UNL     1      23.761  47.652  49.469  1.00  0.00     0.222 C 
HETATM   13  O   UNL     1      24.554  48.428  49.987  1.00  0.00    -0.273 OA
HETATM   14  H   UNL     1      22.857  45.822  49.305  1.00  0.00     0.169 HD
BRANCH  12  15
HETATM   15  C   UNL     1      22.775  48.084  48.391  1.00  0.00     0.113 C 
BRANCH  15  16
HETATM   16  C   UNL     1      21.723  49.105  48.882  1.00  0.00     0.030 C 
BRANCH  16  17
HETATM   17  C   UNL     1      21.828  50.496  48.178  1.00  0.00    -0.014 C 
HETATM   18  C   UNL     1      23.168  51.180  48.477  1.00  0.00     0.010 C 
HETATM   19  C   UNL     1      20.683  51.468  48.476  1.00  0.00     0.010 C 
ENDBRANCH  16  17
BRANCH  16  20
HETATM   20  C   UNL     1      20.319  48.500  48.837  1.00  0.00    -0.053 A 
HETATM   21  C   UNL     1      19.425  48.596  49.914  1.00  0.00     0.007 A 
HETATM   22  C   UNL     1      18.147  48.040  49.835  1.00  0.00     0.001 A 
HETATM   23  C   UNL     1      17.742  47.381  48.677  1.00  0.00     0.000 A 
HETATM   24  C   UNL     1      18.617  47.275  47.599  1.00  0.00     0.001 A 
HETATM   25  C   UNL     1      19.895  47.830  47.677  1.00  0.00     0.007 A 
ENDBRANCH  16  20
ENDBRANCH  15  16
ENDBRANCH  12  15
ENDBRANCH   1  11
BRANCH   8  26
HETATM   26  C   UNL     1      26.731  46.659  54.634  1.00  0.00     0.270 C 
HETATM   27  N   UNL     1      28.051  46.835  54.947  1.00  0.00    -0.365 N 
HETATM   28  H   UNL     1      28.715  46.124  54.664  1.00  0.00     0.159 HD
HETATM   29  H   UNL     1      28.341  47.668  55.433  1.00  0.00     0.159 HD
HETATM   30  O   UNL     1      25.889  47.496  54.942  1.00  0.00    -0.266 OA
ENDBRANCH   8  26
TORSDOF 6
ENDMDL
