MODEL 1
REMARK VINA RESULT:      -8.7      0.000      0.000
REMARK  8 active torsions:
REMARK  status: ('A' for Active; 'I' for Inactive)
REMARK    1  A    between atoms: C_2  and  C_3 
REMARK    2  A    between atoms: C_3  and  O_4 
REMARK    3  A    between atoms: O_4  and  C_5 
REMARK    4  A    between atoms: C_7  and  C_8 
REMARK    5  A    between atoms: N_9  and  C_10 
REMARK    6  A    between atoms: C_10  and  C_11 
REMARK    7  A    between atoms: C_24  and  C_25 
REMARK    8  A    between atoms: C_26  and  O_27 
ROOT
HETATM    1  C   UNL     1      27.639  43.177  50.973  1.00  0.00     0.159 C 
HETATM    2  N   UNL     1      27.046  42.052  50.203  1.00  0.00    -0.329 N 
HETATM    3  C   UNL     1      27.319  40.800  50.778  1.00  0.00     0.273 C 
HETATM    4  O   UNL     1      27.180  39.689  50.303  1.00  0.00    -0.266 OA
HETATM    5  C   UNL     1      27.847  41.130  52.048  1.00  0.00     0.129 A 
HETATM    6  C   UNL     1      28.028  42.472  52.216  1.00  0.00     0.034 A 
HETATM    7  N   UNL     1      28.207  40.513  53.179  1.00  0.00    -0.272 N 
HETATM    8  H   UNL     1      28.200  39.520  53.399  1.00  0.00     0.189 HD
HETATM    9  N   UNL     1      28.583  41.406  54.131  1.00  0.00    -0.173 NA
HETATM   10  C   UNL     1      28.490  42.625  53.536  1.00  0.00     0.101 A 
ENDROOT
BRANCH   1  11
HETATM   11  C   UNL     1      26.687  44.295  51.300  1.00  0.00    -0.028 A 
HETATM   12  C   UNL     1      26.896  45.623  50.890  1.00  0.00     0.046 A 
HETATM   13  C   UNL     1      25.969  46.629  51.182  1.00  0.00     0.069 A 
HETATM   14  C   UNL     1      24.820  46.313  51.908  1.00  0.00     0.037 A 
HETATM   15  C   UNL     1      24.606  45.007  52.345  1.00  0.00     0.003 A 
HETATM   16  C   UNL     1      25.533  44.008  52.049  1.00  0.00     0.010 A 
BRANCH  13  17
HETATM   17  O   UNL     1      26.304  47.871  50.715  1.00  0.00    -0.348 OA
BRANCH  17  18
HETATM   18  C   UNL     1      25.680  48.292  49.503  1.00  0.00     0.202 C 
BRANCH  18  19
HETATM   19  C   UNL     1      26.639  49.198  48.791  1.00  0.00    -0.011 C 
HETATM   20  C   UNL     1      27.936  49.330  49.101  1.00  0.00     0.009 C 
ENDBRANCH  18  19
ENDBRANCH  17  18
ENDBRANCH  13  17
ENDBRANCH   1  11
BRANCH   2  21
HETATM   21  C   UNL     1      26.684  42.196  48.810  1.00  0.00     0.165 C 
BRANCH  21  22
HETATM   22  C   UNL     1      25.192  42.214  48.594  1.00  0.00    -0.037 A 
HETATM   23  C   UNL     1      24.486  41.034  48.337  1.00  0.00     0.028 A 
HETATM   24  C   UNL     1      23.118  41.110  48.122  1.00  0.00     0.116 A 
HETATM   25  N   UNL     1      22.414  42.261  48.154  1.00  0.00    -0.273 NA
HETATM   26  C   UNL     1      23.113  43.390  48.392  1.00  0.00     0.116 A 
HETATM   27  C   UNL     1      24.482  43.417  48.618  1.00  0.00     0.028 A 
ENDBRANCH  21  22
ENDBRANCH   2  21
BRANCH  10  28
HETATM   28  C   UNL     1      28.786  43.844  54.293  1.00  0.00     0.028 A 
HETATM   29  C   UNL     1      29.943  43.946  55.085  1.00  0.00     0.078 A 
HETATM   30  C   UNL     1      30.193  45.074  55.864  1.00  0.00     0.037 A 
HETATM   31  C   UNL     1      29.295  46.139  55.847  1.00  0.00     0.003 A 
HETATM   32  C   UNL     1      28.159  46.075  55.043  1.00  0.00     0.001 A 
HETATM   33  C   UNL     1      27.908  44.938  54.267  1.00  0.00     0.017 A 
BRANCH  29  34
HETATM   34  O   UNL     1      30.888  42.953  55.139  1.00  0.00    -0.360 OA
HETATM   35  H   UNL     1      30.593  42.336  55.848  1.00  0.00     0.217 HD
ENDBRANCH  29  34
ENDBRANCH  10  28
TORSDOF 8
ENDMDL
MODEL 2
REMARK VINA RESULT:      -8.3      2.016      5.969
REMARK  8 active torsions:
REMARK  status: ('A' for Active; 'I' for Inactive)
REMARK    1  A    between atoms: C_2  and  C_3 
REMARK    2  A    between atoms: C_3  and  O_4 
REMARK    3  A    between atoms: O_4  and  C_5 
REMARK    4  A    between atoms: C_7  and  C_8 
REMARK    5  A    between atoms: N_9  and  C_10 
REMARK    6  A    between atoms: C_10  and  C_11 
REMARK    7  A    between atoms: C_24  and  C_25 
REMARK    8  A    between atoms: C_26  and  O_27 
ROOT
HETATM    1  C   UNL     1      26.072  42.754  52.050  1.00  0.00     0.159 C 
HETATM    2  N   UNL     1      26.929  43.152  53.198  1.00  0.00    -0.329 N 
HETATM    3  C   UNL     1      28.103  42.387  53.286  1.00  0.00     0.273 C 
HETATM    4  O   UNL     1      28.896  42.298  54.204  1.00  0.00    -0.266 OA
HETATM    5  C   UNL     1      28.134  41.691  52.055  1.00  0.00     0.129 A 
HETATM    6  C   UNL     1      27.011  41.884  51.306  1.00  0.00     0.034 A 
HETATM    7  N   UNL     1      28.967  40.900  51.368  1.00  0.00    -0.272 N 
HETATM    8  H   UNL     1      29.888  40.557  51.628  1.00  0.00     0.189 HD
HETATM    9  N   UNL     1      28.458  40.589  50.147  1.00  0.00    -0.173 NA
HETATM   10  C   UNL     1      27.235  41.184  50.107  1.00  0.00     0.101 A 
ENDROOT
BRANCH   1  11
HETATM   11  C   UNL     1      25.623  43.888  51.169  1.00  0.00    -0.028 A 
HETATM   12  C   UNL     1      26.506  44.853  50.654  1.00  0.00     0.046 A 
HETATM   13  C   UNL     1      26.057  45.872  49.807  1.00  0.00     0.069 A 
HETATM   14  C   UNL     1      24.703  45.943  49.479  1.00  0.00     0.037 A 
HETATM   15  C   UNL     1      23.807  45.011  49.999  1.00  0.00     0.003 A 
HETATM   16  C   UNL     1      24.261  43.996  50.840  1.00  0.00     0.010 A 
BRANCH  13  17
HETATM   17  O   UNL     1      27.030  46.733  49.380  1.00  0.00    -0.348 OA
BRANCH  17  18
HETATM   18  C   UNL     1      27.021  48.045  49.944  1.00  0.00     0.202 C 
BRANCH  18  19
HETATM   19  C   UNL     1      27.021  49.025  48.809  1.00  0.00    -0.011 C 
HETATM   20  C   UNL     1      25.940  49.687  48.374  1.00  0.00     0.009 C 
ENDBRANCH  18  19
ENDBRANCH  17  18
ENDBRANCH  13  17
ENDBRANCH   1  11
BRANCH   2  21
HETATM   21  C   UNL     1      26.389  43.866  54.334  1.00  0.00     0.165 C 
BRANCH  21  22
HETATM   22  C   UNL     1      26.909  45.278  54.436  1.00  0.00    -0.037 A 
HETATM   23  C   UNL     1      28.150  45.550  55.020  1.00  0.00     0.028 A 
HETATM   24  C   UNL     1      28.569  46.869  55.109  1.00  0.00     0.116 A 
HETATM   25  N   UNL     1      27.852  47.919  54.656  1.00  0.00    -0.273 NA
HETATM   26  C   UNL     1      26.653  47.638  54.106  1.00  0.00     0.116 A 
HETATM   27  C   UNL     1      26.147  46.354  53.973  1.00  0.00     0.028 A 
ENDBRANCH  21  22
ENDBRANCH   2  21
BRANCH  10  28
HETATM   28  C   UNL     1      26.405  41.092  48.903  1.00  0.00     0.028 A 
HETATM   29  C   UNL     1      26.976  41.162  47.619  1.00  0.00     0.078 A 
HETATM   30  C   UNL     1      26.185  41.147  46.471  1.00  0.00     0.037 A 
HETATM   31  C   UNL     1      24.802  41.038  46.587  1.00  0.00     0.003 A 
HETATM   32  C   UNL     1      24.217  40.933  47.847  1.00  0.00     0.001 A 
HETATM   33  C   UNL     1      25.013  40.954  48.997  1.00  0.00     0.017 A 
BRANCH  29  34
HETATM   34  O   UNL     1      28.330  41.246  47.419  1.00  0.00    -0.360 OA
HETATM   35  H   UNL     1      28.456  41.328  46.445  1.00  0.00     0.217 HD
ENDBRANCH  29  34
ENDBRANCH  10  28
TORSDOF 8
ENDMDL
MODEL 3
REMARK VINA RESULT:      -8.2     11.376     13.580
REMARK  8 active torsions:
REMARK  status: ('A' for Active; 'I' for Inactive)
REMARK    1  A    between atoms: C_2  and  C_3 
REMARK    2  A    between atoms: C_3  and  O_4 
REMARK    3  A    between atoms: O_4  and  C_5 
REMARK    4  A    between atoms: C_7  and  C_8 
REMARK    5  A    between atoms: N_9  and  C_10 
REMARK    6  A    between atoms: C_10  and  C_11 
REMARK    7  A    between atoms: C_24  and  C_25 
REMARK    8  A    between atoms: C_26  and  O_27 
ROOT
HETATM    1  C   UNL     1      27.639  47.853  40.463  1.00  0.00     0.159 C 
HETATM    2  N   UNL     1      27.265  46.546  39.861  1.00  0.00    -0.329 N 
HETATM    3  C   UNL     1      26.472  46.687  38.711  1.00  0.00     0.273 C 
HETATM    4  O   UNL     1      25.824  45.848  38.115  1.00  0.00    -0.266 OA
HETATM    5  C   UNL     1      26.561  48.069  38.419  1.00  0.00     0.129 A 
HETATM    6  C   UNL     1      27.234  48.772  39.375  1.00  0.00     0.034 A 
HETATM    7  N   UNL     1      26.200  48.917  37.449  1.00  0.00    -0.272 N 
HETATM    8  H   UNL     1      25.688  48.730  36.590  1.00  0.00     0.189 HD
HETATM    9  N   UNL     1      26.654  50.173  37.697  1.00  0.00    -0.173 NA
HETATM   10  C   UNL     1      27.284  50.095  38.900  1.00  0.00     0.101 A 
ENDROOT
BRANCH   1  11
HETATM   11  C   UNL     1      29.106  48.023  40.752  1.00  0.00    -0.028 A 
HETATM   12  C   UNL     1      29.590  48.691  41.890  1.00  0.00     0.046 A 
HETATM   13  C   UNL     1      30.961  48.797  42.143  1.00  0.00     0.069 A 
HETATM   14  C   UNL     1      31.870  48.243  41.240  1.00  0.00     0.037 A 
HETATM   15  C   UNL     1      31.411  47.598  40.093  1.00  0.00     0.003 A 
HETATM   16  C   UNL     1      30.043  47.494  39.848  1.00  0.00     0.010 A 
BRANCH  13  17
HETATM   17  O   UNL     1      31.282  49.469  43.291  1.00  0.00    -0.348 OA
BRANCH  17  18
HETATM   18  C   UNL     1      32.387  50.370  43.221  1.00  0.00     0.202 C 
BRANCH  18  19
HETATM   19  C   UNL     1      31.950  51.561  42.421  1.00  0.00    -0.011 C 
HETATM   20  C   UNL     1      32.500  51.943  41.261  1.00  0.00     0.009 C 
ENDBRANCH  18  19
ENDBRANCH  17  18
ENDBRANCH  13  17
ENDBRANCH   1  11
BRANCH   2  21
HETATM   21  C   UNL     1      27.290  45.323  40.633  1.00  0.00     0.165 C 
BRANCH  21  22
HETATM   22  C   UNL     1      28.005  44.200  39.924  1.00  0.00    -0.037 A 
HETATM   23  C   UNL     1      28.911  44.460  38.890  1.00  0.00     0.028 A 
HETATM   24  C   UNL     1      29.523  43.389  38.257  1.00  0.00     0.116 A 
HETATM   25  N   UNL     1      29.306  42.097  38.582  1.00  0.00    -0.273 NA
HETATM   26  C   UNL     1      28.421  41.866  39.574  1.00  0.00     0.116 A 
HETATM   27  C   UNL     1      27.758  42.868  40.266  1.00  0.00     0.028 A 
ENDBRANCH  21  22
ENDBRANCH   2  21
BRANCH  10  28
HETATM   28  C   UNL     1      27.941  51.274  39.470  1.00  0.00     0.028 A 
HETATM   29  C   UNL     1      28.869  52.023  38.724  1.00  0.00     0.078 A 
HETATM   30  C   UNL     1      29.550  53.102  39.285  1.00  0.00     0.037 A 
HETATM   31  C   UNL     1      29.296  53.469  40.604  1.00  0.00     0.003 A 
HETATM   32  C   UNL     1      28.357  52.763  41.352  1.00  0.00     0.001 A 
HETATM   33  C   UNL     1      27.678  51.677  40.788  1.00  0.00     0.017 A 
BRANCH  29  34
HETATM   34  O   UNL     1      29.157  51.742  37.413  1.00  0.00    -0.360 OA
HETATM   35  H   UNL     1      30.071  52.074  37.259  1.00  0.00     0.217 HD
ENDBRANCH  29  34
ENDBRANCH  10  28
TORSDOF 8
ENDMDL
MODEL 4
REMARK VINA RESULT:      -8.2      4.082      7.375
REMARK  8 active torsions:
REMARK  status: ('A' for Active; 'I' for Inactive)
REMARK    1  A    between atoms: C_2  and  C_3 
REMARK    2  A    between atoms: C_3  and  O_4 
REMARK    3  A    between atoms: O_4  and  C_5 
REMARK    4  A    between atoms: C_7  and  C_8 
REMARK    5  A    between atoms: N_9  and  C_10 
REMARK    6  A    between atoms: C_10  and  C_11 
REMARK    7  A    between atoms: C_24  and  C_25 
REMARK    8  A    between atoms: C_26  and  O_27 
ROOT
HETATM    1  C   UNL     1      23.067  47.564  49.125  1.00  0.00     0.159 C 
HETATM    2  N   UNL     1      22.562  48.486  48.073  1.00  0.00    -0.329 N 
HETATM    3  C   UNL     1      23.453  49.536  47.802  1.00  0.00     0.273 C 
HETATM    4  O   UNL     1      23.264  50.563  47.176  1.00  0.00    -0.266 OA
HETATM    5  C   UNL     1      24.636  49.145  48.472  1.00  0.00     0.129 A 
HETATM    6  C   UNL     1      24.474  48.017  49.221  1.00  0.00     0.034 A 
HETATM    7  N   UNL     1      25.910  49.540  48.575  1.00  0.00    -0.272 N 
HETATM    8  H   UNL     1      26.372  50.339  48.148  1.00  0.00     0.189 HD
HETATM    9  N   UNL     1      26.633  48.679  49.338  1.00  0.00    -0.173 NA
HETATM   10  C   UNL     1      25.744  47.738  49.757  1.00  0.00     0.101 A 
ENDROOT
BRANCH   1  11
HETATM   11  C   UNL     1      23.027  46.104  48.763  1.00  0.00    -0.028 A 
HETATM   12  C   UNL     1      23.088  45.077  49.720  1.00  0.00     0.046 A 
HETATM   13  C   UNL     1      23.011  43.730  49.348  1.00  0.00     0.069 A 
HETATM   14  C   UNL     1      22.887  43.398  47.999  1.00  0.00     0.037 A 
HETATM   15  C   UNL     1      22.848  44.402  47.032  1.00  0.00     0.003 A 
HETATM   16  C   UNL     1      22.924  45.742  47.410  1.00  0.00     0.010 A 
BRANCH  13  17
HETATM   17  O   UNL     1      23.078  42.844  50.388  1.00  0.00    -0.348 OA
BRANCH  17  18
HETATM   18  C   UNL     1      24.354  42.669  51.002  1.00  0.00     0.202 C 
BRANCH  18  19
HETATM   19  C   UNL     1      25.144  41.726  50.145  1.00  0.00    -0.011 C 
HETATM   20  C   UNL     1      26.080  40.882  50.602  1.00  0.00     0.009 C 
ENDBRANCH  18  19
ENDBRANCH  17  18
ENDBRANCH  13  17
ENDBRANCH   1  11
BRANCH   2  21
HETATM   21  C   UNL     1      21.154  48.569  47.753  1.00  0.00     0.165 C 
BRANCH  21  22
HETATM   22  C   UNL     1      20.303  48.912  48.949  1.00  0.00    -0.037 A 
HETATM   23  C   UNL     1      19.423  47.976  49.502  1.00  0.00     0.028 A 
HETATM   24  C   UNL     1      18.647  48.352  50.588  1.00  0.00     0.116 A 
HETATM   25  N   UNL     1      18.691  49.575  51.158  1.00  0.00    -0.273 NA
HETATM   26  C   UNL     1      19.537  50.468  50.604  1.00  0.00     0.116 A 
HETATM   27  C   UNL     1      20.353  50.188  49.518  1.00  0.00     0.028 A 
ENDBRANCH  21  22
ENDBRANCH   2  21
BRANCH  10  28
HETATM   28  C   UNL     1      26.190  46.612  50.581  1.00  0.00     0.028 A 
HETATM   29  C   UNL     1      25.964  46.590  51.969  1.00  0.00     0.078 A 
HETATM   30  C   UNL     1      26.449  45.557  52.768  1.00  0.00     0.037 A 
HETATM   31  C   UNL     1      27.154  44.506  52.186  1.00  0.00     0.003 A 
HETATM   32  C   UNL     1      27.362  44.489  50.809  1.00  0.00     0.001 A 
HETATM   33  C   UNL     1      26.878  45.531  50.010  1.00  0.00     0.017 A 
BRANCH  29  34
HETATM   34  O   UNL     1      25.258  47.574  52.615  1.00  0.00    -0.360 OA
HETATM   35  H   UNL     1      25.098  47.237  53.527  1.00  0.00     0.217 HD
ENDBRANCH  29  34
ENDBRANCH  10  28
TORSDOF 8
ENDMDL
MODEL 5
REMARK VINA RESULT:      -8.2      1.856      2.376
REMARK  8 active torsions:
REMARK  status: ('A' for Active; 'I' for Inactive)
REMARK    1  A    between atoms: C_2  and  C_3 
REMARK    2  A    between atoms: C_3  and  O_4 
REMARK    3  A    between atoms: O_4  and  C_5 
REMARK    4  A    between atoms: C_7  and  C_8 
REMARK    5  A    between atoms: N_9  and  C_10 
REMARK    6  A    between atoms: C_10  and  C_11 
REMARK    7  A    between atoms: C_24  and  C_25 
REMARK    8  A    between atoms: C_26  and  O_27 
ROOT
HETATM    1  C   UNL     1      27.483  42.713  50.435  1.00  0.00     0.159 C 
HETATM    2  N   UNL     1      27.499  41.390  49.758  1.00  0.00    -0.329 N 
HETATM    3  C   UNL     1      27.947  40.358  50.597  1.00  0.00     0.273 C 
HETATM    4  O   UNL     1      28.285  39.225  50.310  1.00  0.00    -0.266 OA
HETATM    5  C   UNL     1      27.959  40.958  51.878  1.00  0.00     0.129 A 
HETATM    6  C   UNL     1      27.680  42.293  51.842  1.00  0.00     0.034 A 
HETATM    7  N   UNL     1      28.137  40.601  53.155  1.00  0.00    -0.272 N 
HETATM    8  H   UNL     1      28.357  39.686  53.541  1.00  0.00     0.189 HD
HETATM    9  N   UNL     1      27.939  41.650  53.994  1.00  0.00    -0.173 NA
HETATM   10  C   UNL     1      27.670  42.710  53.185  1.00  0.00     0.101 A 
ENDROOT
BRANCH   1  11
HETATM   11  C   UNL     1      26.192  43.477  50.309  1.00  0.00    -0.028 A 
HETATM   12  C   UNL     1      26.141  44.854  50.036  1.00  0.00     0.046 A 
HETATM   13  C   UNL     1      24.921  45.522  49.890  1.00  0.00     0.069 A 
HETATM   14  C   UNL     1      23.729  44.811  50.034  1.00  0.00     0.037 A 
HETATM   15  C   UNL     1      23.758  43.449  50.329  1.00  0.00     0.003 A 
HETATM   16  C   UNL     1      24.977  42.789  50.471  1.00  0.00     0.010 A 
BRANCH  13  17
HETATM   17  O   UNL     1      25.028  46.859  49.620  1.00  0.00    -0.348 OA
BRANCH  17  18
HETATM   18  C   UNL     1      26.152  47.540  50.176  1.00  0.00     0.202 C 
BRANCH  18  19
HETATM   19  C   UNL     1      26.511  48.657  49.244  1.00  0.00    -0.011 C 
HETATM   20  C   UNL     1      27.748  49.144  49.078  1.00  0.00     0.009 C 
ENDBRANCH  18  19
ENDBRANCH  17  18
ENDBRANCH  13  17
ENDBRANCH   1  11
BRANCH   2  21
HETATM   21  C   UNL     1      27.534  41.280  48.316  1.00  0.00     0.165 C 
BRANCH  21  22
HETATM   22  C   UNL     1      26.356  40.521  47.760  1.00  0.00    -0.037 A 
HETATM   23  C   UNL     1      26.468  39.174  47.401  1.00  0.00     0.028 A 
HETATM   24  C   UNL     1      25.358  38.532  46.872  1.00  0.00     0.116 A 
HETATM   25  N   UNL     1      24.161  39.126  46.687  1.00  0.00    -0.273 NA
HETATM   26  C   UNL     1      24.075  40.428  47.029  1.00  0.00     0.116 A 
HETATM   27  C   UNL     1      25.127  41.157  47.563  1.00  0.00     0.028 A 
ENDBRANCH  21  22
ENDBRANCH   2  21
BRANCH  10  28
HETATM   28  C   UNL     1      27.359  44.022  53.760  1.00  0.00     0.028 A 
HETATM   29  C   UNL     1      26.029  44.446  53.929  1.00  0.00     0.078 A 
HETATM   30  C   UNL     1      25.729  45.720  54.408  1.00  0.00     0.037 A 
HETATM   31  C   UNL     1      26.761  46.590  54.753  1.00  0.00     0.003 A 
HETATM   32  C   UNL     1      28.086  46.179  54.626  1.00  0.00     0.001 A 
HETATM   33  C   UNL     1      28.384  44.901  54.139  1.00  0.00     0.017 A 
BRANCH  29  34
HETATM   34  O   UNL     1      24.957  43.642  53.636  1.00  0.00    -0.360 OA
HETATM   35  H   UNL     1      25.250  43.058  52.900  1.00  0.00     0.217 HD
ENDBRANCH  29  34
ENDBRANCH  10  28
TORSDOF 8
ENDMDL
MODEL 6
REMARK VINA RESULT:      -8.0      9.840     13.124
REMARK  8 active torsions:
REMARK  status: ('A' for Active; 'I' for Inactive)
REMARK    1  A    between atoms: C_2  and  C_3 
REMARK    2  A    between atoms: C_3  and  O_4 
REMARK    3  A    between atoms: O_4  and  C_5 
REMARK    4  A    between atoms: C_7  and  C_8 
REMARK    5  A    between atoms: N_9  and  C_10 
REMARK    6  A    between atoms: C_10  and  C_11 
REMARK    7  A    between atoms: C_24  and  C_25 
REMARK    8  A    between atoms: C_26  and  O_27 
ROOT
HETATM    1  C   UNL     1      27.838  47.473  40.307  1.00  0.00     0.159 C 
HETATM    2  N   UNL     1      27.621  46.156  39.651  1.00  0.00    -0.329 N 
HETATM    3  C   UNL     1      26.870  46.258  38.470  1.00  0.00     0.273 C 
HETATM    4  O   UNL     1      26.335  45.379  37.820  1.00  0.00    -0.266 OA
HETATM    5  C   UNL     1      26.836  47.650  38.221  1.00  0.00     0.129 A 
HETATM    6  C   UNL     1      27.394  48.383  39.226  1.00  0.00     0.034 A 
HETATM    7  N   UNL     1      26.439  48.490  37.258  1.00  0.00    -0.272 N 
HETATM    8  H   UNL     1      25.986  48.283  36.371  1.00  0.00     0.189 HD
HETATM    9  N   UNL     1      26.757  49.776  37.563  1.00  0.00    -0.173 NA
HETATM   10  C   UNL     1      27.336  49.720  38.792  1.00  0.00     0.101 A 
ENDROOT
BRANCH   1  11
HETATM   11  C   UNL     1      29.266  47.774  40.670  1.00  0.00    -0.028 A 
HETATM   12  C   UNL     1      29.627  48.506  41.814  1.00  0.00     0.046 A 
HETATM   13  C   UNL     1      30.969  48.735  42.139  1.00  0.00     0.069 A 
HETATM   14  C   UNL     1      31.970  48.240  41.302  1.00  0.00     0.037 A 
HETATM   15  C   UNL     1      31.633  47.532  40.150  1.00  0.00     0.003 A 
HETATM   16  C   UNL     1      30.294  47.306  39.834  1.00  0.00     0.010 A 
BRANCH  13  17
HETATM   17  O   UNL     1      31.167  49.458  43.283  1.00  0.00    -0.348 OA
BRANCH  17  18
HETATM   18  C   UNL     1      32.217  50.424  43.260  1.00  0.00     0.202 C 
BRANCH  18  19
HETATM   19  C   UNL     1      31.743  51.588  42.441  1.00  0.00    -0.011 C 
HETATM   20  C   UNL     1      32.322  52.008  41.309  1.00  0.00     0.009 C 
ENDBRANCH  18  19
ENDBRANCH  17  18
ENDBRANCH  13  17
ENDBRANCH   1  11
BRANCH   2  21
HETATM   21  C   UNL     1      27.730  44.917  40.389  1.00  0.00     0.165 C 
BRANCH  21  22
HETATM   22  C   UNL     1      26.457  44.551  41.109  1.00  0.00    -0.037 A 
HETATM   23  C   UNL     1      26.105  45.170  42.312  1.00  0.00     0.028 A 
HETATM   24  C   UNL     1      24.934  44.779  42.944  1.00  0.00     0.116 A 
HETATM   25  N   UNL     1      24.097  43.835  42.464  1.00  0.00    -0.273 NA
HETATM   26  C   UNL     1      24.459  43.241  41.307  1.00  0.00     0.116 A 
HETATM   27  C   UNL     1      25.610  43.562  40.602  1.00  0.00     0.028 A 
ENDBRANCH  21  22
ENDBRANCH   2  21
BRANCH  10  28
HETATM   28  C   UNL     1      27.848  50.938  39.426  1.00  0.00     0.028 A 
HETATM   29  C   UNL     1      28.741  51.789  38.751  1.00  0.00     0.078 A 
HETATM   30  C   UNL     1      29.287  52.910  39.374  1.00  0.00     0.037 A 
HETATM   31  C   UNL     1      28.930  53.214  40.685  1.00  0.00     0.003 A 
HETATM   32  C   UNL     1      28.020  52.405  41.362  1.00  0.00     0.001 A 
HETATM   33  C   UNL     1      27.478  51.277  40.736  1.00  0.00     0.017 A 
BRANCH  29  34
HETATM   34  O   UNL     1      29.125  51.573  37.452  1.00  0.00    -0.360 OA
HETATM   35  H   UNL     1      29.458  52.438  37.120  1.00  0.00     0.217 HD
ENDBRANCH  29  34
ENDBRANCH  10  28
TORSDOF 8
ENDMDL
MODEL 7
REMARK VINA RESULT:      -7.9      4.254      7.450
REMARK  8 active torsions:
REMARK  status: ('A' for Active; 'I' for Inactive)
REMARK    1  A    between atoms: C_2  and  C_3 
REMARK    2  A    between atoms: C_3  and  O_4 
REMARK    3  A    between atoms: O_4  and  C_5 
REMARK    4  A    between atoms: C_7  and  C_8 
REMARK    5  A    between atoms: N_9  and  C_10 
REMARK    6  A    between atoms: C_10  and  C_11 
REMARK    7  A    between atoms: C_24  and  C_25 
REMARK    8  A    between atoms: C_26  and  O_27 
ROOT
HETATM    1  C   UNL     1      23.106  47.451  49.192  1.00  0.00     0.159 C 
HETATM    2  N   UNL     1      22.637  48.362  48.116  1.00  0.00    -0.329 N 
HETATM    3  C   UNL     1      23.534  49.414  47.869  1.00  0.00     0.273 C 
HETATM    4  O   UNL     1      23.366  50.435  47.229  1.00  0.00    -0.266 OA
HETATM    5  C   UNL     1      24.693  49.031  48.584  1.00  0.00     0.129 A 
HETATM    6  C   UNL     1      24.508  47.908  49.336  1.00  0.00     0.034 A 
HETATM    7  N   UNL     1      25.962  49.430  48.730  1.00  0.00    -0.272 N 
HETATM    8  H   UNL     1      26.437  50.227  48.314  1.00  0.00     0.189 HD
HETATM    9  N   UNL     1      26.659  48.578  49.526  1.00  0.00    -0.173 NA
HETATM   10  C   UNL     1      25.758  47.637  49.920  1.00  0.00     0.101 A 
ENDROOT
BRANCH   1  11
HETATM   11  C   UNL     1      23.083  45.988  48.841  1.00  0.00    -0.028 A 
HETATM   12  C   UNL     1      22.989  45.519  47.520  1.00  0.00     0.046 A 
HETATM   13  C   UNL     1      23.008  44.150  47.231  1.00  0.00     0.069 A 
HETATM   14  C   UNL     1      23.105  43.230  48.275  1.00  0.00     0.037 A 
HETATM   15  C   UNL     1      23.175  43.674  49.594  1.00  0.00     0.003 A 
HETATM   16  C   UNL     1      23.158  45.039  49.876  1.00  0.00     0.010 A 
BRANCH  13  17
HETATM   17  O   UNL     1      22.914  43.844  45.900  1.00  0.00    -0.348 OA
BRANCH  17  18
HETATM   18  C   UNL     1      21.795  44.380  45.194  1.00  0.00     0.202 C 
BRANCH  18  19
HETATM   19  C   UNL     1      20.650  43.429  45.371  1.00  0.00    -0.011 C 
HETATM   20  C   UNL     1      19.572  43.666  46.130  1.00  0.00     0.009 C 
ENDBRANCH  18  19
ENDBRANCH  17  18
ENDBRANCH  13  17
ENDBRANCH   1  11
BRANCH   2  21
HETATM   21  C   UNL     1      21.241  48.439  47.744  1.00  0.00     0.165 C 
BRANCH  21  22
HETATM   22  C   UNL     1      20.354  48.854  48.890  1.00  0.00    -0.037 A 
HETATM   23  C   UNL     1      20.446  50.133  49.447  1.00  0.00     0.028 A 
HETATM   24  C   UNL     1      19.623  50.455  50.516  1.00  0.00     0.116 A 
HETATM   25  N   UNL     1      18.721  49.607  51.055  1.00  0.00    -0.273 NA
HETATM   26  C   UNL     1      18.655  48.373  50.511  1.00  0.00     0.116 A 
HETATM   27  C   UNL     1      19.436  47.957  49.443  1.00  0.00     0.028 A 
ENDBRANCH  21  22
ENDBRANCH   2  21
BRANCH  10  28
HETATM   28  C   UNL     1      26.177  46.519  50.768  1.00  0.00     0.028 A 
HETATM   29  C   UNL     1      26.002  46.557  52.163  1.00  0.00     0.078 A 
HETATM   30  C   UNL     1      26.464  45.529  52.982  1.00  0.00     0.037 A 
HETATM   31  C   UNL     1      27.093  44.423  52.414  1.00  0.00     0.003 A 
HETATM   32  C   UNL     1      27.248  44.347  51.032  1.00  0.00     0.001 A 
HETATM   33  C   UNL     1      26.788  45.384  50.213  1.00  0.00     0.017 A 
BRANCH  29  34
HETATM   34  O   UNL     1      25.371  47.598  52.797  1.00  0.00    -0.360 OA
HETATM   35  H   UNL     1      25.949  47.841  53.557  1.00  0.00     0.217 HD
ENDBRANCH  29  34
ENDBRANCH  10  28
TORSDOF 8
ENDMDL
MODEL 8
REMARK VINA RESULT:      -7.7     12.308     15.301
REMARK  8 active torsions:
REMARK  status: ('A' for Active; 'I' for Inactive)
REMARK    1  A    between atoms: C_2  and  C_3 
REMARK    2  A    between atoms: C_3  and  O_4 
REMARK    3  A    between atoms: O_4  and  C_5 
REMARK    4  A    between atoms: C_7  and  C_8 
REMARK    5  A    between atoms: N_9  and  C_10 
REMARK    6  A    between atoms: C_10  and  C_11 
REMARK    7  A    between atoms: C_24  and  C_25 
REMARK    8  A    between atoms: C_26  and  O_27 
ROOT
HETATM    1  C   UNL     1      30.687  51.342  39.256  1.00  0.00     0.159 C 
HETATM    2  N   UNL     1      31.720  52.270  39.785  1.00  0.00    -0.329 N 
HETATM    3  C   UNL     1      31.166  53.359  40.477  1.00  0.00     0.273 C 
HETATM    4  O   UNL     1      31.697  54.393  40.836  1.00  0.00    -0.266 OA
HETATM    5  C   UNL     1      29.808  52.994  40.629  1.00  0.00     0.129 A 
HETATM    6  C   UNL     1      29.490  51.843  39.971  1.00  0.00     0.034 A 
HETATM    7  N   UNL     1      28.714  53.432  41.263  1.00  0.00    -0.272 N 
HETATM    8  H   UNL     1      28.596  54.257  41.845  1.00  0.00     0.189 HD
HETATM    9  N   UNL     1      27.670  52.579  41.093  1.00  0.00    -0.173 NA
HETATM   10  C   UNL     1      28.140  51.597  40.277  1.00  0.00     0.101 A 
ENDROOT
BRANCH   1  11
HETATM   11  C   UNL     1      30.906  49.891  39.588  1.00  0.00    -0.028 A 
HETATM   12  C   UNL     1      30.453  48.841  38.770  1.00  0.00     0.046 A 
HETATM   13  C   UNL     1      30.709  47.504  39.094  1.00  0.00     0.069 A 
HETATM   14  C   UNL     1      31.413  47.204  40.260  1.00  0.00     0.037 A 
HETATM   15  C   UNL     1      31.850  48.229  41.097  1.00  0.00     0.003 A 
HETATM   16  C   UNL     1      31.594  49.559  40.768  1.00  0.00     0.010 A 
BRANCH  13  17
HETATM   17  O   UNL     1      30.212  46.594  38.202  1.00  0.00    -0.348 OA
BRANCH  17  18
HETATM   18  C   UNL     1      28.800  46.384  38.215  1.00  0.00     0.202 C 
BRANCH  18  19
HETATM   19  C   UNL     1      28.532  45.160  39.038  1.00  0.00    -0.011 C 
HETATM   20  C   UNL     1      27.929  45.163  40.235  1.00  0.00     0.009 C 
ENDBRANCH  18  19
ENDBRANCH  17  18
ENDBRANCH  13  17
ENDBRANCH   1  11
BRANCH   2  21
HETATM   21  C   UNL     1      33.056  52.310  39.231  1.00  0.00     0.165 C 
BRANCH  21  22
HETATM   22  C   UNL     1      34.085  51.691  40.143  1.00  0.00    -0.037 A 
HETATM   23  C   UNL     1      33.880  51.628  41.525  1.00  0.00     0.028 A 
HETATM   24  C   UNL     1      34.869  51.070  42.320  1.00  0.00     0.116 A 
HETATM   25  N   UNL     1      36.028  50.570  41.840  1.00  0.00    -0.273 NA
HETATM   26  C   UNL     1      36.213  50.649  40.506  1.00  0.00     0.116 A 
HETATM   27  C   UNL     1      35.284  51.190  39.629  1.00  0.00     0.028 A 
ENDBRANCH  21  22
ENDBRANCH   2  21
BRANCH  10  28
HETATM   28  C   UNL     1      27.282  50.467  39.909  1.00  0.00     0.028 A 
HETATM   29  C   UNL     1      26.948  49.471  40.845  1.00  0.00     0.078 A 
HETATM   30  C   UNL     1      26.193  48.358  40.482  1.00  0.00     0.037 A 
HETATM   31  C   UNL     1      25.735  48.231  39.173  1.00  0.00     0.003 A 
HETATM   32  C   UNL     1      26.024  49.221  38.237  1.00  0.00     0.001 A 
HETATM   33  C   UNL     1      26.787  50.335  38.603  1.00  0.00     0.017 A 
BRANCH  29  34
HETATM   34  O   UNL     1      27.339  49.534  42.158  1.00  0.00    -0.360 OA
HETATM   35  H   UNL     1      26.526  49.739  42.673  1.00  0.00     0.217 HD
ENDBRANCH  29  34
ENDBRANCH  10  28
TORSDOF 8
ENDMDL
MODEL 9
REMARK VINA RESULT:      -7.5      6.175     10.818
REMARK  8 active torsions:
REMARK  status: ('A' for Active; 'I' for Inactive)
REMARK    1  A    between atoms: C_2  and  C_3 
REMARK    2  A    between atoms: C_3  and  O_4 
REMARK    3  A    between atoms: O_4  and  C_5 
REMARK    4  A    between atoms: C_7  and  C_8 
REMARK    5  A    between atoms: N_9  and  C_10 
REMARK    6  A    between atoms: C_10  and  C_11 
REMARK    7  A    between atoms: C_24  and  C_25 
REMARK    8  A    between atoms: C_26  and  O_27 
ROOT
HETATM    1  C   UNL     1      20.830  49.485  47.788  1.00  0.00     0.159 C 
HETATM    2  N   UNL     1      22.095  49.712  48.535  1.00  0.00    -0.329 N 
HETATM    3  C   UNL     1      21.932  50.585  49.622  1.00  0.00     0.273 C 
HETATM    4  O   UNL     1      22.778  51.147  50.292  1.00  0.00    -0.266 OA
HETATM    5  C   UNL     1      20.527  50.703  49.740  1.00  0.00     0.129 A 
HETATM    6  C   UNL     1      19.855  50.076  48.733  1.00  0.00     0.034 A 
HETATM    7  N   UNL     1      19.629  51.232  50.579  1.00  0.00    -0.272 N 
HETATM    8  H   UNL     1      19.783  51.765  51.432  1.00  0.00     0.189 HD
HETATM    9  N   UNL     1      18.360  50.939  50.193  1.00  0.00    -0.173 NA
HETATM   10  C   UNL     1      18.491  50.234  49.037  1.00  0.00     0.101 A 
ENDROOT
BRANCH   1  11
HETATM   11  C   UNL     1      20.488  48.040  47.543  1.00  0.00    -0.028 A 
HETATM   12  C   UNL     1      20.910  46.999  48.387  1.00  0.00     0.046 A 
HETATM   13  C   UNL     1      20.541  45.671  48.146  1.00  0.00     0.069 A 
HETATM   14  C   UNL     1      19.751  45.370  47.036  1.00  0.00     0.037 A 
HETATM   15  C   UNL     1      19.342  46.385  46.172  1.00  0.00     0.003 A 
HETATM   16  C   UNL     1      19.712  47.706  46.420  1.00  0.00     0.010 A 
BRANCH  13  17
HETATM   17  O   UNL     1      21.022  44.768  49.055  1.00  0.00    -0.348 OA
BRANCH  17  18
HETATM   18  C   UNL     1      22.326  44.243  48.812  1.00  0.00     0.202 C 
BRANCH  18  19
HETATM   19  C   UNL     1      22.741  43.478  50.033  1.00  0.00    -0.011 C 
HETATM   20  C   UNL     1      23.964  43.517  50.578  1.00  0.00     0.009 C 
ENDBRANCH  18  19
ENDBRANCH  17  18
ENDBRANCH  13  17
ENDBRANCH   1  11
BRANCH   2  21
HETATM   21  C   UNL     1      23.386  49.475  47.926  1.00  0.00     0.165 C 
BRANCH  21  22
HETATM   22  C   UNL     1      24.346  48.769  48.850  1.00  0.00    -0.037 A 
HETATM   23  C   UNL     1      25.708  49.085  48.855  1.00  0.00     0.028 A 
HETATM   24  C   UNL     1      26.550  48.388  49.708  1.00  0.00     0.116 A 
HETATM   25  N   UNL     1      26.134  47.418  50.550  1.00  0.00    -0.273 NA
HETATM   26  C   UNL     1      24.819  47.119  50.523  1.00  0.00     0.116 A 
HETATM   27  C   UNL     1      23.899  47.758  49.705  1.00  0.00     0.028 A 
ENDBRANCH  21  22
ENDBRANCH   2  21
BRANCH  10  28
HETATM   28  C   UNL     1      17.307  49.711  48.351  1.00  0.00     0.028 A 
HETATM   29  C   UNL     1      16.896  48.377  48.522  1.00  0.00     0.078 A 
HETATM   30  C   UNL     1      15.814  47.854  47.817  1.00  0.00     0.037 A 
HETATM   31  C   UNL     1      15.103  48.668  46.938  1.00  0.00     0.003 A 
HETATM   32  C   UNL     1      15.470  50.002  46.778  1.00  0.00     0.001 A 
HETATM   33  C   UNL     1      16.561  50.523  47.483  1.00  0.00     0.017 A 
BRANCH  29  34
HETATM   34  O   UNL     1      17.527  47.517  49.385  1.00  0.00    -0.360 OA
HETATM   35  H   UNL     1      16.825  46.919  49.732  1.00  0.00     0.217 HD
ENDBRANCH  29  34
ENDBRANCH  10  28
TORSDOF 8
ENDMDL
MODEL 10
REMARK VINA RESULT:      -7.2     11.984     15.358
REMARK  8 active torsions:
REMARK  status: ('A' for Active; 'I' for Inactive)
REMARK    1  A    between atoms: C_2  and  C_3 
REMARK    2  A    between atoms: C_3  and  O_4 
REMARK    3  A    between atoms: O_4  and  C_5 
REMARK    4  A    between atoms: C_7  and  C_8 
REMARK    5  A    between atoms: N_9  and  C_10 
REMARK    6  A    between atoms: C_10  and  C_11 
REMARK    7  A    between atoms: C_24  and  C_25 
REMARK    8  A    between atoms: C_26  and  O_27 
ROOT
HETATM    1  C   UNL     1      30.053  50.786  38.863  1.00  0.00     0.159 C 
HETATM    2  N   UNL     1      31.177  51.666  39.280  1.00  0.00    -0.329 N 
HETATM    3  C   UNL     1      30.761  52.715  40.114  1.00  0.00     0.273 C 
HETATM    4  O   UNL     1      31.364  53.718  40.448  1.00  0.00    -0.266 OA
HETATM    5  C   UNL     1      29.435  52.359  40.453  1.00  0.00     0.129 A 
HETATM    6  C   UNL     1      28.993  51.256  39.784  1.00  0.00     0.034 A 
HETATM    7  N   UNL     1      28.462  52.770  41.275  1.00  0.00    -0.272 N 
HETATM    8  H   UNL     1      28.454  53.559  41.917  1.00  0.00     0.189 HD
HETATM    9  N   UNL     1      27.385  51.943  41.218  1.00  0.00    -0.173 NA
HETATM   10  C   UNL     1      27.701  51.008  40.281  1.00  0.00     0.101 A 
ENDROOT
BRANCH   1  11
HETATM   11  C   UNL     1      30.288  49.314  39.069  1.00  0.00    -0.028 A 
HETATM   12  C   UNL     1      31.321  48.809  39.877  1.00  0.00     0.046 A 
HETATM   13  C   UNL     1      31.485  47.433  40.073  1.00  0.00     0.069 A 
HETATM   14  C   UNL     1      30.617  46.543  39.441  1.00  0.00     0.037 A 
HETATM   15  C   UNL     1      29.601  47.022  38.616  1.00  0.00     0.003 A 
HETATM   16  C   UNL     1      29.442  48.394  38.426  1.00  0.00     0.010 A 
BRANCH  13  17
HETATM   17  O   UNL     1      32.529  47.091  40.889  1.00  0.00    -0.348 OA
BRANCH  17  18
HETATM   18  C   UNL     1      33.049  48.117  41.733  1.00  0.00     0.202 C 
BRANCH  18  19
HETATM   19  C   UNL     1      31.943  48.558  42.644  1.00  0.00    -0.011 C 
HETATM   20  C   UNL     1      31.791  49.804  43.111  1.00  0.00     0.009 C 
ENDBRANCH  18  19
ENDBRANCH  17  18
ENDBRANCH  13  17
ENDBRANCH   1  11
BRANCH   2  21
HETATM   21  C   UNL     1      32.411  51.723  38.528  1.00  0.00     0.165 C 
BRANCH  21  22
HETATM   22  C   UNL     1      33.612  51.996  39.398  1.00  0.00    -0.037 A 
HETATM   23  C   UNL     1      33.871  51.224  40.534  1.00  0.00     0.028 A 
HETATM   24  C   UNL     1      34.977  51.534  41.312  1.00  0.00     0.116 A 
HETATM   25  N   UNL     1      35.834  52.539  41.036  1.00  0.00    -0.273 NA
HETATM   26  C   UNL     1      35.562  53.280  39.942  1.00  0.00     0.116 A 
HETATM   27  C   UNL     1      34.482  53.050  39.103  1.00  0.00     0.028 A 
ENDBRANCH  21  22
ENDBRANCH   2  21
BRANCH  10  28
HETATM   28  C   UNL     1      26.771  49.915  39.984  1.00  0.00     0.028 A 
HETATM   29  C   UNL     1      25.955  49.946  38.838  1.00  0.00     0.078 A 
HETATM   30  C   UNL     1      25.019  48.945  38.588  1.00  0.00     0.037 A 
HETATM   31  C   UNL     1      24.896  47.876  39.472  1.00  0.00     0.003 A 
HETATM   32  C   UNL     1      25.718  47.806  40.595  1.00  0.00     0.001 A 
HETATM   33  C   UNL     1      26.654  48.816  40.847  1.00  0.00     0.017 A 
BRANCH  29  34
HETATM   34  O   UNL     1      26.030  50.950  37.907  1.00  0.00    -0.360 OA
HETATM   35  H   UNL     1      25.148  51.388  37.909  1.00  0.00     0.217 HD
ENDBRANCH  29  34
ENDBRANCH  10  28
TORSDOF 8
ENDMDL
