MODEL 1
REMARK VINA RESULT:      -8.5      0.000      0.000
REMARK  7 active torsions:
REMARK  status: ('A' for Active; 'I' for Inactive)
REMARK    1  A    between atoms: C_8  and  N_9 
REMARK       I    between atoms: N_9  and  C_10 
REMARK    2  A    between atoms: C_10  and  C_11 
REMARK    3  A    between atoms: C_11  and  N_12 
REMARK    4  A    between atoms: N_12  and  C_14 
REMARK    5  A    between atoms: C_14  and  C_15 
REMARK       I    between atoms: C_15  and  N_16 
REMARK    6  A    between atoms: N_16  and  C_17 
REMARK    7  A    between atoms: C_19  and  C_20 
ROOT
HETATM    1  N   UNL     1      24.415  44.066  50.557  1.00  0.00    -0.058 N 
HETATM    2  H   UNL     1      24.813  43.227  51.012  1.00  0.00     0.280 HD
HETATM    3  C   UNL     1      22.997  43.744  50.180  1.00  0.00     0.270 C 
ENDROOT
BRANCH   1   4
HETATM    4  C   UNL     1      25.297  44.322  49.324  1.00  0.00     0.337 C 
BRANCH   4   5
HETATM    5  C   UNL     1      26.778  44.275  49.691  1.00  0.00     0.248 C 
HETATM    6  N   UNL     1      27.380  43.162  50.174  1.00  0.00    -0.322 N 
HETATM    7  H   UNL     1      28.260  43.362  50.645  1.00  0.00     0.169 HD
HETATM    8  O   UNL     1      27.427  45.326  49.603  1.00  0.00    -0.271 OA
BRANCH   6   9
HETATM    9  C   UNL     1      27.004  41.831  50.184  1.00  0.00     0.085 C 
HETATM   10  C   UNL     1      27.218  41.042  51.300  1.00  0.00     0.052 C 
HETATM   11  C   UNL     1      27.809  41.324  52.632  1.00  0.00     0.072 C 
HETATM   12  N   UNL     1      26.727  39.805  50.991  1.00  0.00    -0.280 N 
HETATM   13  H   UNL     1      26.696  38.972  51.574  1.00  0.00     0.189 HD
HETATM   14  N   UNL     1      26.260  39.719  49.742  1.00  0.00    -0.177 NA
HETATM   15  C   UNL     1      26.495  40.924  49.210  1.00  0.00     0.079 C 
HETATM   16  C   UNL     1      26.311  41.043  47.741  1.00  0.00     0.075 C 
ENDBRANCH   6   9
ENDBRANCH   4   5
ENDBRANCH   1   4
BRANCH   1  17
HETATM   17  C   UNL     1      24.538  45.191  51.597  1.00  0.00     0.337 C 
BRANCH  17  18
HETATM   18  C   UNL     1      25.375  44.839  52.835  1.00  0.00     0.248 C 
HETATM   19  N   UNL     1      26.632  45.423  52.840  1.00  0.00    -0.326 N 
HETATM   20  H   UNL     1      26.986  45.819  51.977  1.00  0.00     0.169 HD
HETATM   21  O   UNL     1      24.913  44.112  53.710  1.00  0.00    -0.271 OA
BRANCH  19  22
HETATM   22  C   UNL     1      27.541  45.466  53.922  1.00  0.00     0.035 A 
HETATM   23  C   UNL     1      28.615  44.586  54.077  1.00  0.00     0.047 A 
HETATM   24  C   UNL     1      29.454  44.642  55.213  1.00  0.00     0.071 A 
HETATM   25  C   UNL     1      29.200  45.608  56.190  1.00  0.00     0.049 A 
HETATM   26 CL   UNL     1      30.159  45.751  57.616  1.00  0.00    -0.083 Cl
HETATM   27  C   UNL     1      28.134  46.496  56.039  1.00  0.00     0.027 A 
HETATM   28  C   UNL     1      27.306  46.422  54.916  1.00  0.00     0.031 A 
BRANCH  24  29
HETATM   29  C   UNL     1      30.581  43.653  55.362  1.00  0.00     0.419 C 
HETATM   30  F   UNL     1      31.772  44.248  55.663  1.00  0.00    -0.166 F 
HETATM   31  F   UNL     1      30.371  42.747  56.354  1.00  0.00    -0.166 F 
HETATM   32  F   UNL     1      30.814  42.943  54.225  1.00  0.00    -0.166 F 
ENDBRANCH  24  29
ENDBRANCH  19  22
ENDBRANCH  17  18
ENDBRANCH   1  17
TORSDOF 7
ENDMDL
MODEL 2
REMARK VINA RESULT:      -8.5      1.664      2.498
REMARK  7 active torsions:
REMARK  status: ('A' for Active; 'I' for Inactive)
REMARK    1  A    between atoms: C_8  and  N_9 
REMARK       I    between atoms: N_9  and  C_10 
REMARK    2  A    between atoms: C_10  and  C_11 
REMARK    3  A    between atoms: C_11  and  N_12 
REMARK    4  A    between atoms: N_12  and  C_14 
REMARK    5  A    between atoms: C_14  and  C_15 
REMARK       I    between atoms: C_15  and  N_16 
REMARK    6  A    between atoms: N_16  and  C_17 
REMARK    7  A    between atoms: C_19  and  C_20 
ROOT
HETATM    1  N   UNL     1      24.861  45.563  51.258  1.00  0.00    -0.058 N 
HETATM    2  H   UNL     1      23.979  45.146  51.601  1.00  0.00     0.280 HD
HETATM    3  C   UNL     1      24.553  46.270  49.969  1.00  0.00     0.270 C 
ENDROOT
BRANCH   1   4
HETATM    4  C   UNL     1      25.823  44.381  51.053  1.00  0.00     0.337 C 
BRANCH   4   5
HETATM    5  C   UNL     1      25.080  43.049  51.144  1.00  0.00     0.248 C 
HETATM    6  N   UNL     1      25.716  41.856  51.219  1.00  0.00    -0.322 N 
HETATM    7  H   UNL     1      25.116  41.072  50.972  1.00  0.00     0.169 HD
HETATM    8  O   UNL     1      23.843  43.075  51.073  1.00  0.00    -0.271 OA
BRANCH   6   9
HETATM    9  C   UNL     1      27.022  41.517  51.523  1.00  0.00     0.085 C 
HETATM   10  C   UNL     1      27.768  40.731  50.665  1.00  0.00     0.052 C 
HETATM   11  C   UNL     1      27.466  40.111  49.350  1.00  0.00     0.072 C 
HETATM   12  N   UNL     1      28.999  40.597  51.243  1.00  0.00    -0.280 N 
HETATM   13  H   UNL     1      29.813  40.099  50.892  1.00  0.00     0.189 HD
HETATM   14  N   UNL     1      29.088  41.192  52.436  1.00  0.00    -0.177 NA
HETATM   15  C   UNL     1      27.866  41.690  52.658  1.00  0.00     0.079 C 
HETATM   16  C   UNL     1      27.597  42.189  54.030  1.00  0.00     0.075 C 
ENDBRANCH   6   9
ENDBRANCH   4   5
ENDBRANCH   1   4
BRANCH   1  17
HETATM   17  C   UNL     1      25.332  46.501  52.380  1.00  0.00     0.337 C 
BRANCH  17  18
HETATM   18  C   UNL     1      26.048  45.806  53.547  1.00  0.00     0.248 C 
HETATM   19  N   UNL     1      27.362  46.213  53.715  1.00  0.00    -0.326 N 
HETATM   20  H   UNL     1      27.811  46.725  52.964  1.00  0.00     0.169 HD
HETATM   21  O   UNL     1      25.453  44.984  54.238  1.00  0.00    -0.271 OA
BRANCH  19  22
HETATM   22  C   UNL     1      28.204  45.924  54.813  1.00  0.00     0.035 A 
HETATM   23  C   UNL     1      29.179  44.923  54.809  1.00  0.00     0.047 A 
HETATM   24  C   UNL     1      29.949  44.641  55.960  1.00  0.00     0.071 A 
HETATM   25  C   UNL     1      29.730  45.393  57.117  1.00  0.00     0.049 A 
HETATM   26 CL   UNL     1      30.610  45.120  58.574  1.00  0.00    -0.083 Cl
HETATM   27  C   UNL     1      28.763  46.400  57.127  1.00  0.00     0.027 A 
HETATM   28  C   UNL     1      28.002  46.660  55.985  1.00  0.00     0.031 A 
BRANCH  24  29
HETATM   29  C   UNL     1      30.967  43.529  55.928  1.00  0.00     0.419 C 
HETATM   30  F   UNL     1      31.090  42.959  54.694  1.00  0.00    -0.166 F 
HETATM   31  F   UNL     1      32.220  43.941  56.261  1.00  0.00    -0.166 F 
HETATM   32  F   UNL     1      30.654  42.505  56.766  1.00  0.00    -0.166 F 
ENDBRANCH  24  29
ENDBRANCH  19  22
ENDBRANCH  17  18
ENDBRANCH   1  17
TORSDOF 7
ENDMDL
MODEL 3
REMARK VINA RESULT:      -8.4      2.173      3.055
REMARK  7 active torsions:
REMARK  status: ('A' for Active; 'I' for Inactive)
REMARK    1  A    between atoms: C_8  and  N_9 
REMARK       I    between atoms: N_9  and  C_10 
REMARK    2  A    between atoms: C_10  and  C_11 
REMARK    3  A    between atoms: C_11  and  N_12 
REMARK    4  A    between atoms: N_12  and  C_14 
REMARK    5  A    between atoms: C_14  and  C_15 
REMARK       I    between atoms: C_15  and  N_16 
REMARK    6  A    between atoms: N_16  and  C_17 
REMARK    7  A    between atoms: C_19  and  C_20 
ROOT
HETATM    1  N   UNL     1      24.885  45.195  51.366  1.00  0.00    -0.058 N 
HETATM    2  H   UNL     1      24.067  44.768  51.834  1.00  0.00     0.280 HD
HETATM    3  C   UNL     1      24.369  46.007  50.212  1.00  0.00     0.270 C 
ENDROOT
BRANCH   1   4
HETATM    4  C   UNL     1      25.754  44.016  50.900  1.00  0.00     0.337 C 
BRANCH   4   5
HETATM    5  C   UNL     1      24.985  42.699  50.993  1.00  0.00     0.248 C 
HETATM    6  N   UNL     1      25.592  41.489  50.953  1.00  0.00    -0.322 N 
HETATM    7  H   UNL     1      24.951  40.733  50.724  1.00  0.00     0.169 HD
HETATM    8  O   UNL     1      23.748  42.757  51.034  1.00  0.00    -0.271 OA
BRANCH   6   9
HETATM    9  C   UNL     1      26.909  41.104  51.123  1.00  0.00     0.085 C 
HETATM   10  C   UNL     1      27.607  40.495  50.096  1.00  0.00     0.052 C 
HETATM   11  C   UNL     1      27.237  40.130  48.706  1.00  0.00     0.072 C 
HETATM   12  N   UNL     1      28.865  40.260  50.577  1.00  0.00    -0.280 N 
HETATM   13  H   UNL     1      29.658  39.840  50.099  1.00  0.00     0.189 HD
HETATM   14  N   UNL     1      29.017  40.623  51.854  1.00  0.00    -0.177 NA
HETATM   15  C   UNL     1      27.810  41.066  52.227  1.00  0.00     0.079 C 
HETATM   16  C   UNL     1      27.613  41.299  53.679  1.00  0.00     0.075 C 
ENDBRANCH   6   9
ENDBRANCH   4   5
ENDBRANCH   1   4
BRANCH   1  17
HETATM   17  C   UNL     1      25.583  46.034  52.448  1.00  0.00     0.337 C 
BRANCH  17  18
HETATM   18  C   UNL     1      26.339  45.220  53.509  1.00  0.00     0.248 C 
HETATM   19  N   UNL     1      27.708  45.431  53.499  1.00  0.00    -0.326 N 
HETATM   20  H   UNL     1      28.123  45.888  52.695  1.00  0.00     0.169 HD
HETATM   21  O   UNL     1      25.728  44.479  54.273  1.00  0.00    -0.271 OA
BRANCH  19  22
HETATM   22  C   UNL     1      28.638  45.003  54.475  1.00  0.00     0.035 A 
HETATM   23  C   UNL     1      28.777  45.593  55.734  1.00  0.00     0.047 A 
HETATM   24  C   UNL     1      29.768  45.159  56.643  1.00  0.00     0.071 A 
HETATM   25  C   UNL     1      30.613  44.110  56.269  1.00  0.00     0.049 A 
HETATM   26 CL   UNL     1      31.858  43.515  57.303  1.00  0.00    -0.083 Cl
HETATM   27  C   UNL     1      30.474  43.511  55.016  1.00  0.00     0.027 A 
HETATM   28  C   UNL     1      29.498  43.958  54.122  1.00  0.00     0.031 A 
BRANCH  24  29
HETATM   29  C   UNL     1      29.912  45.843  57.979  1.00  0.00     0.419 C 
HETATM   30  F   UNL     1      31.057  46.580  58.076  1.00  0.00    -0.166 F 
HETATM   31  F   UNL     1      28.901  46.712  58.247  1.00  0.00    -0.166 F 
HETATM   32  F   UNL     1      29.963  44.966  59.017  1.00  0.00    -0.166 F 
ENDBRANCH  24  29
ENDBRANCH  19  22
ENDBRANCH  17  18
ENDBRANCH   1  17
TORSDOF 7
ENDMDL
MODEL 4
REMARK VINA RESULT:      -8.3      3.246      5.440
REMARK  7 active torsions:
REMARK  status: ('A' for Active; 'I' for Inactive)
REMARK    1  A    between atoms: C_8  and  N_9 
REMARK       I    between atoms: N_9  and  C_10 
REMARK    2  A    between atoms: C_10  and  C_11 
REMARK    3  A    between atoms: C_11  and  N_12 
REMARK    4  A    between atoms: N_12  and  C_14 
REMARK    5  A    between atoms: C_14  and  C_15 
REMARK       I    between atoms: C_15  and  N_16 
REMARK    6  A    between atoms: N_16  and  C_17 
REMARK    7  A    between atoms: C_19  and  C_20 
ROOT
HETATM    1  N   UNL     1      26.015  45.733  51.055  1.00  0.00    -0.058 N 
HETATM    2  H   UNL     1      26.982  46.009  51.299  1.00  0.00     0.280 HD
HETATM    3  C   UNL     1      26.052  45.139  49.675  1.00  0.00     0.270 C 
ENDROOT
BRANCH   1   4
HETATM    4  C   UNL     1      25.193  47.031  51.103  1.00  0.00     0.337 C 
BRANCH   4   5
HETATM    5  C   UNL     1      25.528  47.935  49.918  1.00  0.00     0.248 C 
HETATM    6  N   UNL     1      24.595  48.372  49.040  1.00  0.00    -0.322 N 
HETATM    7  H   UNL     1      24.999  48.698  48.165  1.00  0.00     0.169 HD
HETATM    8  O   UNL     1      26.720  48.214  49.727  1.00  0.00    -0.271 OA
BRANCH   6   9
HETATM    9  C   UNL     1      23.214  48.416  49.096  1.00  0.00     0.085 C 
HETATM   10  C   UNL     1      22.455  47.312  48.754  1.00  0.00     0.052 C 
HETATM   11  C   UNL     1      22.816  45.944  48.304  1.00  0.00     0.072 C 
HETATM   12  N   UNL     1      21.150  47.676  48.930  1.00  0.00    -0.280 N 
HETATM   13  H   UNL     1      20.312  47.117  48.792  1.00  0.00     0.189 HD
HETATM   14  N   UNL     1      21.005  48.949  49.309  1.00  0.00    -0.177 NA
HETATM   15  C   UNL     1      22.250  49.438  49.338  1.00  0.00     0.079 C 
HETATM   16  C   UNL     1      22.378  50.910  49.480  1.00  0.00     0.075 C 
ENDBRANCH   6   9
ENDBRANCH   4   5
ENDBRANCH   1   4
BRANCH   1  17
HETATM   17  C   UNL     1      25.587  44.738  52.144  1.00  0.00     0.337 C 
BRANCH  17  18
HETATM   18  C   UNL     1      26.744  44.075  52.907  1.00  0.00     0.248 C 
HETATM   19  N   UNL     1      27.585  44.979  53.536  1.00  0.00    -0.326 N 
HETATM   20  H   UNL     1      27.530  45.957  53.272  1.00  0.00     0.169 HD
HETATM   21  O   UNL     1      26.852  42.853  52.929  1.00  0.00    -0.271 OA
BRANCH  19  22
HETATM   22  C   UNL     1      28.597  44.681  54.477  1.00  0.00     0.035 A 
HETATM   23  C   UNL     1      28.737  45.330  55.706  1.00  0.00     0.047 A 
HETATM   24  C   UNL     1      29.807  45.029  56.579  1.00  0.00     0.071 A 
HETATM   25  C   UNL     1      30.732  44.053  56.198  1.00  0.00     0.049 A 
HETATM   26 CL   UNL     1      32.076  43.621  57.188  1.00  0.00    -0.083 Cl
HETATM   27  C   UNL     1      30.594  43.394  54.975  1.00  0.00     0.027 A 
HETATM   28  C   UNL     1      29.537  43.710  54.118  1.00  0.00     0.031 A 
BRANCH  24  29
HETATM   29  C   UNL     1      29.946  45.776  57.881  1.00  0.00     0.419 C 
HETATM   30  F   UNL     1      28.874  46.578  58.149  1.00  0.00    -0.166 F 
HETATM   31  F   UNL     1      30.061  44.956  58.959  1.00  0.00    -0.166 F 
HETATM   32  F   UNL     1      31.025  46.604  57.900  1.00  0.00    -0.166 F 
ENDBRANCH  24  29
ENDBRANCH  19  22
ENDBRANCH  17  18
ENDBRANCH   1  17
TORSDOF 7
ENDMDL
MODEL 5
REMARK VINA RESULT:      -8.2      2.320      3.181
REMARK  7 active torsions:
REMARK  status: ('A' for Active; 'I' for Inactive)
REMARK    1  A    between atoms: C_8  and  N_9 
REMARK       I    between atoms: N_9  and  C_10 
REMARK    2  A    between atoms: C_10  and  C_11 
REMARK    3  A    between atoms: C_11  and  N_12 
REMARK    4  A    between atoms: N_12  and  C_14 
REMARK    5  A    between atoms: C_14  and  C_15 
REMARK       I    between atoms: C_15  and  N_16 
REMARK    6  A    between atoms: N_16  and  C_17 
REMARK    7  A    between atoms: C_19  and  C_20 
ROOT
HETATM    1  N   UNL     1      26.711  41.562  49.553  1.00  0.00    -0.058 N 
HETATM    2  H   UNL     1      27.709  41.609  49.821  1.00  0.00     0.280 HD
HETATM    3  C   UNL     1      26.027  40.647  50.529  1.00  0.00     0.270 C 
ENDROOT
BRANCH   1   4
HETATM    4  C   UNL     1      26.695  40.997  48.124  1.00  0.00     0.337 C 
BRANCH   4   5
HETATM    5  C   UNL     1      28.088  40.533  47.703  1.00  0.00     0.248 C 
HETATM    6  N   UNL     1      28.662  39.403  48.180  1.00  0.00    -0.322 N 
HETATM    7  H   UNL     1      29.672  39.388  48.052  1.00  0.00     0.169 HD
HETATM    8  O   UNL     1      28.736  41.271  46.947  1.00  0.00    -0.271 OA
BRANCH   6   9
HETATM    9  C   UNL     1      28.142  38.303  48.837  1.00  0.00     0.085 C 
HETATM   10  C   UNL     1      28.827  37.714  49.885  1.00  0.00     0.052 C 
HETATM   11  C   UNL     1      30.119  38.028  50.545  1.00  0.00     0.072 C 
HETATM   12  N   UNL     1      28.046  36.678  50.316  1.00  0.00    -0.280 N 
HETATM   13  H   UNL     1      28.220  36.030  51.081  1.00  0.00     0.189 HD
HETATM   14  N   UNL     1      26.935  36.519  49.591  1.00  0.00    -0.177 NA
HETATM   15  C   UNL     1      27.017  37.451  48.635  1.00  0.00     0.079 C 
HETATM   16  C   UNL     1      26.038  37.345  47.524  1.00  0.00     0.075 C 
ENDBRANCH   6   9
ENDBRANCH   4   5
ENDBRANCH   1   4
BRANCH   1  17
HETATM   17  C   UNL     1      26.205  43.011  49.606  1.00  0.00     0.337 C 
BRANCH  17  18
HETATM   18  C   UNL     1      26.968  43.928  50.574  1.00  0.00     0.248 C 
HETATM   19  N   UNL     1      26.730  43.647  51.910  1.00  0.00    -0.326 N 
HETATM   20  H   UNL     1      25.939  43.058  52.148  1.00  0.00     0.169 HD
HETATM   21  O   UNL     1      27.714  44.802  50.142  1.00  0.00    -0.271 OA
BRANCH  19  22
HETATM   22  C   UNL     1      27.434  44.162  53.022  1.00  0.00     0.035 A 
HETATM   23  C   UNL     1      28.628  43.623  53.509  1.00  0.00     0.047 A 
HETATM   24  C   UNL     1      29.254  44.145  54.664  1.00  0.00     0.071 A 
HETATM   25  C   UNL     1      28.663  45.230  55.317  1.00  0.00     0.049 A 
HETATM   26 CL   UNL     1      29.342  45.932  56.738  1.00  0.00    -0.083 Cl
HETATM   27  C   UNL     1      27.474  45.779  54.833  1.00  0.00     0.027 A 
HETATM   28  C   UNL     1      26.861  45.245  53.697  1.00  0.00     0.031 A 
BRANCH  24  29
HETATM   29  C   UNL     1      30.522  43.515  55.180  1.00  0.00     0.419 C 
HETATM   30  F   UNL     1      31.090  42.656  54.283  1.00  0.00    -0.166 F 
HETATM   31  F   UNL     1      31.491  44.423  55.471  1.00  0.00    -0.166 F 
HETATM   32  F   UNL     1      30.323  42.777  56.305  1.00  0.00    -0.166 F 
ENDBRANCH  24  29
ENDBRANCH  19  22
ENDBRANCH  17  18
ENDBRANCH   1  17
TORSDOF 7
ENDMDL
MODEL 6
REMARK VINA RESULT:      -8.1      3.176      5.233
REMARK  7 active torsions:
REMARK  status: ('A' for Active; 'I' for Inactive)
REMARK    1  A    between atoms: C_8  and  N_9 
REMARK       I    between atoms: N_9  and  C_10 
REMARK    2  A    between atoms: C_10  and  C_11 
REMARK    3  A    between atoms: C_11  and  N_12 
REMARK    4  A    between atoms: N_12  and  C_14 
REMARK    5  A    between atoms: C_14  and  C_15 
REMARK       I    between atoms: C_15  and  N_16 
REMARK    6  A    between atoms: N_16  and  C_17 
REMARK    7  A    between atoms: C_19  and  C_20 
ROOT
HETATM    1  N   UNL     1      25.251  45.822  50.818  1.00  0.00    -0.058 N 
HETATM    2  H   UNL     1      26.174  46.079  51.207  1.00  0.00     0.280 HD
HETATM    3  C   UNL     1      25.486  45.224  49.460  1.00  0.00     0.270 C 
ENDROOT
BRANCH   1   4
HETATM    4  C   UNL     1      24.458  47.137  50.740  1.00  0.00     0.337 C 
BRANCH   4   5
HETATM    5  C   UNL     1      25.115  48.115  49.768  1.00  0.00     0.248 C 
HETATM    6  N   UNL     1      24.481  48.602  48.675  1.00  0.00    -0.322 N 
HETATM    7  H   UNL     1      25.123  48.985  47.984  1.00  0.00     0.169 HD
HETATM    8  O   UNL     1      26.301  48.410  49.964  1.00  0.00    -0.271 OA
BRANCH   6   9
HETATM    9  C   UNL     1      23.147  48.636  48.312  1.00  0.00     0.085 C 
HETATM   10  C   UNL     1      22.427  49.816  48.369  1.00  0.00     0.052 C 
HETATM   11  C   UNL     1      22.794  51.200  48.759  1.00  0.00     0.072 C 
HETATM   12  N   UNL     1      21.166  49.514  47.938  1.00  0.00    -0.280 N 
HETATM   13  H   UNL     1      20.367  50.135  47.830  1.00  0.00     0.189 HD
HETATM   14  N   UNL     1      21.001  48.218  47.657  1.00  0.00    -0.177 NA
HETATM   15  C   UNL     1      22.177  47.655  47.957  1.00  0.00     0.079 C 
HETATM   16  C   UNL     1      22.208  46.170  47.986  1.00  0.00     0.075 C 
ENDBRANCH   6   9
ENDBRANCH   4   5
ENDBRANCH   1   4
BRANCH   1  17
HETATM   17  C   UNL     1      24.641  44.839  51.829  1.00  0.00     0.337 C 
BRANCH  17  18
HETATM   18  C   UNL     1      25.463  44.636  53.111  1.00  0.00     0.248 C 
HETATM   19  N   UNL     1      26.756  45.126  53.025  1.00  0.00    -0.326 N 
HETATM   20  H   UNL     1      27.129  45.352  52.109  1.00  0.00     0.169 HD
HETATM   21  O   UNL     1      24.959  44.094  54.090  1.00  0.00    -0.271 OA
BRANCH  19  22
HETATM   22  C   UNL     1      27.674  45.283  54.088  1.00  0.00     0.035 A 
HETATM   23  C   UNL     1      28.761  44.435  54.314  1.00  0.00     0.047 A 
HETATM   24  C   UNL     1      29.610  44.607  55.431  1.00  0.00     0.071 A 
HETATM   25  C   UNL     1      29.352  45.658  56.315  1.00  0.00     0.049 A 
HETATM   26 CL   UNL     1      30.322  45.946  57.711  1.00  0.00    -0.083 Cl
HETATM   27  C   UNL     1      28.273  46.515  56.092  1.00  0.00     0.027 A 
HETATM   28  C   UNL     1      27.436  46.325  54.990  1.00  0.00     0.031 A 
BRANCH  24  29
HETATM   29  C   UNL     1      30.752  43.650  55.660  1.00  0.00     0.419 C 
HETATM   30  F   UNL     1      30.964  42.815  54.602  1.00  0.00    -0.166 F 
HETATM   31  F   UNL     1      31.941  44.276  55.870  1.00  0.00    -0.166 F 
HETATM   32  F   UNL     1      30.545  42.831  56.726  1.00  0.00    -0.166 F 
ENDBRANCH  24  29
ENDBRANCH  19  22
ENDBRANCH  17  18
ENDBRANCH   1  17
TORSDOF 7
ENDMDL
MODEL 7
REMARK VINA RESULT:      -8.1      3.404      5.370
REMARK  7 active torsions:
REMARK  status: ('A' for Active; 'I' for Inactive)
REMARK    1  A    between atoms: C_8  and  N_9 
REMARK       I    between atoms: N_9  and  C_10 
REMARK    2  A    between atoms: C_10  and  C_11 
REMARK    3  A    between atoms: C_11  and  N_12 
REMARK    4  A    between atoms: N_12  and  C_14 
REMARK    5  A    between atoms: C_14  and  C_15 
REMARK       I    between atoms: C_15  and  N_16 
REMARK    6  A    between atoms: N_16  and  C_17 
REMARK    7  A    between atoms: C_19  and  C_20 
ROOT
HETATM    1  N   UNL     1      25.292  44.517  49.016  1.00  0.00    -0.058 N 
HETATM    2  H   UNL     1      25.794  44.214  48.164  1.00  0.00     0.280 HD
HETATM    3  C   UNL     1      23.852  44.721  48.641  1.00  0.00     0.270 C 
ENDROOT
BRANCH   1   4
HETATM    4  C   UNL     1      25.968  45.830  49.445  1.00  0.00     0.337 C 
BRANCH   4   5
HETATM    5  C   UNL     1      25.080  46.612  50.411  1.00  0.00     0.248 C 
HETATM    6  N   UNL     1      24.794  47.925  50.247  1.00  0.00    -0.322 N 
HETATM    7  H   UNL     1      24.459  48.366  51.101  1.00  0.00     0.169 HD
HETATM    8  O   UNL     1      24.670  46.022  51.420  1.00  0.00    -0.271 OA
BRANCH   6   9
HETATM    9  C   UNL     1      24.913  48.774  49.161  1.00  0.00     0.085 C 
HETATM   10  C   UNL     1      26.148  49.265  48.778  1.00  0.00     0.052 C 
HETATM   11  C   UNL     1      27.519  49.064  49.309  1.00  0.00     0.072 C 
HETATM   12  N   UNL     1      25.922  50.048  47.681  1.00  0.00    -0.280 N 
HETATM   13  H   UNL     1      26.598  50.560  47.119  1.00  0.00     0.189 HD
HETATM   14  N   UNL     1      24.629  50.143  47.358  1.00  0.00    -0.177 NA
HETATM   15  C   UNL     1      23.993  49.437  48.299  1.00  0.00     0.079 C 
HETATM   16  C   UNL     1      22.515  49.577  48.342  1.00  0.00     0.075 C 
ENDBRANCH   6   9
ENDBRANCH   4   5
ENDBRANCH   1   4
BRANCH   1  17
HETATM   17  C   UNL     1      25.511  43.394  50.040  1.00  0.00     0.337 C 
BRANCH  17  18
HETATM   18  C   UNL     1      26.839  43.468  50.809  1.00  0.00     0.248 C 
HETATM   19  N   UNL     1      26.688  43.776  52.151  1.00  0.00    -0.326 N 
HETATM   20  H   UNL     1      25.797  44.146  52.466  1.00  0.00     0.169 HD
HETATM   21  O   UNL     1      27.901  43.252  50.233  1.00  0.00    -0.271 OA
BRANCH  19  22
HETATM   22  C   UNL     1      27.682  43.708  53.153  1.00  0.00     0.035 A 
HETATM   23  C   UNL     1      28.006  44.764  54.008  1.00  0.00     0.047 A 
HETATM   24  C   UNL     1      29.053  44.654  54.950  1.00  0.00     0.071 A 
HETATM   25  C   UNL     1      29.766  43.454  55.027  1.00  0.00     0.049 A 
HETATM   26 CL   UNL     1      31.067  43.224  56.135  1.00  0.00    -0.083 Cl
HETATM   27  C   UNL     1      29.444  42.391  54.181  1.00  0.00     0.027 A 
HETATM   28  C   UNL     1      28.413  42.519  53.247  1.00  0.00     0.031 A 
BRANCH  24  29
HETATM   29  C   UNL     1      29.397  45.828  55.831  1.00  0.00     0.419 C 
HETATM   30  F   UNL     1      28.693  46.954  55.512  1.00  0.00    -0.166 F 
HETATM   31  F   UNL     1      29.139  45.604  57.147  1.00  0.00    -0.166 F 
HETATM   32  F   UNL     1      30.706  46.188  55.742  1.00  0.00    -0.166 F 
ENDBRANCH  24  29
ENDBRANCH  19  22
ENDBRANCH  17  18
ENDBRANCH   1  17
TORSDOF 7
ENDMDL
MODEL 8
REMARK VINA RESULT:      -7.9      6.472      8.533
REMARK  7 active torsions:
REMARK  status: ('A' for Active; 'I' for Inactive)
REMARK    1  A    between atoms: C_8  and  N_9 
REMARK       I    between atoms: N_9  and  C_10 
REMARK    2  A    between atoms: C_10  and  C_11 
REMARK    3  A    between atoms: C_11  and  N_12 
REMARK    4  A    between atoms: N_12  and  C_14 
REMARK    5  A    between atoms: C_14  and  C_15 
REMARK       I    between atoms: C_15  and  N_16 
REMARK    6  A    between atoms: N_16  and  C_17 
REMARK    7  A    between atoms: C_19  and  C_20 
ROOT
HETATM    1  N   UNL     1      25.786  44.993  50.417  1.00  0.00    -0.058 N 
HETATM    2  H   UNL     1      24.857  45.086  50.861  1.00  0.00     0.280 HD
HETATM    3  C   UNL     1      25.706  43.855  49.439  1.00  0.00     0.270 C 
ENDROOT
BRANCH   1   4
HETATM    4  C   UNL     1      26.764  44.698  51.566  1.00  0.00     0.337 C 
BRANCH   4   5
HETATM    5  C   UNL     1      26.011  44.377  52.855  1.00  0.00     0.248 C 
HETATM    6  N   UNL     1      26.621  43.879  53.957  1.00  0.00    -0.322 N 
HETATM    7  H   UNL     1      25.969  43.442  54.606  1.00  0.00     0.169 HD
HETATM    8  O   UNL     1      24.780  44.517  52.853  1.00  0.00    -0.271 OA
BRANCH   6   9
HETATM    9  C   UNL     1      27.949  43.817  54.337  1.00  0.00     0.085 C 
HETATM   10  C   UNL     1      28.691  42.667  54.134  1.00  0.00     0.052 C 
HETATM   11  C   UNL     1      28.363  41.352  53.530  1.00  0.00     0.072 C 
HETATM   12  N   UNL     1      29.948  42.938  54.598  1.00  0.00    -0.280 N 
HETATM   13  H   UNL     1      30.766  42.334  54.599  1.00  0.00     0.189 HD
HETATM   14  N   UNL     1      30.060  44.156  55.136  1.00  0.00    -0.177 NA
HETATM   15  C   UNL     1      28.829  44.676  55.057  1.00  0.00     0.079 C 
HETATM   16  C   UNL     1      28.594  45.932  55.812  1.00  0.00     0.075 C 
ENDBRANCH   6   9
ENDBRANCH   4   5
ENDBRANCH   1   4
BRANCH   1  17
HETATM   17  C   UNL     1      26.062  46.353  49.759  1.00  0.00     0.337 C 
BRANCH  17  18
HETATM   18  C   UNL     1      25.046  47.454  50.098  1.00  0.00     0.248 C 
HETATM   19  N   UNL     1      24.493  48.062  48.982  1.00  0.00    -0.326 N 
HETATM   20  H   UNL     1      24.939  47.923  48.082  1.00  0.00     0.169 HD
HETATM   21  O   UNL     1      24.782  47.715  51.267  1.00  0.00    -0.271 OA
BRANCH  19  22
HETATM   22  C   UNL     1      23.389  48.945  48.959  1.00  0.00     0.035 A 
HETATM   23  C   UNL     1      22.073  48.560  49.226  1.00  0.00     0.047 A 
HETATM   24  C   UNL     1      21.003  49.478  49.127  1.00  0.00     0.071 A 
HETATM   25  C   UNL     1      21.281  50.798  48.763  1.00  0.00     0.049 A 
HETATM   26 CL   UNL     1      20.045  51.990  48.606  1.00  0.00    -0.083 Cl
HETATM   27  C   UNL     1      22.594  51.193  48.502  1.00  0.00     0.027 A 
HETATM   28  C   UNL     1      23.641  50.272  48.593  1.00  0.00     0.031 A 
BRANCH  24  29
HETATM   29  C   UNL     1      19.592  49.016  49.388  1.00  0.00     0.419 C 
HETATM   30  F   UNL     1      19.007  49.667  50.436  1.00  0.00    -0.166 F 
HETATM   31  F   UNL     1      18.760  49.214  48.331  1.00  0.00    -0.166 F 
HETATM   32  F   UNL     1      19.520  47.695  49.704  1.00  0.00    -0.166 F 
ENDBRANCH  24  29
ENDBRANCH  19  22
ENDBRANCH  17  18
ENDBRANCH   1  17
TORSDOF 7
ENDMDL
MODEL 9
REMARK VINA RESULT:      -7.8      2.500      4.630
REMARK  7 active torsions:
REMARK  status: ('A' for Active; 'I' for Inactive)
REMARK    1  A    between atoms: C_8  and  N_9 
REMARK       I    between atoms: N_9  and  C_10 
REMARK    2  A    between atoms: C_10  and  C_11 
REMARK    3  A    between atoms: C_11  and  N_12 
REMARK    4  A    between atoms: N_12  and  C_14 
REMARK    5  A    between atoms: C_14  and  C_15 
REMARK       I    between atoms: C_15  and  N_16 
REMARK    6  A    between atoms: N_16  and  C_17 
REMARK    7  A    between atoms: C_19  and  C_20 
ROOT
HETATM    1  N   UNL     1      24.957  43.238  48.567  1.00  0.00    -0.058 N 
HETATM    2  H   UNL     1      25.139  44.178  48.175  1.00  0.00     0.280 HD
HETATM    3  C   UNL     1      24.262  42.434  47.505  1.00  0.00     0.270 C 
ENDROOT
BRANCH   1   4
HETATM    4  C   UNL     1      24.062  43.471  49.795  1.00  0.00     0.337 C 
BRANCH   4   5
HETATM    5  C   UNL     1      23.078  44.612  49.546  1.00  0.00     0.248 C 
HETATM    6  N   UNL     1      23.306  45.882  49.958  1.00  0.00    -0.322 N 
HETATM    7  H   UNL     1      22.458  46.444  49.992  1.00  0.00     0.169 HD
HETATM    8  O   UNL     1      21.999  44.334  49.004  1.00  0.00    -0.271 OA
BRANCH   6   9
HETATM    9  C   UNL     1      24.452  46.531  50.376  1.00  0.00     0.085 C 
HETATM   10  C   UNL     1      25.062  46.194  51.571  1.00  0.00     0.052 C 
HETATM   11  C   UNL     1      24.746  45.184  52.612  1.00  0.00     0.072 C 
HETATM   12  N   UNL     1      26.161  47.000  51.679  1.00  0.00    -0.280 N 
HETATM   13  H   UNL     1      26.859  47.024  52.419  1.00  0.00     0.189 HD
HETATM   14  N   UNL     1      26.278  47.869  50.671  1.00  0.00    -0.177 NA
HETATM   15  C   UNL     1      25.200  47.651  49.909  1.00  0.00     0.079 C 
HETATM   16  C   UNL     1      24.930  48.653  48.847  1.00  0.00     0.075 C 
ENDBRANCH   6   9
ENDBRANCH   4   5
ENDBRANCH   1   4
BRANCH   1  17
HETATM   17  C   UNL     1      26.337  42.685  48.956  1.00  0.00     0.337 C 
BRANCH  17  18
HETATM   18  C   UNL     1      27.065  43.476  50.053  1.00  0.00     0.248 C 
HETATM   19  N   UNL     1      27.245  42.761  51.226  1.00  0.00    -0.326 N 
HETATM   20  H   UNL     1      26.711  41.910  51.363  1.00  0.00     0.169 HD
HETATM   21  O   UNL     1      27.439  44.626  49.844  1.00  0.00    -0.271 OA
BRANCH  19  22
HETATM   22  C   UNL     1      28.055  43.128  52.326  1.00  0.00     0.035 A 
HETATM   23  C   UNL     1      27.777  44.199  53.179  1.00  0.00     0.047 A 
HETATM   24  C   UNL     1      28.658  44.554  54.225  1.00  0.00     0.071 A 
HETATM   25  C   UNL     1      29.823  43.805  54.407  1.00  0.00     0.049 A 
HETATM   26 CL   UNL     1      30.965  44.164  55.648  1.00  0.00    -0.083 Cl
HETATM   27  C   UNL     1      30.104  42.728  53.564  1.00  0.00     0.027 A 
HETATM   28  C   UNL     1      29.230  42.396  52.527  1.00  0.00     0.031 A 
BRANCH  24  29
HETATM   29  C   UNL     1      28.342  45.738  55.103  1.00  0.00     0.419 C 
HETATM   30  F   UNL     1      29.309  46.701  55.063  1.00  0.00    -0.166 F 
HETATM   31  F   UNL     1      27.190  46.371  54.754  1.00  0.00    -0.166 F 
HETATM   32  F   UNL     1      28.224  45.404  56.416  1.00  0.00    -0.166 F 
ENDBRANCH  24  29
ENDBRANCH  19  22
ENDBRANCH  17  18
ENDBRANCH   1  17
TORSDOF 7
ENDMDL
MODEL 10
REMARK VINA RESULT:      -7.8      1.432      2.059
REMARK  7 active torsions:
REMARK  status: ('A' for Active; 'I' for Inactive)
REMARK    1  A    between atoms: C_8  and  N_9 
REMARK       I    between atoms: N_9  and  C_10 
REMARK    2  A    between atoms: C_10  and  C_11 
REMARK    3  A    between atoms: C_11  and  N_12 
REMARK    4  A    between atoms: N_12  and  C_14 
REMARK    5  A    between atoms: C_14  and  C_15 
REMARK       I    between atoms: C_15  and  N_16 
REMARK    6  A    between atoms: N_16  and  C_17 
REMARK    7  A    between atoms: C_19  and  C_20 
ROOT
HETATM    1  N   UNL     1      24.282  43.758  50.977  1.00  0.00    -0.058 N 
HETATM    2  H   UNL     1      23.638  43.239  51.598  1.00  0.00     0.280 HD
HETATM    3  C   UNL     1      23.541  44.047  49.702  1.00  0.00     0.270 C 
ENDROOT
BRANCH   1   4
HETATM    4  C   UNL     1      25.478  42.819  50.749  1.00  0.00     0.337 C 
BRANCH   4   5
HETATM    5  C   UNL     1      26.250  43.211  49.491  1.00  0.00     0.248 C 
HETATM    6  N   UNL     1      26.233  42.470  48.358  1.00  0.00    -0.322 N 
HETATM    7  H   UNL     1      27.008  42.685  47.734  1.00  0.00     0.169 HD
HETATM    8  O   UNL     1      26.973  44.215  49.549  1.00  0.00    -0.271 OA
BRANCH   6   9
HETATM    9  C   UNL     1      25.394  41.461  47.919  1.00  0.00     0.085 C 
HETATM   10  C   UNL     1      25.678  40.135  48.193  1.00  0.00     0.052 C 
HETATM   11  C   UNL     1      26.781  39.475  48.934  1.00  0.00     0.072 C 
HETATM   12  N   UNL     1      24.661  39.407  47.642  1.00  0.00    -0.280 N 
HETATM   13  H   UNL     1      24.523  38.400  47.657  1.00  0.00     0.189 HD
HETATM   14  N   UNL     1      23.770  40.157  46.987  1.00  0.00    -0.177 NA
HETATM   15  C   UNL     1      24.245  41.405  47.078  1.00  0.00     0.079 C 
HETATM   16  C   UNL     1      23.591  42.424  46.220  1.00  0.00     0.075 C 
ENDBRANCH   6   9
ENDBRANCH   4   5
ENDBRANCH   1   4
BRANCH   1  17
HETATM   17  C   UNL     1      24.678  45.019  51.760  1.00  0.00     0.337 C 
BRANCH  17  18
HETATM   18  C   UNL     1      25.484  44.758  53.041  1.00  0.00     0.248 C 
HETATM   19  N   UNL     1      26.788  45.221  52.981  1.00  0.00    -0.326 N 
HETATM   20  H   UNL     1      27.175  45.467  52.077  1.00  0.00     0.169 HD
HETATM   21  O   UNL     1      24.960  44.197  53.999  1.00  0.00    -0.271 OA
BRANCH  19  22
HETATM   22  C   UNL     1      27.701  45.324  54.057  1.00  0.00     0.035 A 
HETATM   23  C   UNL     1      28.776  44.454  54.255  1.00  0.00     0.047 A 
HETATM   24  C   UNL     1      29.618  44.571  55.384  1.00  0.00     0.071 A 
HETATM   25  C   UNL     1      29.367  45.589  56.308  1.00  0.00     0.049 A 
HETATM   26 CL   UNL     1      30.330  45.809  57.721  1.00  0.00    -0.083 Cl
HETATM   27  C   UNL     1      28.299  46.467  56.112  1.00  0.00     0.027 A 
HETATM   28  C   UNL     1      27.468  46.332  54.998  1.00  0.00     0.031 A 
BRANCH  24  29
HETATM   29  C   UNL     1      30.746  43.592  55.584  1.00  0.00     0.419 C 
HETATM   30  F   UNL     1      30.954  42.794  54.495  1.00  0.00    -0.166 F 
HETATM   31  F   UNL     1      31.942  44.194  55.823  1.00  0.00    -0.166 F 
HETATM   32  F   UNL     1      30.524  42.735  56.617  1.00  0.00    -0.166 F 
ENDBRANCH  24  29
ENDBRANCH  19  22
ENDBRANCH  17  18
ENDBRANCH   1  17
TORSDOF 7
ENDMDL
