MODEL 1
REMARK VINA RESULT:     -10.7      0.000      0.000
REMARK  6 active torsions:
REMARK  status: ('A' for Active; 'I' for Inactive)
REMARK    1  A    between atoms: C_3  and  C_4 
REMARK    2  A    between atoms: C_4  and  C_5 
REMARK       I    between atoms: C_5  and  N_6 
REMARK    3  A    between atoms: N_6  and  C_7 
REMARK    4  A    between atoms: C_7  and  C_8 
REMARK    5  A    between atoms: C_8  and  C_9 
REMARK    6  A    between atoms: C_27  and  O_28 
ROOT
HETATM    1  C   UNL     1      26.540  43.771  50.548  1.00  0.00     0.222 C 
HETATM    2  N   UNL     1      25.606  44.786  50.645  1.00  0.00    -0.360 N 
HETATM    3  O   UNL     1      27.272  43.593  49.581  1.00  0.00    -0.273 OA
HETATM    4  H   UNL     1      25.365  45.046  51.595  1.00  0.00     0.162 HD
ENDROOT
BRANCH   1   5
HETATM    5  C   UNL     1      26.582  42.869  51.785  1.00  0.00     0.148 C 
BRANCH   5   6
HETATM    6  C   UNL     1      27.294  43.477  52.973  1.00  0.00     0.033 C 
HETATM    7  C   UNL     1      28.518  43.102  53.412  1.00  0.00    -0.036 C 
HETATM    8  C   UNL     1      29.331  41.989  52.803  1.00  0.00     0.050 C 
HETATM    9  C   UNL     1      29.100  43.809  54.573  1.00  0.00     0.006 A 
HETATM   10  C   UNL     1      28.475  44.971  55.026  1.00  0.00     0.093 A 
HETATM   11  C   UNL     1      30.265  43.401  55.237  1.00  0.00     0.041 A 
HETATM   12  O   UNL     1      27.254  45.397  54.488  1.00  0.00    -0.274 OA
HETATM   13  C   UNL     1      28.989  45.746  56.070  1.00  0.00     0.076 A 
HETATM   14  C   UNL     1      26.525  44.498  53.737  1.00  0.00     0.295 C 
HETATM   15  O   UNL     1      25.300  44.545  53.699  1.00  0.00    -0.259 OA
HETATM   16  C   UNL     1      30.147  45.326  56.711  1.00  0.00     0.090 A 
HETATM   17  C   UNL     1      30.779  44.147  56.305  1.00  0.00     0.068 A 
HETATM   18 CL   UNL     1      32.201  43.572  57.099  1.00  0.00    -0.081 Cl
BRANCH  16  19
HETATM   19  O   UNL     1      30.659  46.058  57.746  1.00  0.00    -0.359 OA
HETATM   20  H   UNL     1      30.909  45.465  58.474  1.00  0.00     0.218 HD
ENDBRANCH  16  19
ENDBRANCH   5   6
ENDBRANCH   1   5
BRANCH   2  21
HETATM   21  C   UNL     1      25.607  45.898  49.712  1.00  0.00     0.127 C 
BRANCH  21  22
HETATM   22  C   UNL     1      26.139  47.211  50.292  1.00  0.00     0.060 C 
BRANCH  22  23
HETATM   23  C   UNL     1      25.827  48.360  49.378  1.00  0.00    -0.029 A 
HETATM   24  C   UNL     1      24.530  48.883  49.064  1.00  0.00    -0.000 A 
HETATM   25  C   UNL     1      24.716  49.991  48.235  1.00  0.00     0.043 A 
HETATM   26  C   UNL     1      23.214  48.524  49.423  1.00  0.00     0.038 A 
HETATM   27  C   UNL     1      23.654  50.766  47.752  1.00  0.00     0.032 A 
HETATM   28  N   UNL     1      26.071  50.124  48.037  1.00  0.00    -0.365 N 
HETATM   29  C   UNL     1      22.359  50.390  48.120  1.00  0.00     0.026 A 
HETATM   30  C   UNL     1      22.146  49.286  48.940  1.00  0.00     0.035 A 
HETATM   31 CL   UNL     1      20.535  48.849  49.371  1.00  0.00    -0.084 Cl
HETATM   32  H   UNL     1      26.500  50.848  47.478  1.00  0.00     0.165 HD
HETATM   33  C   UNL     1      26.747  49.150  48.716  1.00  0.00     0.096 A 
ENDBRANCH  22  23
ENDBRANCH  21  22
ENDBRANCH   2  21
TORSDOF 6
ENDMDL
MODEL 2
REMARK VINA RESULT:      -9.9      4.470      6.882
REMARK  6 active torsions:
REMARK  status: ('A' for Active; 'I' for Inactive)
REMARK    1  A    between atoms: C_3  and  C_4 
REMARK    2  A    between atoms: C_4  and  C_5 
REMARK       I    between atoms: C_5  and  N_6 
REMARK    3  A    between atoms: N_6  and  C_7 
REMARK    4  A    between atoms: C_7  and  C_8 
REMARK    5  A    between atoms: C_8  and  C_9 
REMARK    6  A    between atoms: C_27  and  O_28 
ROOT
HETATM    1  C   UNL     1      25.528  44.473  52.317  1.00  0.00     0.222 C 
HETATM    2  N   UNL     1      25.607  43.866  51.077  1.00  0.00    -0.360 N 
HETATM    3  O   UNL     1      24.772  44.119  53.215  1.00  0.00    -0.273 OA
HETATM    4  H   UNL     1      26.494  43.993  50.603  1.00  0.00     0.162 HD
ENDROOT
BRANCH   1   5
HETATM    5  C   UNL     1      26.493  45.652  52.474  1.00  0.00     0.148 C 
BRANCH   5   6
HETATM    6  C   UNL     1      27.345  45.594  53.724  1.00  0.00     0.033 C 
HETATM    7  C   UNL     1      28.406  44.772  53.895  1.00  0.00    -0.036 C 
HETATM    8  C   UNL     1      28.864  43.759  52.877  1.00  0.00     0.050 C 
HETATM    9  C   UNL     1      29.161  44.848  55.164  1.00  0.00     0.006 A 
HETATM   10  C   UNL     1      28.897  45.907  56.033  1.00  0.00     0.093 A 
HETATM   11  C   UNL     1      30.155  43.934  55.541  1.00  0.00     0.041 A 
HETATM   12  O   UNL     1      27.855  46.808  55.785  1.00  0.00    -0.274 OA
HETATM   13  C   UNL     1      29.608  46.102  57.220  1.00  0.00     0.076 A 
HETATM   14  C   UNL     1      26.900  46.459  54.852  1.00  0.00     0.295 C 
HETATM   15  O   UNL     1      25.742  46.850  54.948  1.00  0.00    -0.259 OA
HETATM   16  C   UNL     1      30.593  45.187  57.573  1.00  0.00     0.090 A 
HETATM   17  C   UNL     1      30.858  44.096  56.743  1.00  0.00     0.068 A 
HETATM   18 CL   UNL     1      32.048  42.917  57.162  1.00  0.00    -0.081 Cl
BRANCH  16  19
HETATM   19  O   UNL     1      31.289  45.349  58.738  1.00  0.00    -0.359 OA
HETATM   20  H   UNL     1      32.228  45.502  58.540  1.00  0.00     0.218 HD
ENDBRANCH  16  19
ENDBRANCH   5   6
ENDBRANCH   1   5
BRANCH   2  21
HETATM   21  C   UNL     1      24.986  42.577  50.831  1.00  0.00     0.127 C 
BRANCH  21  22
HETATM   22  C   UNL     1      25.619  41.775  49.692  1.00  0.00     0.060 C 
BRANCH  22  23
HETATM   23  C   UNL     1      26.731  40.909  50.205  1.00  0.00    -0.029 A 
HETATM   24  C   UNL     1      27.495  39.955  49.456  1.00  0.00    -0.000 A 
HETATM   25  C   UNL     1      28.466  39.432  50.312  1.00  0.00     0.043 A 
HETATM   26  C   UNL     1      27.458  39.498  48.122  1.00  0.00     0.038 A 
HETATM   27  C   UNL     1      29.410  38.482  49.902  1.00  0.00     0.032 A 
HETATM   28  N   UNL     1      28.287  40.030  51.538  1.00  0.00    -0.365 N 
HETATM   29  C   UNL     1      29.353  38.045  48.575  1.00  0.00     0.026 A 
HETATM   30  C   UNL     1      28.390  38.545  47.703  1.00  0.00     0.035 A 
HETATM   31 CL   UNL     1      28.347  37.980  46.074  1.00  0.00    -0.084 Cl
HETATM   32  H   UNL     1      28.855  39.846  52.353  1.00  0.00     0.165 HD
HETATM   33  C   UNL     1      27.248  40.916  51.486  1.00  0.00     0.096 A 
ENDBRANCH  22  23
ENDBRANCH  21  22
ENDBRANCH   2  21
TORSDOF 6
ENDMDL
MODEL 3
REMARK VINA RESULT:      -9.9      1.672      2.250
REMARK  6 active torsions:
REMARK  status: ('A' for Active; 'I' for Inactive)
REMARK    1  A    between atoms: C_3  and  C_4 
REMARK    2  A    between atoms: C_4  and  C_5 
REMARK       I    between atoms: C_5  and  N_6 
REMARK    3  A    between atoms: N_6  and  C_7 
REMARK    4  A    between atoms: C_7  and  C_8 
REMARK    5  A    between atoms: C_8  and  C_9 
REMARK    6  A    between atoms: C_27  and  O_28 
ROOT
HETATM    1  C   UNL     1      26.676  44.993  50.502  1.00  0.00     0.222 C 
HETATM    2  N   UNL     1      25.497  45.715  50.464  1.00  0.00    -0.360 N 
HETATM    3  O   UNL     1      27.631  45.187  49.760  1.00  0.00    -0.273 OA
HETATM    4  H   UNL     1      24.979  45.721  51.335  1.00  0.00     0.162 HD
ENDROOT
BRANCH   1   5
HETATM    5  C   UNL     1      26.684  43.908  51.583  1.00  0.00     0.148 C 
BRANCH   5   6
HETATM    6  C   UNL     1      27.388  44.308  52.860  1.00  0.00     0.033 C 
HETATM    7  C   UNL     1      28.561  43.788  53.289  1.00  0.00    -0.036 C 
HETATM    8  C   UNL     1      29.315  42.698  52.571  1.00  0.00     0.050 C 
HETATM    9  C   UNL     1      29.144  44.300  54.547  1.00  0.00     0.006 A 
HETATM   10  C   UNL     1      28.587  45.443  55.122  1.00  0.00     0.093 A 
HETATM   11  C   UNL     1      30.247  43.724  55.193  1.00  0.00     0.041 A 
HETATM   12  O   UNL     1      27.425  46.025  54.602  1.00  0.00    -0.274 OA
HETATM   13  C   UNL     1      29.113  46.041  56.270  1.00  0.00     0.076 A 
HETATM   14  C   UNL     1      26.664  45.285  53.721  1.00  0.00     0.295 C 
HETATM   15  O   UNL     1      25.449  45.432  53.649  1.00  0.00    -0.259 OA
HETATM   16  C   UNL     1      30.209  45.457  56.892  1.00  0.00     0.090 A 
HETATM   17  C   UNL     1      30.770  44.291  56.362  1.00  0.00     0.068 A 
HETATM   18 CL   UNL     1      32.110  43.514  57.124  1.00  0.00    -0.081 Cl
BRANCH  16  19
HETATM   19  O   UNL     1      30.729  46.014  58.026  1.00  0.00    -0.359 OA
HETATM   20  H   UNL     1      30.008  46.271  58.625  1.00  0.00     0.218 HD
ENDBRANCH  16  19
ENDBRANCH   5   6
ENDBRANCH   1   5
BRANCH   2  21
HETATM   21  C   UNL     1      25.398  46.952  49.711  1.00  0.00     0.127 C 
BRANCH  21  22
HETATM   22  C   UNL     1      24.158  47.790  50.028  1.00  0.00     0.060 C 
BRANCH  22  23
HETATM   23  C   UNL     1      23.037  47.458  49.087  1.00  0.00    -0.029 A 
HETATM   24  C   UNL     1      22.008  48.343  48.627  1.00  0.00    -0.000 A 
HETATM   25  C   UNL     1      21.225  47.635  47.714  1.00  0.00     0.043 A 
HETATM   26  C   UNL     1      21.681  49.689  48.892  1.00  0.00     0.038 A 
HETATM   27  C   UNL     1      20.135  48.205  47.044  1.00  0.00     0.032 A 
HETATM   28  N   UNL     1      21.745  46.364  47.637  1.00  0.00    -0.365 N 
HETATM   29  C   UNL     1      19.829  49.540  47.325  1.00  0.00     0.026 A 
HETATM   30  C   UNL     1      20.590  50.267  48.236  1.00  0.00     0.035 A 
HETATM   31 CL   UNL     1      20.183  51.910  48.560  1.00  0.00    -0.084 Cl
HETATM   32  H   UNL     1      21.379  45.630  47.047  1.00  0.00     0.165 HD
HETATM   33  C   UNL     1      22.831  46.246  48.458  1.00  0.00     0.096 A 
ENDBRANCH  22  23
ENDBRANCH  21  22
ENDBRANCH   2  21
TORSDOF 6
ENDMDL
MODEL 4
REMARK VINA RESULT:      -9.8     12.290     15.041
REMARK  6 active torsions:
REMARK  status: ('A' for Active; 'I' for Inactive)
REMARK    1  A    between atoms: C_3  and  C_4 
REMARK    2  A    between atoms: C_4  and  C_5 
REMARK       I    between atoms: C_5  and  N_6 
REMARK    3  A    between atoms: N_6  and  C_7 
REMARK    4  A    between atoms: C_7  and  C_8 
REMARK    5  A    between atoms: C_8  and  C_9 
REMARK    6  A    between atoms: C_27  and  O_28 
ROOT
HETATM    1  C   UNL     1      34.373  52.074  39.948  1.00  0.00     0.222 C 
HETATM    2  N   UNL     1      34.183  51.598  41.233  1.00  0.00    -0.360 N 
HETATM    3  O   UNL     1      35.240  51.671  39.181  1.00  0.00    -0.273 OA
HETATM    4  H   UNL     1      33.244  51.723  41.592  1.00  0.00     0.162 HD
ENDROOT
BRANCH   1   5
HETATM    5  C   UNL     1      33.379  53.171  39.558  1.00  0.00     0.148 C 
BRANCH   5   6
HETATM    6  C   UNL     1      31.927  52.759  39.662  1.00  0.00     0.033 C 
HETATM    7  C   UNL     1      31.354  51.768  38.940  1.00  0.00    -0.036 C 
HETATM    8  C   UNL     1      32.075  50.960  37.892  1.00  0.00     0.050 C 
HETATM    9  C   UNL     1      29.926  51.460  39.171  1.00  0.00     0.006 A 
HETATM   10  C   UNL     1      29.290  52.039  40.269  1.00  0.00     0.093 A 
HETATM   11  C   UNL     1      29.171  50.593  38.369  1.00  0.00     0.041 A 
HETATM   12  O   UNL     1      29.937  52.992  41.065  1.00  0.00    -0.274 OA
HETATM   13  C   UNL     1      27.965  51.753  40.609  1.00  0.00     0.076 A 
HETATM   14  C   UNL     1      31.083  53.582  40.572  1.00  0.00     0.295 C 
HETATM   15  O   UNL     1      31.391  54.729  40.878  1.00  0.00    -0.259 OA
HETATM   16  C   UNL     1      27.235  50.887  39.803  1.00  0.00     0.090 A 
HETATM   17  C   UNL     1      27.832  50.317  38.675  1.00  0.00     0.068 A 
HETATM   18 CL   UNL     1      26.950  49.265  37.628  1.00  0.00    -0.081 Cl
BRANCH  16  19
HETATM   19  O   UNL     1      25.933  50.606  40.106  1.00  0.00    -0.359 OA
HETATM   20  H   UNL     1      25.344  51.111  39.521  1.00  0.00     0.218 HD
ENDBRANCH  16  19
ENDBRANCH   5   6
ENDBRANCH   1   5
BRANCH   2  21
HETATM   21  C   UNL     1      34.831  50.381  41.686  1.00  0.00     0.127 C 
BRANCH  21  22
HETATM   22  C   UNL     1      34.080  49.095  41.334  1.00  0.00     0.060 C 
BRANCH  22  23
HETATM   23  C   UNL     1      32.646  49.182  41.762  1.00  0.00    -0.029 A 
HETATM   24  C   UNL     1      31.523  48.534  41.151  1.00  0.00    -0.000 A 
HETATM   25  C   UNL     1      30.397  48.837  41.918  1.00  0.00     0.043 A 
HETATM   26  C   UNL     1      31.365  47.704  40.022  1.00  0.00     0.038 A 
HETATM   27  C   UNL     1      29.119  48.345  41.620  1.00  0.00     0.032 A 
HETATM   28  N   UNL     1      30.814  49.653  42.943  1.00  0.00    -0.365 N 
HETATM   29  C   UNL     1      28.988  47.525  40.495  1.00  0.00     0.026 A 
HETATM   30  C   UNL     1      30.094  47.213  39.710  1.00  0.00     0.035 A 
HETATM   31 CL   UNL     1      29.894  46.201  38.328  1.00  0.00    -0.084 Cl
HETATM   32  H   UNL     1      30.209  50.026  43.661  1.00  0.00     0.165 HD
HETATM   33  C   UNL     1      32.161  49.868  42.859  1.00  0.00     0.096 A 
ENDBRANCH  22  23
ENDBRANCH  21  22
ENDBRANCH   2  21
TORSDOF 6
ENDMDL
MODEL 5
REMARK VINA RESULT:      -9.6      2.857      9.756
REMARK  6 active torsions:
REMARK  status: ('A' for Active; 'I' for Inactive)
REMARK    1  A    between atoms: C_3  and  C_4 
REMARK    2  A    between atoms: C_4  and  C_5 
REMARK       I    between atoms: C_5  and  N_6 
REMARK    3  A    between atoms: N_6  and  C_7 
REMARK    4  A    between atoms: C_7  and  C_8 
REMARK    5  A    between atoms: C_8  and  C_9 
REMARK    6  A    between atoms: C_27  and  O_28 
ROOT
HETATM    1  C   UNL     1      25.001  44.577  50.886  1.00  0.00     0.222 C 
HETATM    2  N   UNL     1      26.267  44.197  51.291  1.00  0.00    -0.360 N 
HETATM    3  O   UNL     1      24.000  44.517  51.591  1.00  0.00    -0.273 OA
HETATM    4  H   UNL     1      27.022  44.642  50.784  1.00  0.00     0.162 HD
ENDROOT
BRANCH   1   5
HETATM    5  C   UNL     1      24.958  45.096  49.445  1.00  0.00     0.148 C 
BRANCH   5   6
HETATM    6  C   UNL     1      24.197  46.392  49.274  1.00  0.00     0.033 C 
HETATM    7  C   UNL     1      22.983  46.500  48.686  1.00  0.00    -0.036 C 
HETATM    8  C   UNL     1      22.233  45.344  48.075  1.00  0.00     0.050 C 
HETATM    9  C   UNL     1      22.348  47.833  48.615  1.00  0.00     0.006 A 
HETATM   10  C   UNL     1      22.912  48.878  49.348  1.00  0.00     0.093 A 
HETATM   11  C   UNL     1      21.190  48.113  47.876  1.00  0.00     0.041 A 
HETATM   12  O   UNL     1      24.122  48.716  50.033  1.00  0.00    -0.274 OA
HETATM   13  C   UNL     1      22.344  50.154  49.400  1.00  0.00     0.076 A 
HETATM   14  C   UNL     1      24.905  47.623  49.721  1.00  0.00     0.295 C 
HETATM   15  O   UNL     1      26.127  47.668  49.814  1.00  0.00    -0.259 OA
HETATM   16  C   UNL     1      21.193  50.409  48.664  1.00  0.00     0.090 A 
HETATM   17  C   UNL     1      20.623  49.394  47.891  1.00  0.00     0.068 A 
HETATM   18 CL   UNL     1      19.214  49.679  46.935  1.00  0.00    -0.081 Cl
BRANCH  16  19
HETATM   19  O   UNL     1      20.630  51.654  48.686  1.00  0.00    -0.359 OA
HETATM   20  H   UNL     1      20.440  51.911  49.604  1.00  0.00     0.218 HD
ENDBRANCH  16  19
ENDBRANCH   5   6
ENDBRANCH   1   5
BRANCH   2  21
HETATM   21  C   UNL     1      26.563  43.946  52.690  1.00  0.00     0.127 C 
BRANCH  21  22
HETATM   22  C   UNL     1      28.027  44.167  53.077  1.00  0.00     0.060 C 
BRANCH  22  23
HETATM   23  C   UNL     1      28.129  45.011  54.313  1.00  0.00    -0.029 A 
HETATM   24  C   UNL     1      29.093  44.882  55.366  1.00  0.00    -0.000 A 
HETATM   25  C   UNL     1      28.860  45.916  56.275  1.00  0.00     0.043 A 
HETATM   26  C   UNL     1      30.154  43.988  55.622  1.00  0.00     0.038 A 
HETATM   27  C   UNL     1      29.638  46.109  57.423  1.00  0.00     0.032 A 
HETATM   28  N   UNL     1      27.785  46.633  55.803  1.00  0.00    -0.365 N 
HETATM   29  C   UNL     1      30.682  45.209  57.656  1.00  0.00     0.026 A 
HETATM   30  C   UNL     1      30.932  44.166  56.769  1.00  0.00     0.035 A 
HETATM   31 CL   UNL     1      32.227  43.073  57.089  1.00  0.00    -0.084 Cl
HETATM   32  H   UNL     1      27.395  47.446  56.258  1.00  0.00     0.165 HD
HETATM   33  C   UNL     1      27.338  46.098  54.628  1.00  0.00     0.096 A 
ENDBRANCH  22  23
ENDBRANCH  21  22
ENDBRANCH   2  21
TORSDOF 6
ENDMDL
MODEL 6
REMARK VINA RESULT:      -9.5     12.423     14.145
REMARK  6 active torsions:
REMARK  status: ('A' for Active; 'I' for Inactive)
REMARK    1  A    between atoms: C_3  and  C_4 
REMARK    2  A    between atoms: C_4  and  C_5 
REMARK       I    between atoms: C_5  and  N_6 
REMARK    3  A    between atoms: N_6  and  C_7 
REMARK    4  A    between atoms: C_7  and  C_8 
REMARK    5  A    between atoms: C_8  and  C_9 
REMARK    6  A    between atoms: C_27  and  O_28 
ROOT
HETATM    1  C   UNL     1      27.189  50.864  38.490  1.00  0.00     0.222 C 
HETATM    2  N   UNL     1      26.509  50.455  39.622  1.00  0.00    -0.360 N 
HETATM    3  O   UNL     1      27.120  50.308  37.400  1.00  0.00    -0.273 OA
HETATM    4  H   UNL     1      26.351  51.186  40.304  1.00  0.00     0.162 HD
ENDROOT
BRANCH   1   5
HETATM    5  C   UNL     1      28.055  52.106  38.722  1.00  0.00     0.148 C 
BRANCH   5   6
HETATM    6  C   UNL     1      29.418  51.812  39.308  1.00  0.00     0.033 C 
HETATM    7  C   UNL     1      29.760  52.011  40.602  1.00  0.00    -0.036 C 
HETATM    8  C   UNL     1      28.837  52.599  41.639  1.00  0.00     0.050 C 
HETATM    9  C   UNL     1      31.126  51.649  41.037  1.00  0.00     0.006 A 
HETATM   10  C   UNL     1      31.929  50.915  40.164  1.00  0.00     0.093 A 
HETATM   11  C   UNL     1      31.662  51.973  42.291  1.00  0.00     0.041 A 
HETATM   12  O   UNL     1      31.514  50.634  38.857  1.00  0.00    -0.274 OA
HETATM   13  C   UNL     1      33.206  50.467  40.512  1.00  0.00     0.076 A 
HETATM   14  C   UNL     1      30.454  51.352  38.342  1.00  0.00     0.295 C 
HETATM   15  O   UNL     1      30.370  51.592  37.142  1.00  0.00    -0.259 OA
HETATM   16  C   UNL     1      33.717  50.795  41.762  1.00  0.00     0.090 A 
HETATM   17  C   UNL     1      32.952  51.559  42.648  1.00  0.00     0.068 A 
HETATM   18 CL   UNL     1      33.563  52.019  44.196  1.00  0.00    -0.081 Cl
BRANCH  16  19
HETATM   19  O   UNL     1      34.970  50.383  42.118  1.00  0.00    -0.359 OA
HETATM   20  H   UNL     1      35.185  49.554  41.658  1.00  0.00     0.218 HD
ENDBRANCH  16  19
ENDBRANCH   5   6
ENDBRANCH   1   5
BRANCH   2  21
HETATM   21  C   UNL     1      25.435  49.481  39.541  1.00  0.00     0.127 C 
BRANCH  21  22
HETATM   22  C   UNL     1      25.817  48.076  40.011  1.00  0.00     0.060 C 
BRANCH  22  23
HETATM   23  C   UNL     1      27.083  47.619  39.350  1.00  0.00    -0.029 A 
HETATM   24  C   UNL     1      28.407  47.666  39.898  1.00  0.00    -0.000 A 
HETATM   25  C   UNL     1      29.265  47.074  38.970  1.00  0.00     0.043 A 
HETATM   26  C   UNL     1      28.951  48.143  41.109  1.00  0.00     0.038 A 
HETATM   27  C   UNL     1      30.640  46.926  39.192  1.00  0.00     0.032 A 
HETATM   28  N   UNL     1      28.497  46.701  37.891  1.00  0.00    -0.365 N 
HETATM   29  C   UNL     1      31.156  47.409  40.398  1.00  0.00     0.026 A 
HETATM   30  C   UNL     1      30.323  48.009  41.338  1.00  0.00     0.035 A 
HETATM   31 CL   UNL     1      30.994  48.596  42.814  1.00  0.00    -0.084 Cl
HETATM   32  H   UNL     1      28.855  46.241  37.065  1.00  0.00     0.165 HD
HETATM   33  C   UNL     1      27.187  47.025  38.107  1.00  0.00     0.096 A 
ENDBRANCH  22  23
ENDBRANCH  21  22
ENDBRANCH   2  21
TORSDOF 6
ENDMDL
MODEL 7
REMARK VINA RESULT:      -9.5      2.754      9.175
REMARK  6 active torsions:
REMARK  status: ('A' for Active; 'I' for Inactive)
REMARK    1  A    between atoms: C_3  and  C_4 
REMARK    2  A    between atoms: C_4  and  C_5 
REMARK       I    between atoms: C_5  and  N_6 
REMARK    3  A    between atoms: N_6  and  C_7 
REMARK    4  A    between atoms: C_7  and  C_8 
REMARK    5  A    between atoms: C_8  and  C_9 
REMARK    6  A    between atoms: C_27  and  O_28 
ROOT
HETATM    1  C   UNL     1      25.513  43.329  51.401  1.00  0.00     0.222 C 
HETATM    2  N   UNL     1      26.692  42.621  51.541  1.00  0.00    -0.360 N 
HETATM    3  O   UNL     1      24.898  43.841  52.329  1.00  0.00    -0.273 OA
HETATM    4  H   UNL     1      27.268  42.596  50.708  1.00  0.00     0.162 HD
ENDROOT
BRANCH   1   5
HETATM    5  C   UNL     1      25.032  43.421  49.950  1.00  0.00     0.148 C 
BRANCH   5   6
HETATM    6  C   UNL     1      24.132  44.604  49.668  1.00  0.00     0.033 C 
HETATM    7  C   UNL     1      24.554  45.885  49.559  1.00  0.00    -0.036 C 
HETATM    8  C   UNL     1      25.984  46.323  49.749  1.00  0.00     0.050 C 
HETATM    9  C   UNL     1      23.559  46.934  49.252  1.00  0.00     0.006 A 
HETATM   10  C   UNL     1      22.277  46.542  48.867  1.00  0.00     0.093 A 
HETATM   11  C   UNL     1      23.829  48.309  49.296  1.00  0.00     0.041 A 
HETATM   12  O   UNL     1      21.890  45.197  48.891  1.00  0.00    -0.274 OA
HETATM   13  C   UNL     1      21.291  47.458  48.490  1.00  0.00     0.076 A 
HETATM   14  C   UNL     1      22.675  44.307  49.595  1.00  0.00     0.295 C 
HETATM   15  O   UNL     1      22.191  43.314  50.128  1.00  0.00    -0.259 OA
HETATM   16  C   UNL     1      21.581  48.816  48.536  1.00  0.00     0.090 A 
HETATM   17  C   UNL     1      22.844  49.244  48.951  1.00  0.00     0.068 A 
HETATM   18 CL   UNL     1      23.234  50.923  49.057  1.00  0.00    -0.081 Cl
BRANCH  16  19
HETATM   19  O   UNL     1      20.627  49.731  48.188  1.00  0.00    -0.359 OA
HETATM   20  H   UNL     1      21.031  50.445  47.667  1.00  0.00     0.218 HD
ENDBRANCH  16  19
ENDBRANCH   5   6
ENDBRANCH   1   5
BRANCH   2  21
HETATM   21  C   UNL     1      27.448  42.660  52.780  1.00  0.00     0.127 C 
BRANCH  21  22
HETATM   22  C   UNL     1      28.559  43.712  52.812  1.00  0.00     0.060 C 
BRANCH  22  23
HETATM   23  C   UNL     1      28.407  44.609  54.005  1.00  0.00    -0.029 A 
HETATM   24  C   UNL     1      29.247  44.646  55.166  1.00  0.00    -0.000 A 
HETATM   25  C   UNL     1      28.781  45.675  55.986  1.00  0.00     0.043 A 
HETATM   26  C   UNL     1      30.372  43.907  55.587  1.00  0.00     0.038 A 
HETATM   27  C   UNL     1      29.386  46.011  57.203  1.00  0.00     0.032 A 
HETATM   28  N   UNL     1      27.689  46.228  55.358  1.00  0.00    -0.365 N 
HETATM   29  C   UNL     1      30.499  45.264  57.601  1.00  0.00     0.026 A 
HETATM   30  C   UNL     1      30.980  44.228  56.804  1.00  0.00     0.035 A 
HETATM   31 CL   UNL     1      32.353  43.326  57.327  1.00  0.00    -0.084 Cl
HETATM   32  H   UNL     1      27.149  47.001  55.722  1.00  0.00     0.165 HD
HETATM   33  C   UNL     1      27.455  45.595  54.170  1.00  0.00     0.096 A 
ENDBRANCH  22  23
ENDBRANCH  21  22
ENDBRANCH   2  21
TORSDOF 6
ENDMDL
MODEL 8
REMARK VINA RESULT:      -9.4     12.270     13.992
REMARK  6 active torsions:
REMARK  status: ('A' for Active; 'I' for Inactive)
REMARK    1  A    between atoms: C_3  and  C_4 
REMARK    2  A    between atoms: C_4  and  C_5 
REMARK       I    between atoms: C_5  and  N_6 
REMARK    3  A    between atoms: N_6  and  C_7 
REMARK    4  A    between atoms: C_7  and  C_8 
REMARK    5  A    between atoms: C_8  and  C_9 
REMARK    6  A    between atoms: C_27  and  O_28 
ROOT
HETATM    1  C   UNL     1      27.635  51.140  38.731  1.00  0.00     0.222 C 
HETATM    2  N   UNL     1      26.799  50.684  39.734  1.00  0.00    -0.360 N 
HETATM    3  O   UNL     1      27.755  50.608  37.633  1.00  0.00    -0.273 OA
HETATM    4  H   UNL     1      26.513  51.394  40.397  1.00  0.00     0.162 HD
ENDROOT
BRANCH   1   5
HETATM    5  C   UNL     1      28.414  52.400  39.121  1.00  0.00     0.148 C 
BRANCH   5   6
HETATM    6  C   UNL     1      29.628  52.137  39.984  1.00  0.00     0.033 C 
HETATM    7  C   UNL     1      30.840  51.758  39.514  1.00  0.00    -0.036 C 
HETATM    8  C   UNL     1      31.139  51.499  38.059  1.00  0.00     0.050 C 
HETATM    9  C   UNL     1      31.943  51.564  40.478  1.00  0.00     0.006 A 
HETATM   10  C   UNL     1      31.761  51.993  41.793  1.00  0.00     0.093 A 
HETATM   11  C   UNL     1      33.183  50.999  40.149  1.00  0.00     0.041 A 
HETATM   12  O   UNL     1      30.523  52.478  42.234  1.00  0.00    -0.274 OA
HETATM   13  C   UNL     1      32.769  51.918  42.757  1.00  0.00     0.076 A 
HETATM   14  C   UNL     1      29.412  52.232  41.454  1.00  0.00     0.295 C 
HETATM   15  O   UNL     1      28.299  52.104  41.952  1.00  0.00    -0.259 OA
HETATM   16  C   UNL     1      33.992  51.358  42.409  1.00  0.00     0.090 A 
HETATM   17  C   UNL     1      34.197  50.886  41.110  1.00  0.00     0.068 A 
HETATM   18 CL   UNL     1      35.689  50.151  40.646  1.00  0.00    -0.081 Cl
BRANCH  16  19
HETATM   19  O   UNL     1      34.988  51.258  43.340  1.00  0.00    -0.359 OA
HETATM   20  H   UNL     1      34.706  50.666  44.058  1.00  0.00     0.218 HD
ENDBRANCH  16  19
ENDBRANCH   5   6
ENDBRANCH   1   5
BRANCH   2  21
HETATM   21  C   UNL     1      25.783  49.683  39.466  1.00  0.00     0.127 C 
BRANCH  21  22
HETATM   22  C   UNL     1      26.137  48.275  39.951  1.00  0.00     0.060 C 
BRANCH  22  23
HETATM   23  C   UNL     1      27.429  47.813  39.346  1.00  0.00    -0.029 A 
HETATM   24  C   UNL     1      28.731  47.882  39.941  1.00  0.00    -0.000 A 
HETATM   25  C   UNL     1      29.627  47.276  39.058  1.00  0.00     0.043 A 
HETATM   26  C   UNL     1      29.228  48.391  41.159  1.00  0.00     0.038 A 
HETATM   27  C   UNL     1      30.994  47.144  39.332  1.00  0.00     0.032 A 
HETATM   28  N   UNL     1      28.901  46.873  37.961  1.00  0.00    -0.365 N 
HETATM   29  C   UNL     1      31.463  47.658  40.545  1.00  0.00     0.026 A 
HETATM   30  C   UNL     1      30.592  48.273  41.440  1.00  0.00     0.035 A 
HETATM   31 CL   UNL     1      31.206  48.898  42.925  1.00  0.00    -0.084 Cl
HETATM   32  H   UNL     1      29.291  46.397  37.159  1.00  0.00     0.165 HD
HETATM   33  C   UNL     1      27.582  47.192  38.122  1.00  0.00     0.096 A 
ENDBRANCH  22  23
ENDBRANCH  21  22
ENDBRANCH   2  21
TORSDOF 6
ENDMDL
MODEL 9
REMARK VINA RESULT:      -9.3      3.990     10.677
REMARK  6 active torsions:
REMARK  status: ('A' for Active; 'I' for Inactive)
REMARK    1  A    between atoms: C_3  and  C_4 
REMARK    2  A    between atoms: C_4  and  C_5 
REMARK       I    between atoms: C_5  and  N_6 
REMARK    3  A    between atoms: N_6  and  C_7 
REMARK    4  A    between atoms: C_7  and  C_8 
REMARK    5  A    between atoms: C_8  and  C_9 
REMARK    6  A    between atoms: C_27  and  O_28 
ROOT
HETATM    1  C   UNL     1      23.808  47.200  49.646  1.00  0.00     0.222 C 
HETATM    2  N   UNL     1      23.815  45.878  50.052  1.00  0.00    -0.360 N 
HETATM    3  O   UNL     1      24.312  48.122  50.278  1.00  0.00    -0.273 OA
HETATM    4  H   UNL     1      23.723  45.207  49.298  1.00  0.00     0.162 HD
ENDROOT
BRANCH   1   5
HETATM    5  C   UNL     1      23.101  47.416  48.305  1.00  0.00     0.148 C 
BRANCH   5   6
HETATM    6  C   UNL     1      22.100  48.551  48.306  1.00  0.00     0.033 C 
HETATM    7  C   UNL     1      20.775  48.409  48.539  1.00  0.00    -0.036 C 
HETATM    8  C   UNL     1      20.097  47.085  48.786  1.00  0.00     0.050 C 
HETATM    9  C   UNL     1      19.922  49.616  48.535  1.00  0.00     0.006 A 
HETATM   10  C   UNL     1      20.541  50.867  48.518  1.00  0.00     0.093 A 
HETATM   11  C   UNL     1      18.521  49.588  48.576  1.00  0.00     0.041 A 
HETATM   12  O   UNL     1      21.928  50.990  48.376  1.00  0.00    -0.274 OA
HETATM   13  C   UNL     1      19.822  52.064  48.584  1.00  0.00     0.076 A 
HETATM   14  C   UNL     1      22.638  49.890  47.938  1.00  0.00     0.295 C 
HETATM   15  O   UNL     1      23.666  50.015  47.282  1.00  0.00    -0.259 OA
HETATM   16  C   UNL     1      18.434  52.014  48.629  1.00  0.00     0.090 A 
HETATM   17  C   UNL     1      17.782  50.778  48.612  1.00  0.00     0.068 A 
HETATM   18 CL   UNL     1      16.058  50.672  48.631  1.00  0.00    -0.081 Cl
BRANCH  16  19
HETATM   19  O   UNL     1      17.710  53.171  48.676  1.00  0.00    -0.359 OA
HETATM   20  H   UNL     1      18.308  53.927  48.802  1.00  0.00     0.218 HD
ENDBRANCH  16  19
ENDBRANCH   5   6
ENDBRANCH   1   5
BRANCH   2  21
HETATM   21  C   UNL     1      24.666  45.431  51.140  1.00  0.00     0.127 C 
BRANCH  21  22
HETATM   22  C   UNL     1      26.150  45.327  50.782  1.00  0.00     0.060 C 
BRANCH  22  23
HETATM   23  C   UNL     1      26.714  44.012  51.231  1.00  0.00    -0.029 A 
HETATM   24  C   UNL     1      27.554  43.779  52.370  1.00  0.00    -0.000 A 
HETATM   25  C   UNL     1      27.780  42.404  52.448  1.00  0.00     0.043 A 
HETATM   26  C   UNL     1      28.129  44.613  53.351  1.00  0.00     0.038 A 
HETATM   27  C   UNL     1      28.546  41.816  53.462  1.00  0.00     0.032 A 
HETATM   28  N   UNL     1      27.122  41.826  51.387  1.00  0.00    -0.365 N 
HETATM   29  C   UNL     1      29.107  42.663  54.423  1.00  0.00     0.026 A 
HETATM   30  C   UNL     1      28.902  44.038  54.365  1.00  0.00     0.035 A 
HETATM   31 CL   UNL     1      29.611  45.053  55.564  1.00  0.00    -0.084 Cl
HETATM   32  H   UNL     1      27.107  40.834  51.194  1.00  0.00     0.165 HD
HETATM   33  C   UNL     1      26.481  42.781  50.650  1.00  0.00     0.096 A 
ENDBRANCH  22  23
ENDBRANCH  21  22
ENDBRANCH   2  21
TORSDOF 6
ENDMDL
MODEL 10
REMARK VINA RESULT:      -9.0     12.080     14.867
REMARK  6 active torsions:
REMARK  status: ('A' for Active; 'I' for Inactive)
REMARK    1  A    between atoms: C_3  and  C_4 
REMARK    2  A    between atoms: C_4  and  C_5 
REMARK       I    between atoms: C_5  and  N_6 
REMARK    3  A    between atoms: N_6  and  C_7 
REMARK    4  A    between atoms: C_7  and  C_8 
REMARK    5  A    between atoms: C_8  and  C_9 
REMARK    6  A    between atoms: C_27  and  O_28 
ROOT
HETATM    1  C   UNL     1      32.276  51.996  39.541  1.00  0.00     0.222 C 
HETATM    2  N   UNL     1      33.008  51.094  40.292  1.00  0.00    -0.360 N 
HETATM    3  O   UNL     1      32.033  53.147  39.885  1.00  0.00    -0.273 OA
HETATM    4  H   UNL     1      33.447  50.357  39.753  1.00  0.00     0.162 HD
ENDROOT
BRANCH   1   5
HETATM    5  C   UNL     1      31.788  51.417  38.210  1.00  0.00     0.148 C 
BRANCH   5   6
HETATM    6  C   UNL     1      30.517  50.604  38.316  1.00  0.00     0.033 C 
HETATM    7  C   UNL     1      29.269  51.099  38.145  1.00  0.00    -0.036 C 
HETATM    8  C   UNL     1      28.966  52.550  37.867  1.00  0.00     0.050 C 
HETATM    9  C   UNL     1      28.120  50.175  38.251  1.00  0.00     0.006 A 
HETATM   10  C   UNL     1      28.372  48.803  38.298  1.00  0.00     0.093 A 
HETATM   11  C   UNL     1      26.781  50.587  38.280  1.00  0.00     0.041 A 
HETATM   12  O   UNL     1      29.679  48.307  38.374  1.00  0.00    -0.274 OA
HETATM   13  C   UNL     1      27.351  47.850  38.328  1.00  0.00     0.076 A 
HETATM   14  C   UNL     1      30.689  49.181  38.721  1.00  0.00     0.295 C 
HETATM   15  O   UNL     1      31.683  48.799  39.328  1.00  0.00    -0.259 OA
HETATM   16  C   UNL     1      26.030  48.280  38.351  1.00  0.00     0.090 A 
HETATM   17  C   UNL     1      25.743  49.648  38.341  1.00  0.00     0.068 A 
HETATM   18 CL   UNL     1      24.117  50.225  38.405  1.00  0.00    -0.081 Cl
BRANCH  16  19
HETATM   19  O   UNL     1      25.014  47.367  38.398  1.00  0.00    -0.359 OA
HETATM   20  H   UNL     1      25.154  46.687  37.717  1.00  0.00     0.218 HD
ENDBRANCH  16  19
ENDBRANCH   5   6
ENDBRANCH   1   5
BRANCH   2  21
HETATM   21  C   UNL     1      33.785  51.529  41.439  1.00  0.00     0.127 C 
BRANCH  21  22
HETATM   22  C   UNL     1      33.100  51.305  42.790  1.00  0.00     0.060 C 
BRANCH  22  23
HETATM   23  C   UNL     1      32.015  50.277  42.672  1.00  0.00    -0.029 A 
HETATM   24  C   UNL     1      30.644  50.507  42.322  1.00  0.00    -0.000 A 
HETATM   25  C   UNL     1      30.013  49.264  42.263  1.00  0.00     0.043 A 
HETATM   26  C   UNL     1      29.886  51.662  42.034  1.00  0.00     0.038 A 
HETATM   27  C   UNL     1      28.663  49.112  41.922  1.00  0.00     0.032 A 
HETATM   28  N   UNL     1      30.957  48.316  42.584  1.00  0.00    -0.365 N 
HETATM   29  C   UNL     1      27.932  50.270  41.642  1.00  0.00     0.026 A 
HETATM   30  C   UNL     1      28.536  51.523  41.700  1.00  0.00     0.035 A 
HETATM   31 CL   UNL     1      27.603  52.930  41.352  1.00  0.00    -0.084 Cl
HETATM   32  H   UNL     1      30.782  47.322  42.616  1.00  0.00     0.165 HD
HETATM   33  C   UNL     1      32.161  48.913  42.833  1.00  0.00     0.096 A 
ENDBRANCH  22  23
ENDBRANCH  21  22
ENDBRANCH   2  21
TORSDOF 6
ENDMDL
