MODEL 1
REMARK VINA RESULT:      -9.1      0.000      0.000
REMARK  3 active torsions:
REMARK  status: ('A' for Active; 'I' for Inactive)
REMARK    1  A    between atoms: C_11  and  N_12 
REMARK       I    between atoms: N_12  and  C_13 
REMARK    2  A    between atoms: C_13  and  C_14 
REMARK    3  A    between atoms: C_15  and  C_16 
ROOT
HETATM    1  N   UNL     1      26.699  44.512  52.241  1.00  0.00    -0.352 N 
HETATM    2  C   UNL     1      27.065  43.746  53.341  1.00  0.00     0.255 C 
HETATM    3  O   UNL     1      26.349  43.638  54.328  1.00  0.00    -0.268 OA
HETATM    4  H   UNL     1      27.501  44.829  51.706  1.00  0.00     0.163 HD
ENDROOT
BRANCH   2   5
HETATM    5  C   UNL     1      28.356  43.091  53.213  1.00  0.00     0.080 A 
HETATM    6  C   UNL     1      29.517  43.207  54.046  1.00  0.00     0.104 A 
HETATM    7  N   UNL     1      30.484  42.373  53.626  1.00  0.00    -0.174 NA
HETATM    8  N   UNL     1      29.975  41.752  52.562  1.00  0.00    -0.288 N 
HETATM    9  H   UNL     1      30.551  41.057  52.096  1.00  0.00     0.188 HD
HETATM   10  C   UNL     1      28.709  42.152  52.259  1.00  0.00     0.128 A 
BRANCH   6  11
HETATM   11  C   UNL     1      29.764  44.077  55.200  1.00  0.00    -0.004 A 
HETATM   12  C   UNL     1      30.739  43.720  56.148  1.00  0.00     0.017 A 
HETATM   13  C   UNL     1      31.009  44.550  57.239  1.00  0.00     0.043 A 
HETATM   14  C   UNL     1      30.310  45.742  57.381  1.00  0.00     0.116 A 
HETATM   15  F   UNL     1      30.569  46.541  58.423  1.00  0.00    -0.206 F 
HETATM   16  C   UNL     1      29.350  46.121  56.451  1.00  0.00     0.043 A 
HETATM   17  C   UNL     1      29.080  45.292  55.359  1.00  0.00     0.017 A 
ENDBRANCH   6  11
ENDBRANCH   2   5
BRANCH   1  18
HETATM   18  C   UNL     1      25.516  45.360  52.272  1.00  0.00     0.089 C 
HETATM   19  C   UNL     1      24.261  44.745  51.632  1.00  0.00     0.063 C 
HETATM   20  C   UNL     1      24.294  44.641  50.104  1.00  0.00     0.121 C 
HETATM   21  N   UNL     1      24.696  45.979  49.516  1.00  0.00    -0.059 N 
HETATM   22  C   UNL     1      25.201  43.530  49.568  1.00  0.00     0.046 C 
HETATM   23  C   UNL     1      22.867  44.362  49.585  1.00  0.00     0.046 C 
HETATM   24  C   UNL     1      25.844  46.766  50.112  1.00  0.00     0.121 C 
HETATM   25  H   UNL     1      23.861  46.582  49.560  1.00  0.00     0.279 HD
HETATM   26  H   UNL     1      24.860  45.857  48.507  1.00  0.00     0.279 HD
HETATM   27  C   UNL     1      27.177  46.265  49.547  1.00  0.00     0.046 C 
HETATM   28  C   UNL     1      25.659  48.220  49.630  1.00  0.00     0.046 C 
HETATM   29  C   UNL     1      25.777  46.735  51.649  1.00  0.00     0.063 C 
ENDBRANCH   1  18
TORSDOF 3
ENDMDL
MODEL 2
REMARK VINA RESULT:      -8.7      2.291      3.518
REMARK  3 active torsions:
REMARK  status: ('A' for Active; 'I' for Inactive)
REMARK    1  A    between atoms: C_11  and  N_12 
REMARK       I    between atoms: N_12  and  C_13 
REMARK    2  A    between atoms: C_13  and  C_14 
REMARK    3  A    between atoms: C_15  and  C_16 
ROOT
HETATM    1  N   UNL     1      25.561  45.044  52.516  1.00  0.00    -0.352 N 
HETATM    2  C   UNL     1      25.819  45.027  53.881  1.00  0.00     0.255 C 
HETATM    3  O   UNL     1      25.589  44.046  54.576  1.00  0.00    -0.268 OA
HETATM    4  H   UNL     1      25.420  45.984  52.161  1.00  0.00     0.163 HD
ENDROOT
BRANCH   2   5
HETATM    5  C   UNL     1      26.384  46.261  54.401  1.00  0.00     0.080 A 
HETATM    6  C   UNL     1      27.678  46.497  54.969  1.00  0.00     0.104 A 
HETATM    7  N   UNL     1      27.837  47.799  55.259  1.00  0.00    -0.174 NA
HETATM    8  N   UNL     1      26.691  48.380  54.903  1.00  0.00    -0.288 N 
HETATM    9  H   UNL     1      26.608  49.385  55.028  1.00  0.00     0.188 HD
HETATM   10  C   UNL     1      25.778  47.507  54.395  1.00  0.00     0.128 A 
BRANCH   6  11
HETATM   11  C   UNL     1      28.759  45.552  55.271  1.00  0.00    -0.004 A 
HETATM   12  C   UNL     1      29.575  45.761  56.396  1.00  0.00     0.017 A 
HETATM   13  C   UNL     1      30.590  44.857  56.717  1.00  0.00     0.043 A 
HETATM   14  C   UNL     1      30.789  43.740  55.917  1.00  0.00     0.116 A 
HETATM   15  F   UNL     1      31.760  42.870  56.224  1.00  0.00    -0.206 F 
HETATM   16  C   UNL     1      29.988  43.507  54.806  1.00  0.00     0.043 A 
HETATM   17  C   UNL     1      28.971  44.410  54.485  1.00  0.00     0.017 A 
ENDBRANCH   6  11
ENDBRANCH   2   5
BRANCH   1  18
HETATM   18  C   UNL     1      24.849  43.952  51.869  1.00  0.00     0.089 C 
HETATM   19  C   UNL     1      25.743  42.933  51.145  1.00  0.00     0.063 C 
HETATM   20  C   UNL     1      26.389  43.437  49.851  1.00  0.00     0.121 C 
HETATM   21  N   UNL     1      25.327  44.066  48.970  1.00  0.00    -0.059 N 
HETATM   22  C   UNL     1      27.549  44.414  50.065  1.00  0.00     0.046 C 
HETATM   23  C   UNL     1      26.941  42.234  49.058  1.00  0.00     0.046 C 
HETATM   24  C   UNL     1      24.296  45.004  49.559  1.00  0.00     0.121 C 
HETATM   25  H   UNL     1      24.812  43.288  48.531  1.00  0.00     0.279 HD
HETATM   26  H   UNL     1      25.793  44.532  48.178  1.00  0.00     0.279 HD
HETATM   27  C   UNL     1      24.868  46.423  49.656  1.00  0.00     0.046 C 
HETATM   28  C   UNL     1      23.132  45.047  48.547  1.00  0.00     0.046 C 
HETATM   29  C   UNL     1      23.775  44.458  50.900  1.00  0.00     0.063 C 
ENDBRANCH   1  18
TORSDOF 3
ENDMDL
MODEL 3
REMARK VINA RESULT:      -8.2      2.351      4.257
REMARK  3 active torsions:
REMARK  status: ('A' for Active; 'I' for Inactive)
REMARK    1  A    between atoms: C_11  and  N_12 
REMARK       I    between atoms: N_12  and  C_13 
REMARK    2  A    between atoms: C_13  and  C_14 
REMARK    3  A    between atoms: C_15  and  C_16 
ROOT
HETATM    1  N   UNL     1      26.736  44.206  53.421  1.00  0.00    -0.352 N 
HETATM    2  C   UNL     1      26.054  44.883  54.425  1.00  0.00     0.255 C 
HETATM    3  O   UNL     1      25.155  44.359  55.070  1.00  0.00    -0.268 OA
HETATM    4  H   UNL     1      27.143  44.836  52.737  1.00  0.00     0.163 HD
ENDROOT
BRANCH   2   5
HETATM    5  C   UNL     1      26.502  46.249  54.639  1.00  0.00     0.080 A 
HETATM    6  C   UNL     1      27.689  46.722  55.288  1.00  0.00     0.104 A 
HETATM    7  N   UNL     1      27.769  48.061  55.209  1.00  0.00    -0.174 NA
HETATM    8  N   UNL     1      26.676  48.440  54.546  1.00  0.00    -0.288 N 
HETATM    9  H   UNL     1      26.550  49.431  54.363  1.00  0.00     0.188 HD
HETATM   10  C   UNL     1      25.873  47.399  54.191  1.00  0.00     0.128 A 
BRANCH   6  11
HETATM   11  C   UNL     1      28.735  45.976  55.996  1.00  0.00    -0.004 A 
HETATM   12  C   UNL     1      29.549  45.075  55.287  1.00  0.00     0.017 A 
HETATM   13  C   UNL     1      30.569  44.376  55.937  1.00  0.00     0.043 A 
HETATM   14  C   UNL     1      30.782  44.581  57.293  1.00  0.00     0.116 A 
HETATM   15  F   UNL     1      31.762  43.916  57.918  1.00  0.00    -0.206 F 
HETATM   16  C   UNL     1      29.998  45.475  58.012  1.00  0.00     0.043 A 
HETATM   17  C   UNL     1      28.977  46.176  57.363  1.00  0.00     0.017 A 
ENDBRANCH   6  11
ENDBRANCH   2   5
BRANCH   1  18
HETATM   18  C   UNL     1      26.306  42.890  52.972  1.00  0.00     0.089 C 
HETATM   19  C   UNL     1      27.358  41.780  53.118  1.00  0.00     0.063 C 
HETATM   20  C   UNL     1      28.532  41.862  52.138  1.00  0.00     0.121 C 
HETATM   21  N   UNL     1      28.002  42.031  50.728  1.00  0.00    -0.059 N 
HETATM   22  C   UNL     1      29.545  42.964  52.461  1.00  0.00     0.046 C 
HETATM   23  C   UNL     1      29.294  40.520  52.147  1.00  0.00     0.046 C 
HETATM   24  C   UNL     1      26.881  43.006  50.440  1.00  0.00     0.121 C 
HETATM   25  H   UNL     1      27.679  41.100  50.423  1.00  0.00     0.279 HD
HETATM   26  H   UNL     1      28.794  42.235  50.102  1.00  0.00     0.279 HD
HETATM   27  C   UNL     1      27.445  44.419  50.257  1.00  0.00     0.046 C 
HETATM   28  C   UNL     1      26.277  42.574  49.088  1.00  0.00     0.046 C 
HETATM   29  C   UNL     1      25.795  42.914  51.527  1.00  0.00     0.063 C 
ENDBRANCH   1  18
TORSDOF 3
ENDMDL
MODEL 4
REMARK VINA RESULT:      -8.0      1.602      2.890
REMARK  3 active torsions:
REMARK  status: ('A' for Active; 'I' for Inactive)
REMARK    1  A    between atoms: C_11  and  N_12 
REMARK       I    between atoms: N_12  and  C_13 
REMARK    2  A    between atoms: C_13  and  C_14 
REMARK    3  A    between atoms: C_15  and  C_16 
ROOT
HETATM    1  N   UNL     1      26.500  43.199  50.240  1.00  0.00    -0.352 N 
HETATM    2  C   UNL     1      27.678  43.372  50.958  1.00  0.00     0.255 C 
HETATM    3  O   UNL     1      28.321  44.412  50.914  1.00  0.00    -0.268 OA
HETATM    4  H   UNL     1      26.301  42.222  50.053  1.00  0.00     0.163 HD
ENDROOT
BRANCH   2   5
HETATM    5  C   UNL     1      28.067  42.222  51.757  1.00  0.00     0.080 A 
HETATM    6  C   UNL     1      28.489  42.171  53.126  1.00  0.00     0.104 A 
HETATM    7  N   UNL     1      28.687  40.899  53.512  1.00  0.00    -0.174 NA
HETATM    8  N   UNL     1      28.416  40.159  52.436  1.00  0.00    -0.288 N 
HETATM    9  H   UNL     1      28.492  39.150  52.521  1.00  0.00     0.188 HD
HETATM   10  C   UNL     1      28.053  40.897  51.351  1.00  0.00     0.128 A 
BRANCH   6  11
HETATM   11  C   UNL     1      28.732  43.261  54.076  1.00  0.00    -0.004 A 
HETATM   12  C   UNL     1      29.995  43.391  54.680  1.00  0.00     0.017 A 
HETATM   13  C   UNL     1      30.256  44.440  55.565  1.00  0.00     0.043 A 
HETATM   14  C   UNL     1      29.257  45.363  55.845  1.00  0.00     0.116 A 
HETATM   15  F   UNL     1      29.505  46.371  56.690  1.00  0.00    -0.206 F 
HETATM   16  C   UNL     1      28.005  45.261  55.252  1.00  0.00     0.043 A 
HETATM   17  C   UNL     1      27.743  44.213  54.364  1.00  0.00     0.017 A 
ENDBRANCH   6  11
ENDBRANCH   2   5
BRANCH   1  18
HETATM   18  C   UNL     1      26.057  44.189  49.270  1.00  0.00     0.089 C 
HETATM   19  C   UNL     1      25.976  45.629  49.802  1.00  0.00     0.063 C 
HETATM   20  C   UNL     1      24.829  45.898  50.780  1.00  0.00     0.121 C 
HETATM   21  N   UNL     1      23.531  45.383  50.189  1.00  0.00    -0.059 N 
HETATM   22  C   UNL     1      25.044  45.315  52.180  1.00  0.00     0.046 C 
HETATM   23  C   UNL     1      24.647  47.422  50.939  1.00  0.00     0.046 C 
HETATM   24  C   UNL     1      23.476  44.025  49.522  1.00  0.00     0.121 C 
HETATM   25  H   UNL     1      23.233  46.077  49.487  1.00  0.00     0.279 HD
HETATM   26  H   UNL     1      22.800  45.433  50.912  1.00  0.00     0.279 HD
HETATM   27  C   UNL     1      23.279  42.928  50.574  1.00  0.00     0.046 C 
HETATM   28  C   UNL     1      22.216  44.039  48.632  1.00  0.00     0.046 C 
HETATM   29  C   UNL     1      24.715  43.811  48.634  1.00  0.00     0.063 C 
ENDBRANCH   1  18
TORSDOF 3
ENDMDL
MODEL 5
REMARK VINA RESULT:      -7.9     15.351     17.580
REMARK  3 active torsions:
REMARK  status: ('A' for Active; 'I' for Inactive)
REMARK    1  A    between atoms: C_11  and  N_12 
REMARK       I    between atoms: N_12  and  C_13 
REMARK    2  A    between atoms: C_13  and  C_14 
REMARK    3  A    between atoms: C_15  and  C_16 
ROOT
HETATM    1  N   UNL     1      38.329  45.244  65.278  1.00  0.00    -0.352 N 
HETATM    2  C   UNL     1      37.196  45.007  64.509  1.00  0.00     0.255 C 
HETATM    3  O   UNL     1      36.981  45.605  63.463  1.00  0.00    -0.268 OA
HETATM    4  H   UNL     1      38.192  45.001  66.254  1.00  0.00     0.163 HD
ENDROOT
BRANCH   2   5
HETATM    5  C   UNL     1      36.304  43.996  65.051  1.00  0.00     0.080 A 
HETATM    6  C   UNL     1      36.450  42.570  65.060  1.00  0.00     0.104 A 
HETATM    7  N   UNL     1      35.435  41.995  65.729  1.00  0.00    -0.174 NA
HETATM    8  N   UNL     1      34.661  43.005  66.128  1.00  0.00    -0.288 N 
HETATM    9  H   UNL     1      33.833  42.783  66.673  1.00  0.00     0.188 HD
HETATM   10  C   UNL     1      35.123  44.225  65.739  1.00  0.00     0.128 A 
BRANCH   6  11
HETATM   11  C   UNL     1      37.484  41.726  64.451  1.00  0.00    -0.004 A 
HETATM   12  C   UNL     1      37.904  40.556  65.107  1.00  0.00     0.017 A 
HETATM   13  C   UNL     1      38.867  39.724  64.530  1.00  0.00     0.043 A 
HETATM   14  C   UNL     1      39.407  40.057  63.295  1.00  0.00     0.116 A 
HETATM   15  F   UNL     1      40.327  39.259  62.738  1.00  0.00    -0.206 F 
HETATM   16  C   UNL     1      38.999  41.203  62.624  1.00  0.00     0.043 A 
HETATM   17  C   UNL     1      38.034  42.035  63.199  1.00  0.00     0.017 A 
ENDBRANCH   6  11
ENDBRANCH   2   5
BRANCH   1  18
HETATM   18  C   UNL     1      39.240  46.335  64.962  1.00  0.00     0.089 C 
HETATM   19  C   UNL     1      40.430  45.948  64.070  1.00  0.00     0.063 C 
HETATM   20  C   UNL     1      41.502  45.090  64.749  1.00  0.00     0.121 C 
HETATM   21  N   UNL     1      41.897  45.727  66.067  1.00  0.00    -0.059 N 
HETATM   22  C   UNL     1      41.095  43.629  64.965  1.00  0.00     0.046 C 
HETATM   23  C   UNL     1      42.776  45.090  63.879  1.00  0.00     0.046 C 
HETATM   24  C   UNL     1      40.841  46.265  67.008  1.00  0.00     0.121 C 
HETATM   25  H   UNL     1      42.525  46.512  65.836  1.00  0.00     0.279 HD
HETATM   26  H   UNL     1      42.501  45.070  66.580  1.00  0.00     0.279 HD
HETATM   27  C   UNL     1      40.280  45.132  67.874  1.00  0.00     0.046 C 
HETATM   28  C   UNL     1      41.569  47.246  67.950  1.00  0.00     0.046 C 
HETATM   29  C   UNL     1      39.761  47.032  66.223  1.00  0.00     0.063 C 
ENDBRANCH   1  18
TORSDOF 3
ENDMDL
MODEL 6
REMARK VINA RESULT:      -7.9     15.460     17.195
REMARK  3 active torsions:
REMARK  status: ('A' for Active; 'I' for Inactive)
REMARK    1  A    between atoms: C_11  and  N_12 
REMARK       I    between atoms: N_12  and  C_13 
REMARK    2  A    between atoms: C_13  and  C_14 
REMARK    3  A    between atoms: C_15  and  C_16 
ROOT
HETATM    1  N   UNL     1      37.892  45.503  66.419  1.00  0.00    -0.352 N 
HETATM    2  C   UNL     1      37.617  44.199  66.814  1.00  0.00     0.255 C 
HETATM    3  O   UNL     1      38.325  43.597  67.610  1.00  0.00    -0.268 OA
HETATM    4  H   UNL     1      37.494  45.724  65.512  1.00  0.00     0.163 HD
ENDROOT
BRANCH   2   5
HETATM    5  C   UNL     1      36.427  43.627  66.208  1.00  0.00     0.080 A 
HETATM    6  C   UNL     1      36.317  42.552  65.266  1.00  0.00     0.104 A 
HETATM    7  N   UNL     1      35.027  42.277  65.011  1.00  0.00    -0.174 NA
HETATM    8  N   UNL     1      34.331  43.144  65.748  1.00  0.00    -0.288 N 
HETATM    9  H   UNL     1      33.317  43.094  65.710  1.00  0.00     0.188 HD
HETATM   10  C   UNL     1      35.116  43.986  66.474  1.00  0.00     0.128 A 
BRANCH   6  11
HETATM   11  C   UNL     1      37.367  41.789  64.583  1.00  0.00    -0.004 A 
HETATM   12  C   UNL     1      37.881  40.623  65.176  1.00  0.00     0.017 A 
HETATM   13  C   UNL     1      38.861  39.867  64.528  1.00  0.00     0.043 A 
HETATM   14  C   UNL     1      39.324  40.271  63.283  1.00  0.00     0.116 A 
HETATM   15  F   UNL     1      40.261  39.547  62.658  1.00  0.00    -0.206 F 
HETATM   16  C   UNL     1      38.823  41.414  62.672  1.00  0.00     0.043 A 
HETATM   17  C   UNL     1      37.842  42.170  63.319  1.00  0.00     0.017 A 
ENDBRANCH   6  11
ENDBRANCH   2   5
BRANCH   1  18
HETATM   18  C   UNL     1      39.130  46.163  66.806  1.00  0.00     0.089 C 
HETATM   19  C   UNL     1      39.123  47.693  66.656  1.00  0.00     0.063 C 
HETATM   20  C   UNL     1      39.160  48.206  65.213  1.00  0.00     0.121 C 
HETATM   21  N   UNL     1      40.280  47.515  64.461  1.00  0.00    -0.059 N 
HETATM   22  C   UNL     1      37.837  48.053  64.457  1.00  0.00     0.046 C 
HETATM   23  C   UNL     1      39.516  49.708  65.219  1.00  0.00     0.046 C 
HETATM   24  C   UNL     1      40.491  46.022  64.597  1.00  0.00     0.121 C 
HETATM   25  H   UNL     1      41.157  47.972  64.755  1.00  0.00     0.279 HD
HETATM   26  H   UNL     1      40.200  47.754  63.462  1.00  0.00     0.279 HD
HETATM   27  C   UNL     1      39.560  45.269  63.641  1.00  0.00     0.046 C 
HETATM   28  C   UNL     1      41.939  45.753  64.137  1.00  0.00     0.046 C 
HETATM   29  C   UNL     1      40.343  45.590  66.067  1.00  0.00     0.063 C 
ENDBRANCH   1  18
TORSDOF 3
ENDMDL
MODEL 7
REMARK VINA RESULT:      -7.8     13.227     14.964
REMARK  3 active torsions:
REMARK  status: ('A' for Active; 'I' for Inactive)
REMARK    1  A    between atoms: C_11  and  N_12 
REMARK       I    between atoms: N_12  and  C_13 
REMARK    2  A    between atoms: C_13  and  C_14 
REMARK    3  A    between atoms: C_15  and  C_16 
ROOT
HETATM    1  N   UNL     1      29.744  50.268  41.215  1.00  0.00    -0.352 N 
HETATM    2  C   UNL     1      30.911  50.556  41.913  1.00  0.00     0.255 C 
HETATM    3  O   UNL     1      31.018  51.547  42.623  1.00  0.00    -0.268 OA
HETATM    4  H   UNL     1      29.913  49.685  40.402  1.00  0.00     0.163 HD
ENDROOT
BRANCH   2   5
HETATM    5  C   UNL     1      31.975  49.583  41.730  1.00  0.00     0.080 A 
HETATM    6  C   UNL     1      33.298  49.774  41.212  1.00  0.00     0.104 A 
HETATM    7  N   UNL     1      34.000  48.630  41.278  1.00  0.00    -0.174 NA
HETATM    8  N   UNL     1      33.165  47.735  41.806  1.00  0.00    -0.288 N 
HETATM    9  H   UNL     1      33.511  46.792  41.957  1.00  0.00     0.188 HD
HETATM   10  C   UNL     1      31.933  48.244  42.084  1.00  0.00     0.128 A 
BRANCH   6  11
HETATM   11  C   UNL     1      33.920  50.973  40.641  1.00  0.00    -0.004 A 
HETATM   12  C   UNL     1      35.279  51.236  40.886  1.00  0.00     0.017 A 
HETATM   13  C   UNL     1      35.898  52.357  40.327  1.00  0.00     0.043 A 
HETATM   14  C   UNL     1      35.162  53.213  39.519  1.00  0.00     0.116 A 
HETATM   15  F   UNL     1      35.753  54.286  38.980  1.00  0.00    -0.206 F 
HETATM   16  C   UNL     1      33.821  52.967  39.254  1.00  0.00     0.043 A 
HETATM   17  C   UNL     1      33.201  51.844  39.811  1.00  0.00     0.017 A 
ENDBRANCH   6  11
ENDBRANCH   2   5
BRANCH   1  18
HETATM   18  C   UNL     1      28.643  51.220  41.162  1.00  0.00     0.089 C 
HETATM   19  C   UNL     1      27.274  50.608  40.826  1.00  0.00     0.063 C 
HETATM   20  C   UNL     1      27.103  50.147  39.376  1.00  0.00     0.121 C 
HETATM   21  N   UNL     1      27.531  51.260  38.440  1.00  0.00    -0.059 N 
HETATM   22  C   UNL     1      27.846  48.851  39.036  1.00  0.00     0.046 C 
HETATM   23  C   UNL     1      25.606  49.906  39.094  1.00  0.00     0.046 C 
HETATM   24  C   UNL     1      28.802  52.039  38.700  1.00  0.00     0.121 C 
HETATM   25  H   UNL     1      26.757  51.941  38.422  1.00  0.00     0.279 HD
HETATM   26  H   UNL     1      27.555  50.888  37.479  1.00  0.00     0.279 HD
HETATM   27  C   UNL     1      30.010  51.280  38.139  1.00  0.00     0.046 C 
HETATM   28  C   UNL     1      28.670  53.350  37.899  1.00  0.00     0.046 C 
HETATM   29  C   UNL     1      28.929  52.376  40.197  1.00  0.00     0.063 C 
ENDBRANCH   1  18
TORSDOF 3
ENDMDL
MODEL 8
REMARK VINA RESULT:      -7.8     12.647     15.042
REMARK  3 active torsions:
REMARK  status: ('A' for Active; 'I' for Inactive)
REMARK    1  A    between atoms: C_11  and  N_12 
REMARK       I    between atoms: N_12  and  C_13 
REMARK    2  A    between atoms: C_13  and  C_14 
REMARK    3  A    between atoms: C_15  and  C_16 
ROOT
HETATM    1  N   UNL     1      29.350  50.738  40.162  1.00  0.00    -0.352 N 
HETATM    2  C   UNL     1      28.044  50.457  40.547  1.00  0.00     0.255 C 
HETATM    3  O   UNL     1      27.684  50.508  41.716  1.00  0.00    -0.268 OA
HETATM    4  H   UNL     1      29.599  50.291  39.286  1.00  0.00     0.163 HD
ENDROOT
BRANCH   2   5
HETATM    5  C   UNL     1      27.157  50.107  39.451  1.00  0.00     0.080 A 
HETATM    6  C   UNL     1      26.337  48.943  39.285  1.00  0.00     0.104 A 
HETATM    7  N   UNL     1      25.605  49.037  38.162  1.00  0.00    -0.174 NA
HETATM    8  N   UNL     1      25.944  50.207  37.619  1.00  0.00    -0.288 N 
HETATM    9  H   UNL     1      25.485  50.481  36.755  1.00  0.00     0.188 HD
HETATM   10  C   UNL     1      26.879  50.885  38.339  1.00  0.00     0.128 A 
BRANCH   6  11
HETATM   11  C   UNL     1      26.229  47.742  40.120  1.00  0.00    -0.004 A 
HETATM   12  C   UNL     1      25.022  47.462  40.784  1.00  0.00     0.017 A 
HETATM   13  C   UNL     1      24.888  46.308  41.561  1.00  0.00     0.043 A 
HETATM   14  C   UNL     1      25.959  45.431  41.671  1.00  0.00     0.116 A 
HETATM   15  F   UNL     1      25.833  44.323  42.412  1.00  0.00    -0.206 F 
HETATM   16  C   UNL     1      27.157  45.681  41.015  1.00  0.00     0.043 A 
HETATM   17  C   UNL     1      27.291  46.834  40.236  1.00  0.00     0.017 A 
ENDBRANCH   6  11
ENDBRANCH   2   5
BRANCH   1  18
HETATM   18  C   UNL     1      30.399  50.947  41.149  1.00  0.00     0.089 C 
HETATM   19  C   UNL     1      31.550  51.855  40.689  1.00  0.00     0.063 C 
HETATM   20  C   UNL     1      32.488  51.240  39.646  1.00  0.00     0.121 C 
HETATM   21  N   UNL     1      32.931  49.868  40.113  1.00  0.00    -0.059 N 
HETATM   22  C   UNL     1      31.894  51.156  38.237  1.00  0.00     0.046 C 
HETATM   23  C   UNL     1      33.771  52.092  39.554  1.00  0.00     0.046 C 
HETATM   24  C   UNL     1      31.931  48.896  40.702  1.00  0.00     0.121 C 
HETATM   25  H   UNL     1      33.659  50.022  40.828  1.00  0.00     0.279 HD
HETATM   26  H   UNL     1      33.435  49.406  39.343  1.00  0.00     0.279 HD
HETATM   27  C   UNL     1      31.211  48.138  39.582  1.00  0.00     0.046 C 
HETATM   28  C   UNL     1      32.757  47.865  41.498  1.00  0.00     0.046 C 
HETATM   29  C   UNL     1      30.976  49.624  41.665  1.00  0.00     0.063 C 
ENDBRANCH   1  18
TORSDOF 3
ENDMDL
MODEL 9
REMARK VINA RESULT:      -7.8     12.906     15.191
REMARK  3 active torsions:
REMARK  status: ('A' for Active; 'I' for Inactive)
REMARK    1  A    between atoms: C_11  and  N_12 
REMARK       I    between atoms: N_12  and  C_13 
REMARK    2  A    between atoms: C_13  and  C_14 
REMARK    3  A    between atoms: C_15  and  C_16 
ROOT
HETATM    1  N   UNL     1      31.150  48.920  40.985  1.00  0.00    -0.352 N 
HETATM    2  C   UNL     1      29.873  48.507  41.346  1.00  0.00     0.255 C 
HETATM    3  O   UNL     1      29.575  48.247  42.505  1.00  0.00    -0.268 OA
HETATM    4  H   UNL     1      31.360  48.719  40.013  1.00  0.00     0.163 HD
ENDROOT
BRANCH   2   5
HETATM    5  C   UNL     1      28.935  48.418  40.239  1.00  0.00     0.080 A 
HETATM    6  C   UNL     1      28.435  49.459  39.390  1.00  0.00     0.104 A 
HETATM    7  N   UNL     1      27.641  48.947  38.433  1.00  0.00    -0.174 NA
HETATM    8  N   UNL     1      27.620  47.634  38.660  1.00  0.00    -0.288 N 
HETATM    9  H   UNL     1      27.079  47.051  38.029  1.00  0.00     0.188 HD
HETATM   10  C   UNL     1      28.365  47.260  39.737  1.00  0.00     0.128 A 
BRANCH   6  11
HETATM   11  C   UNL     1      28.653  50.908  39.450  1.00  0.00    -0.004 A 
HETATM   12  C   UNL     1      28.020  51.667  40.449  1.00  0.00     0.017 A 
HETATM   13  C   UNL     1      28.237  53.044  40.542  1.00  0.00     0.043 A 
HETATM   14  C   UNL     1      29.092  53.664  39.640  1.00  0.00     0.116 A 
HETATM   15  F   UNL     1      29.305  54.982  39.728  1.00  0.00    -0.206 F 
HETATM   16  C   UNL     1      29.738  52.932  38.651  1.00  0.00     0.043 A 
HETATM   17  C   UNL     1      29.522  51.554  38.559  1.00  0.00     0.017 A 
ENDBRANCH   6  11
ENDBRANCH   2   5
BRANCH   1  18
HETATM   18  C   UNL     1      32.246  48.906  41.943  1.00  0.00     0.089 C 
HETATM   19  C   UNL     1      32.041  49.801  43.175  1.00  0.00     0.063 C 
HETATM   20  C   UNL     1      32.134  51.306  42.909  1.00  0.00     0.121 C 
HETATM   21  N   UNL     1      33.401  51.603  42.131  1.00  0.00    -0.059 N 
HETATM   22  C   UNL     1      30.917  51.895  42.189  1.00  0.00     0.046 C 
HETATM   23  C   UNL     1      32.277  52.050  44.253  1.00  0.00     0.046 C 
HETATM   24  C   UNL     1      33.803  50.737  40.957  1.00  0.00     0.121 C 
HETATM   25  H   UNL     1      34.176  51.571  42.810  1.00  0.00     0.279 HD
HETATM   26  H   UNL     1      33.377  52.588  41.830  1.00  0.00     0.279 HD
HETATM   27  C   UNL     1      33.073  51.195  39.689  1.00  0.00     0.046 C 
HETATM   28  C   UNL     1      35.309  50.990  40.737  1.00  0.00     0.046 C 
HETATM   29  C   UNL     1      33.587  49.249  41.287  1.00  0.00     0.063 C 
ENDBRANCH   1  18
TORSDOF 3
ENDMDL
MODEL 10
REMARK VINA RESULT:      -7.7     12.751     14.535
REMARK  3 active torsions:
REMARK  status: ('A' for Active; 'I' for Inactive)
REMARK    1  A    between atoms: C_11  and  N_12 
REMARK       I    between atoms: N_12  and  C_13 
REMARK    2  A    between atoms: C_13  and  C_14 
REMARK    3  A    between atoms: C_15  and  C_16 
ROOT
HETATM    1  N   UNL     1      33.498  50.450  42.554  1.00  0.00    -0.352 N 
HETATM    2  C   UNL     1      34.493  51.347  42.924  1.00  0.00     0.255 C 
HETATM    3  O   UNL     1      34.333  52.166  43.819  1.00  0.00    -0.268 OA
HETATM    4  H   UNL     1      33.603  50.128  41.598  1.00  0.00     0.163 HD
ENDROOT
BRANCH   2   5
HETATM    5  C   UNL     1      35.726  51.220  42.165  1.00  0.00     0.080 A 
HETATM    6  C   UNL     1      37.020  51.775  42.439  1.00  0.00     0.104 A 
HETATM    7  N   UNL     1      37.915  51.358  41.527  1.00  0.00    -0.174 NA
HETATM    8  N   UNL     1      37.229  50.575  40.694  1.00  0.00    -0.288 N 
HETATM    9  H   UNL     1      37.733  50.138  39.928  1.00  0.00     0.188 HD
HETATM   10  C   UNL     1      35.911  50.466  41.018  1.00  0.00     0.128 A 
BRANCH   6  11
HETATM   11  C   UNL     1      37.444  52.693  43.501  1.00  0.00    -0.004 A 
HETATM   12  C   UNL     1      37.580  54.065  43.224  1.00  0.00     0.017 A 
HETATM   13  C   UNL     1      37.955  54.960  44.230  1.00  0.00     0.043 A 
HETATM   14  C   UNL     1      38.187  54.487  45.514  1.00  0.00     0.116 A 
HETATM   15  F   UNL     1      38.543  55.342  46.481  1.00  0.00    -0.206 F 
HETATM   16  C   UNL     1      38.047  53.137  45.814  1.00  0.00     0.043 A 
HETATM   17  C   UNL     1      37.671  52.241  44.809  1.00  0.00     0.017 A 
ENDBRANCH   6  11
ENDBRANCH   2   5
BRANCH   1  18
HETATM   18  C   UNL     1      32.153  50.549  43.102  1.00  0.00     0.089 C 
HETATM   19  C   UNL     1      31.250  49.337  42.826  1.00  0.00     0.063 C 
HETATM   20  C   UNL     1      30.778  49.192  41.376  1.00  0.00     0.121 C 
HETATM   21  N   UNL     1      30.206  50.512  40.898  1.00  0.00    -0.059 N 
HETATM   22  C   UNL     1      31.859  48.700  40.408  1.00  0.00     0.046 C 
HETATM   23  C   UNL     1      29.615  48.180  41.320  1.00  0.00     0.046 C 
HETATM   24  C   UNL     1      30.921  51.813  41.194  1.00  0.00     0.121 C 
HETATM   25  H   UNL     1      29.261  50.587  41.306  1.00  0.00     0.279 HD
HETATM   26  H   UNL     1      30.033  50.447  39.885  1.00  0.00     0.279 HD
HETATM   27  C   UNL     1      32.017  52.061  40.152  1.00  0.00     0.046 C 
HETATM   28  C   UNL     1      29.867  52.927  41.027  1.00  0.00     0.046 C 
HETATM   29  C   UNL     1      31.438  51.825  42.644  1.00  0.00     0.063 C 
ENDBRANCH   1  18
TORSDOF 3
ENDMDL
