MODEL 1
REMARK VINA RESULT:      -9.0      0.000      0.000
REMARK  6 active torsions:
REMARK  status: ('A' for Active; 'I' for Inactive)
REMARK    1  A    between atoms: C_4  and  C_5 
REMARK    2  A    between atoms: C_5  and  C_6 
REMARK    3  A    between atoms: C_6  and  N_7 
REMARK       I    between atoms: N_7  and  C_8 
REMARK    4  A    between atoms: C_8  and  C_9 
REMARK    5  A    between atoms: C_12  and  N_13 
REMARK       I    between atoms: N_13  and  C_14 
REMARK       I    between atoms: C_14  and  N_15 
REMARK    6  A    between atoms: N_15  and  C_16 
ROOT
HETATM    1  C   UNL     1      26.817  43.632  51.509  1.00  0.00     0.032 A 
HETATM    2  C   UNL     1      26.957  44.127  50.208  1.00  0.00     0.019 A 
HETATM    3  C   UNL     1      25.959  44.934  49.648  1.00  0.00     0.030 A 
HETATM    4  C   UNL     1      24.815  45.265  50.378  1.00  0.00     0.036 A 
HETATM    5  C   UNL     1      24.690  44.787  51.689  1.00  0.00     0.030 A 
HETATM    6  C   UNL     1      25.685  43.981  52.252  1.00  0.00     0.019 A 
ENDROOT
BRANCH   1   7
HETATM    7  C   UNL     1      27.841  42.755  52.141  1.00  0.00     0.251 C 
HETATM    8  N   UNL     1      28.070  42.950  53.488  1.00  0.00    -0.357 N 
HETATM    9  H   UNL     1      27.760  43.823  53.900  1.00  0.00     0.162 HD
HETATM   10  O   UNL     1      28.454  41.938  51.463  1.00  0.00    -0.268 OA
BRANCH   8  11
HETATM   11  C   UNL     1      29.169  42.275  54.156  1.00  0.00     0.127 C 
BRANCH  11  12
HETATM   12  C   UNL     1      30.417  43.154  54.273  1.00  0.00     0.058 C 
BRANCH  12  13
HETATM   13  C   UNL     1      30.536  43.885  55.591  1.00  0.00    -0.057 A 
HETATM   14  C   UNL     1      29.790  45.049  55.825  1.00  0.00     0.007 A 
HETATM   15  C   UNL     1      29.889  45.722  57.044  1.00  0.00     0.001 A 
HETATM   16  C   UNL     1      30.734  45.240  58.041  1.00  0.00     0.000 A 
HETATM   17  C   UNL     1      31.477  44.082  57.822  1.00  0.00     0.001 A 
HETATM   18  C   UNL     1      31.376  43.405  56.606  1.00  0.00     0.007 A 
ENDBRANCH  12  13
ENDBRANCH  11  12
ENDBRANCH   8  11
ENDBRANCH   1   7
BRANCH   4  19
HETATM   19  N   UNL     1      23.751  46.040  49.871  1.00  0.00    -0.309 N 
HETATM   20  C   UNL     1      23.686  47.422  49.768  1.00  0.00     0.325 C 
HETATM   21  N   UNL     1      22.546  47.810  49.080  1.00  0.00    -0.306 N 
HETATM   22  O   UNL     1      24.520  48.204  50.207  1.00  0.00    -0.247 OA
HETATM   23  H   UNL     1      21.950  47.105  48.677  1.00  0.00     0.171 HD
HETATM   24  H   UNL     1      22.926  45.531  49.595  1.00  0.00     0.170 HD
BRANCH  21  25
HETATM   25  C   UNL     1      22.217  49.124  48.806  1.00  0.00     0.072 A 
HETATM   26  C   UNL     1      21.155  49.941  49.254  1.00  0.00     0.169 A 
HETATM   27  N   UNL     1      21.212  51.175  48.742  1.00  0.00    -0.185 NA
HETATM   28  N   UNL     1      22.309  51.147  47.971  1.00  0.00    -0.287 N 
HETATM   29  H   UNL     1      22.565  51.993  47.474  1.00  0.00     0.188 HD
HETATM   30  C   UNL     1      22.945  49.939  47.972  1.00  0.00     0.140 A 
ENDBRANCH  21  25
ENDBRANCH   4  19
TORSDOF 6
ENDMDL
MODEL 2
REMARK VINA RESULT:      -8.3      2.266      3.524
REMARK  6 active torsions:
REMARK  status: ('A' for Active; 'I' for Inactive)
REMARK    1  A    between atoms: C_4  and  C_5 
REMARK    2  A    between atoms: C_5  and  C_6 
REMARK    3  A    between atoms: C_6  and  N_7 
REMARK       I    between atoms: N_7  and  C_8 
REMARK    4  A    between atoms: C_8  and  C_9 
REMARK    5  A    between atoms: C_12  and  N_13 
REMARK       I    between atoms: N_13  and  C_14 
REMARK       I    between atoms: C_14  and  N_15 
REMARK    6  A    between atoms: N_15  and  C_16 
ROOT
HETATM    1  C   UNL     1      24.535  45.941  50.171  1.00  0.00     0.032 A 
HETATM    2  C   UNL     1      23.542  45.474  49.304  1.00  0.00     0.019 A 
HETATM    3  C   UNL     1      22.742  46.378  48.595  1.00  0.00     0.030 A 
HETATM    4  C   UNL     1      22.927  47.755  48.732  1.00  0.00     0.036 A 
HETATM    5  C   UNL     1      23.940  48.219  49.582  1.00  0.00     0.030 A 
HETATM    6  C   UNL     1      24.741  47.318  50.293  1.00  0.00     0.019 A 
ENDROOT
BRANCH   1   7
HETATM    7  C   UNL     1      25.398  45.020  50.963  1.00  0.00     0.251 C 
HETATM    8  N   UNL     1      25.934  45.529  52.128  1.00  0.00    -0.357 N 
HETATM    9  H   UNL     1      25.952  46.537  52.240  1.00  0.00     0.162 HD
HETATM   10  O   UNL     1      25.628  43.887  50.552  1.00  0.00    -0.268 OA
BRANCH   8  11
HETATM   11  C   UNL     1      26.927  44.778  52.875  1.00  0.00     0.127 C 
BRANCH  11  12
HETATM   12  C   UNL     1      27.375  45.497  54.150  1.00  0.00     0.058 C 
BRANCH  12  13
HETATM   13  C   UNL     1      28.637  44.936  54.764  1.00  0.00    -0.057 A 
HETATM   14  C   UNL     1      29.346  45.673  55.724  1.00  0.00     0.007 A 
HETATM   15  C   UNL     1      30.507  45.155  56.300  1.00  0.00     0.001 A 
HETATM   16  C   UNL     1      30.971  43.897  55.926  1.00  0.00     0.000 A 
HETATM   17  C   UNL     1      30.274  43.153  54.977  1.00  0.00     0.001 A 
HETATM   18  C   UNL     1      29.110  43.667  54.402  1.00  0.00     0.007 A 
ENDBRANCH  12  13
ENDBRANCH  11  12
ENDBRANCH   8  11
ENDBRANCH   1   7
BRANCH   4  19
HETATM   19  N   UNL     1      22.140  48.728  48.080  1.00  0.00    -0.309 N 
HETATM   20  C   UNL     1      20.950  49.288  48.522  1.00  0.00     0.325 C 
HETATM   21  N   UNL     1      20.551  50.318  47.683  1.00  0.00    -0.306 N 
HETATM   22  O   UNL     1      20.334  48.941  49.522  1.00  0.00    -0.247 OA
HETATM   23  H   UNL     1      21.154  50.600  46.927  1.00  0.00     0.171 HD
HETATM   24  H   UNL     1      22.457  49.012  47.166  1.00  0.00     0.170 HD
BRANCH  21  25
HETATM   25  C   UNL     1      19.412  51.076  47.877  1.00  0.00     0.072 A 
HETATM   26  C   UNL     1      18.053  50.825  47.581  1.00  0.00     0.169 A 
HETATM   27  N   UNL     1      17.258  51.838  47.945  1.00  0.00    -0.185 NA
HETATM   28  N   UNL     1      18.107  52.731  48.474  1.00  0.00    -0.287 N 
HETATM   29  H   UNL     1      17.724  53.599  48.833  1.00  0.00     0.188 HD
HETATM   30  C   UNL     1      19.410  52.324  48.453  1.00  0.00     0.140 A 
ENDBRANCH  21  25
ENDBRANCH   4  19
TORSDOF 6
ENDMDL
MODEL 3
REMARK VINA RESULT:      -8.2      1.477      1.950
REMARK  6 active torsions:
REMARK  status: ('A' for Active; 'I' for Inactive)
REMARK    1  A    between atoms: C_4  and  C_5 
REMARK    2  A    between atoms: C_5  and  C_6 
REMARK    3  A    between atoms: C_6  and  N_7 
REMARK       I    between atoms: N_7  and  C_8 
REMARK    4  A    between atoms: C_8  and  C_9 
REMARK    5  A    between atoms: C_12  and  N_13 
REMARK       I    between atoms: N_13  and  C_14 
REMARK       I    between atoms: C_14  and  N_15 
REMARK    6  A    between atoms: N_15  and  C_16 
ROOT
HETATM    1  C   UNL     1      26.438  44.827  51.387  1.00  0.00     0.032 A 
HETATM    2  C   UNL     1      26.204  44.864  50.009  1.00  0.00     0.019 A 
HETATM    3  C   UNL     1      25.441  45.897  49.450  1.00  0.00     0.030 A 
HETATM    4  C   UNL     1      24.911  46.908  50.253  1.00  0.00     0.036 A 
HETATM    5  C   UNL     1      25.168  46.881  51.631  1.00  0.00     0.030 A 
HETATM    6  C   UNL     1      25.930  45.851  52.193  1.00  0.00     0.019 A 
ENDROOT
BRANCH   1   7
HETATM    7  C   UNL     1      27.225  43.739  52.032  1.00  0.00     0.251 C 
HETATM    8  N   UNL     1      27.464  43.872  53.385  1.00  0.00    -0.357 N 
HETATM    9  H   UNL     1      27.348  44.790  53.799  1.00  0.00     0.162 HD
HETATM   10  O   UNL     1      27.654  42.808  51.358  1.00  0.00    -0.268 OA
BRANCH   8  11
HETATM   11  C   UNL     1      28.369  42.964  54.068  1.00  0.00     0.127 C 
BRANCH  11  12
HETATM   12  C   UNL     1      29.810  43.481  54.098  1.00  0.00     0.058 C 
BRANCH  12  13
HETATM   13  C   UNL     1      30.259  43.977  55.455  1.00  0.00    -0.057 A 
HETATM   14  C   UNL     1      31.132  43.207  56.236  1.00  0.00     0.007 A 
HETATM   15  C   UNL     1      31.557  43.665  57.485  1.00  0.00     0.001 A 
HETATM   16  C   UNL     1      31.113  44.895  57.965  1.00  0.00     0.000 A 
HETATM   17  C   UNL     1      30.248  45.671  57.196  1.00  0.00     0.001 A 
HETATM   18  C   UNL     1      29.826  45.217  55.946  1.00  0.00     0.007 A 
ENDBRANCH  12  13
ENDBRANCH  11  12
ENDBRANCH   8  11
ENDBRANCH   1   7
BRANCH   4  19
HETATM   19  N   UNL     1      24.104  47.960  49.771  1.00  0.00    -0.309 N 
HETATM   20  C   UNL     1      22.839  47.867  49.209  1.00  0.00     0.325 C 
HETATM   21  N   UNL     1      22.302  49.127  48.995  1.00  0.00    -0.306 N 
HETATM   22  O   UNL     1      22.257  46.821  48.947  1.00  0.00    -0.247 OA
HETATM   23  H   UNL     1      22.807  49.939  49.315  1.00  0.00     0.171 HD
HETATM   24  H   UNL     1      24.516  48.880  49.795  1.00  0.00     0.170 HD
BRANCH  21  25
HETATM   25  C   UNL     1      21.047  49.354  48.463  1.00  0.00     0.072 A 
HETATM   26  C   UNL     1      20.510  49.104  47.180  1.00  0.00     0.169 A 
HETATM   27  N   UNL     1      19.229  49.474  47.084  1.00  0.00    -0.185 NA
HETATM   28  N   UNL     1      18.947  49.957  48.303  1.00  0.00    -0.287 N 
HETATM   29  H   UNL     1      18.008  50.300  48.476  1.00  0.00     0.188 HD
HETATM   30  C   UNL     1      20.005  49.912  49.165  1.00  0.00     0.140 A 
ENDBRANCH  21  25
ENDBRANCH   4  19
TORSDOF 6
ENDMDL
MODEL 4
REMARK VINA RESULT:      -8.2      4.598      6.914
REMARK  6 active torsions:
REMARK  status: ('A' for Active; 'I' for Inactive)
REMARK    1  A    between atoms: C_4  and  C_5 
REMARK    2  A    between atoms: C_5  and  C_6 
REMARK    3  A    between atoms: C_6  and  N_7 
REMARK       I    between atoms: N_7  and  C_8 
REMARK    4  A    between atoms: C_8  and  C_9 
REMARK    5  A    between atoms: C_12  and  N_13 
REMARK       I    between atoms: N_13  and  C_14 
REMARK       I    between atoms: C_14  and  N_15 
REMARK    6  A    between atoms: N_15  and  C_16 
ROOT
HETATM    1  C   UNL     1      26.934  43.400  52.066  1.00  0.00     0.032 A 
HETATM    2  C   UNL     1      26.801  44.338  51.037  1.00  0.00     0.019 A 
HETATM    3  C   UNL     1      26.684  43.916  49.707  1.00  0.00     0.030 A 
HETATM    4  C   UNL     1      26.688  42.557  49.386  1.00  0.00     0.036 A 
HETATM    5  C   UNL     1      26.796  41.619  50.422  1.00  0.00     0.030 A 
HETATM    6  C   UNL     1      26.914  42.037  51.752  1.00  0.00     0.019 A 
ENDROOT
BRANCH   1   7
HETATM    7  C   UNL     1      27.082  43.799  53.493  1.00  0.00     0.251 C 
HETATM    8  N   UNL     1      27.156  45.153  53.748  1.00  0.00    -0.357 N 
HETATM    9  H   UNL     1      27.382  45.769  52.976  1.00  0.00     0.162 HD
HETATM   10  O   UNL     1      27.168  42.941  54.366  1.00  0.00    -0.268 OA
BRANCH   8  11
HETATM   11  C   UNL     1      27.480  45.638  55.078  1.00  0.00     0.127 C 
BRANCH  11  12
HETATM   12  C   UNL     1      28.917  46.156  55.183  1.00  0.00     0.058 C 
BRANCH  12  13
HETATM   13  C   UNL     1      29.834  45.269  55.995  1.00  0.00    -0.057 A 
HETATM   14  C   UNL     1      30.334  44.079  55.448  1.00  0.00     0.007 A 
HETATM   15  C   UNL     1      31.189  43.262  56.191  1.00  0.00     0.001 A 
HETATM   16  C   UNL     1      31.552  43.625  57.486  1.00  0.00     0.000 A 
HETATM   17  C   UNL     1      31.064  44.807  58.038  1.00  0.00     0.001 A 
HETATM   18  C   UNL     1      30.214  45.628  57.296  1.00  0.00     0.007 A 
ENDBRANCH  12  13
ENDBRANCH  11  12
ENDBRANCH   8  11
ENDBRANCH   1   7
BRANCH   4  19
HETATM   19  N   UNL     1      26.610  42.055  48.070  1.00  0.00    -0.309 N 
HETATM   20  C   UNL     1      27.566  41.316  47.389  1.00  0.00     0.325 C 
HETATM   21  N   UNL     1      27.070  40.874  46.172  1.00  0.00    -0.306 N 
HETATM   22  O   UNL     1      28.693  41.068  47.800  1.00  0.00    -0.247 OA
HETATM   23  H   UNL     1      26.105  41.048  45.941  1.00  0.00     0.171 HD
HETATM   24  H   UNL     1      25.783  42.304  47.551  1.00  0.00     0.170 HD
BRANCH  21  25
HETATM   25  C   UNL     1      27.786  40.099  45.280  1.00  0.00     0.072 A 
HETATM   26  C   UNL     1      28.581  40.442  44.162  1.00  0.00     0.169 A 
HETATM   27  N   UNL     1      29.111  39.369  43.566  1.00  0.00    -0.185 NA
HETATM   28  N   UNL     1      28.659  38.343  44.303  1.00  0.00    -0.287 N 
HETATM   29  H   UNL     1      28.941  37.405  44.040  1.00  0.00     0.188 HD
HETATM   30  C   UNL     1      27.857  38.728  45.339  1.00  0.00     0.140 A 
ENDBRANCH  21  25
ENDBRANCH   4  19
TORSDOF 6
ENDMDL
MODEL 5
REMARK VINA RESULT:      -8.2      6.531     13.722
REMARK  6 active torsions:
REMARK  status: ('A' for Active; 'I' for Inactive)
REMARK    1  A    between atoms: C_4  and  C_5 
REMARK    2  A    between atoms: C_5  and  C_6 
REMARK    3  A    between atoms: C_6  and  N_7 
REMARK       I    between atoms: N_7  and  C_8 
REMARK    4  A    between atoms: C_8  and  C_9 
REMARK    5  A    between atoms: C_12  and  N_13 
REMARK       I    between atoms: N_13  and  C_14 
REMARK       I    between atoms: C_14  and  N_15 
REMARK    6  A    between atoms: N_15  and  C_16 
ROOT
HETATM    1  C   UNL     1      17.709  51.899  49.397  1.00  0.00     0.032 A 
HETATM    2  C   UNL     1      18.120  50.661  49.902  1.00  0.00     0.019 A 
HETATM    3  C   UNL     1      19.350  50.114  49.516  1.00  0.00     0.030 A 
HETATM    4  C   UNL     1      20.188  50.795  48.631  1.00  0.00     0.036 A 
HETATM    5  C   UNL     1      19.784  52.046  48.146  1.00  0.00     0.030 A 
HETATM    6  C   UNL     1      18.556  52.596  48.530  1.00  0.00     0.019 A 
ENDROOT
BRANCH   1   7
HETATM    7  C   UNL     1      16.402  52.513  49.762  1.00  0.00     0.251 C 
HETATM    8  N   UNL     1      16.388  53.885  49.913  1.00  0.00    -0.357 N 
HETATM    9  H   UNL     1      17.276  54.356  50.045  1.00  0.00     0.162 HD
HETATM   10  O   UNL     1      15.419  51.803  49.946  1.00  0.00    -0.268 OA
BRANCH   8  11
HETATM   11  C   UNL     1      15.215  54.559  50.441  1.00  0.00     0.127 C 
BRANCH  11  12
HETATM   12  C   UNL     1      15.254  56.073  50.218  1.00  0.00     0.058 C 
BRANCH  12  13
HETATM   13  C   UNL     1      15.229  56.885  51.493  1.00  0.00    -0.057 A 
HETATM   14  C   UNL     1      15.148  58.284  51.440  1.00  0.00     0.007 A 
HETATM   15  C   UNL     1      15.115  59.037  52.615  1.00  0.00     0.001 A 
HETATM   16  C   UNL     1      15.162  58.402  53.854  1.00  0.00     0.000 A 
HETATM   17  C   UNL     1      15.238  57.012  53.920  1.00  0.00     0.001 A 
HETATM   18  C   UNL     1      15.266  56.257  52.747  1.00  0.00     0.007 A 
ENDBRANCH  12  13
ENDBRANCH  11  12
ENDBRANCH   8  11
ENDBRANCH   1   7
BRANCH   4  19
HETATM   19  N   UNL     1      21.422  50.294  48.167  1.00  0.00    -0.309 N 
HETATM   20  C   UNL     1      22.626  50.242  48.854  1.00  0.00     0.325 C 
HETATM   21  N   UNL     1      23.578  49.543  48.127  1.00  0.00    -0.306 N 
HETATM   22  O   UNL     1      22.831  50.729  49.960  1.00  0.00    -0.247 OA
HETATM   23  H   UNL     1      23.309  49.100  47.263  1.00  0.00     0.171 HD
HETATM   24  H   UNL     1      21.440  49.980  47.209  1.00  0.00     0.170 HD
BRANCH  21  25
HETATM   25  C   UNL     1      24.868  49.312  48.563  1.00  0.00     0.072 A 
HETATM   26  C   UNL     1      26.094  49.945  48.254  1.00  0.00     0.169 A 
HETATM   27  N   UNL     1      27.125  49.405  48.912  1.00  0.00    -0.185 NA
HETATM   28  N   UNL     1      26.560  48.431  49.640  1.00  0.00    -0.287 N 
HETATM   29  H   UNL     1      27.160  47.874  50.239  1.00  0.00     0.188 HD
HETATM   30  C   UNL     1      25.210  48.331  49.463  1.00  0.00     0.140 A 
ENDBRANCH  21  25
ENDBRANCH   4  19
TORSDOF 6
ENDMDL
MODEL 6
REMARK VINA RESULT:      -8.2      3.039      3.475
REMARK  6 active torsions:
REMARK  status: ('A' for Active; 'I' for Inactive)
REMARK    1  A    between atoms: C_4  and  C_5 
REMARK    2  A    between atoms: C_5  and  C_6 
REMARK    3  A    between atoms: C_6  and  N_7 
REMARK       I    between atoms: N_7  and  C_8 
REMARK    4  A    between atoms: C_8  and  C_9 
REMARK    5  A    between atoms: C_12  and  N_13 
REMARK       I    between atoms: N_13  and  C_14 
REMARK       I    between atoms: C_14  and  N_15 
REMARK    6  A    between atoms: N_15  and  C_16 
ROOT
HETATM    1  C   UNL     1      26.362  43.899  52.702  1.00  0.00     0.032 A 
HETATM    2  C   UNL     1      25.533  45.025  52.753  1.00  0.00     0.019 A 
HETATM    3  C   UNL     1      24.650  45.300  51.701  1.00  0.00     0.030 A 
HETATM    4  C   UNL     1      24.575  44.454  50.593  1.00  0.00     0.036 A 
HETATM    5  C   UNL     1      25.389  43.314  50.557  1.00  0.00     0.030 A 
HETATM    6  C   UNL     1      26.272  43.036  51.606  1.00  0.00     0.019 A 
ENDROOT
BRANCH   1   7
HETATM    7  C   UNL     1      27.331  43.575  53.786  1.00  0.00     0.251 C 
HETATM    8  N   UNL     1      28.497  42.946  53.399  1.00  0.00    -0.357 N 
HETATM    9  H   UNL     1      28.515  42.499  52.490  1.00  0.00     0.162 HD
HETATM   10  O   UNL     1      27.058  43.835  54.953  1.00  0.00    -0.268 OA
BRANCH   8  11
HETATM   11  C   UNL     1      29.421  42.428  54.393  1.00  0.00     0.127 C 
BRANCH  11  12
HETATM   12  C   UNL     1      30.651  43.322  54.577  1.00  0.00     0.058 C 
BRANCH  12  13
HETATM   13  C   UNL     1      30.653  44.109  55.868  1.00  0.00    -0.057 A 
HETATM   14  C   UNL     1      29.862  45.259  55.997  1.00  0.00     0.007 A 
HETATM   15  C   UNL     1      29.854  45.984  57.191  1.00  0.00     0.001 A 
HETATM   16  C   UNL     1      30.635  45.567  58.265  1.00  0.00     0.000 A 
HETATM   17  C   UNL     1      31.423  44.424  58.151  1.00  0.00     0.001 A 
HETATM   18  C   UNL     1      31.429  43.695  56.961  1.00  0.00     0.007 A 
ENDBRANCH  12  13
ENDBRANCH  11  12
ENDBRANCH   8  11
ENDBRANCH   1   7
BRANCH   4  19
HETATM   19  N   UNL     1      23.739  44.682  49.480  1.00  0.00    -0.309 N 
HETATM   20  C   UNL     1      22.402  44.339  49.341  1.00  0.00     0.325 C 
HETATM   21  N   UNL     1      21.879  44.863  48.168  1.00  0.00    -0.306 N 
HETATM   22  O   UNL     1      21.755  43.678  50.144  1.00  0.00    -0.247 OA
HETATM   23  H   UNL     1      22.452  45.467  47.600  1.00  0.00     0.171 HD
HETATM   24  H   UNL     1      24.179  45.102  48.676  1.00  0.00     0.170 HD
BRANCH  21  25
HETATM   25  C   UNL     1      20.567  44.702  47.766  1.00  0.00     0.072 A 
HETATM   26  C   UNL     1      19.986  43.927  46.738  1.00  0.00     0.169 A 
HETATM   27  N   UNL     1      18.655  44.056  46.694  1.00  0.00    -0.185 NA
HETATM   28  N   UNL     1      18.387  44.909  47.693  1.00  0.00    -0.287 N 
HETATM   29  H   UNL     1      17.419  45.159  47.861  1.00  0.00     0.188 HD
HETATM   30  C   UNL     1      19.500  45.330  48.364  1.00  0.00     0.140 A 
ENDBRANCH  21  25
ENDBRANCH   4  19
TORSDOF 6
ENDMDL
MODEL 7
REMARK VINA RESULT:      -8.1     16.855     20.251
REMARK  6 active torsions:
REMARK  status: ('A' for Active; 'I' for Inactive)
REMARK    1  A    between atoms: C_4  and  C_5 
REMARK    2  A    between atoms: C_5  and  C_6 
REMARK    3  A    between atoms: C_6  and  N_7 
REMARK       I    between atoms: N_7  and  C_8 
REMARK    4  A    between atoms: C_8  and  C_9 
REMARK    5  A    between atoms: C_12  and  N_13 
REMARK       I    between atoms: N_13  and  C_14 
REMARK       I    between atoms: C_14  and  N_15 
REMARK    6  A    between atoms: N_15  and  C_16 
ROOT
HETATM    1  C   UNL     1      37.907  44.314  63.663  1.00  0.00     0.032 A 
HETATM    2  C   UNL     1      39.250  44.324  63.271  1.00  0.00     0.019 A 
HETATM    3  C   UNL     1      39.941  43.119  63.089  1.00  0.00     0.030 A 
HETATM    4  C   UNL     1      39.302  41.893  63.284  1.00  0.00     0.036 A 
HETATM    5  C   UNL     1      37.950  41.888  63.652  1.00  0.00     0.030 A 
HETATM    6  C   UNL     1      37.257  43.089  63.836  1.00  0.00     0.019 A 
ENDROOT
BRANCH   1   7
HETATM    7  C   UNL     1      37.136  45.568  63.890  1.00  0.00     0.251 C 
HETATM    8  N   UNL     1      37.871  46.698  64.182  1.00  0.00    -0.357 N 
HETATM    9  H   UNL     1      38.827  46.573  64.495  1.00  0.00     0.162 HD
HETATM   10  O   UNL     1      35.910  45.551  63.847  1.00  0.00    -0.268 OA
BRANCH   8  11
HETATM   11  C   UNL     1      37.210  47.924  64.595  1.00  0.00     0.127 C 
BRANCH  11  12
HETATM   12  C   UNL     1      38.198  49.060  64.877  1.00  0.00     0.058 C 
BRANCH  12  13
HETATM   13  C   UNL     1      37.833  49.912  66.071  1.00  0.00    -0.057 A 
HETATM   14  C   UNL     1      38.029  51.300  66.037  1.00  0.00     0.007 A 
HETATM   15  C   UNL     1      37.685  52.092  67.134  1.00  0.00     0.001 A 
HETATM   16  C   UNL     1      37.142  51.507  68.275  1.00  0.00     0.000 A 
HETATM   17  C   UNL     1      36.938  50.129  68.320  1.00  0.00     0.001 A 
HETATM   18  C   UNL     1      37.277  49.336  67.223  1.00  0.00     0.007 A 
ENDBRANCH  12  13
ENDBRANCH  11  12
ENDBRANCH   8  11
ENDBRANCH   1   7
BRANCH   4  19
HETATM   19  N   UNL     1      39.939  40.641  63.155  1.00  0.00    -0.309 N 
HETATM   20  C   UNL     1      40.389  39.812  64.172  1.00  0.00     0.325 C 
HETATM   21  N   UNL     1      40.823  38.598  63.661  1.00  0.00    -0.306 N 
HETATM   22  O   UNL     1      40.395  40.094  65.364  1.00  0.00    -0.247 OA
HETATM   23  H   UNL     1      40.708  38.408  62.678  1.00  0.00     0.171 HD
HETATM   24  H   UNL     1      40.129  40.337  62.213  1.00  0.00     0.170 HD
BRANCH  21  25
HETATM   25  C   UNL     1      41.311  37.562  64.435  1.00  0.00     0.072 A 
HETATM   26  C   UNL     1      40.746  36.850  65.517  1.00  0.00     0.169 A 
HETATM   27  N   UNL     1      41.566  35.903  65.986  1.00  0.00    -0.185 NA
HETATM   28  N   UNL     1      42.650  36.009  65.203  1.00  0.00    -0.287 N 
HETATM   29  H   UNL     1      43.423  35.374  65.370  1.00  0.00     0.188 HD
HETATM   30  C   UNL     1      42.549  36.992  64.261  1.00  0.00     0.140 A 
ENDBRANCH  21  25
ENDBRANCH   4  19
TORSDOF 6
ENDMDL
MODEL 8
REMARK VINA RESULT:      -8.1      3.590     10.966
REMARK  6 active torsions:
REMARK  status: ('A' for Active; 'I' for Inactive)
REMARK    1  A    between atoms: C_4  and  C_5 
REMARK    2  A    between atoms: C_5  and  C_6 
REMARK    3  A    between atoms: C_6  and  N_7 
REMARK       I    between atoms: N_7  and  C_8 
REMARK    4  A    between atoms: C_8  and  C_9 
REMARK    5  A    between atoms: C_12  and  N_13 
REMARK       I    between atoms: N_13  and  C_14 
REMARK       I    between atoms: C_14  and  N_15 
REMARK    6  A    between atoms: N_15  and  C_16 
ROOT
HETATM    1  C   UNL     1      24.112  47.887  49.331  1.00  0.00     0.032 A 
HETATM    2  C   UNL     1      25.262  47.790  50.122  1.00  0.00     0.019 A 
HETATM    3  C   UNL     1      25.661  46.550  50.637  1.00  0.00     0.030 A 
HETATM    4  C   UNL     1      24.929  45.393  50.362  1.00  0.00     0.036 A 
HETATM    5  C   UNL     1      23.792  45.492  49.548  1.00  0.00     0.030 A 
HETATM    6  C   UNL     1      23.390  46.728  49.033  1.00  0.00     0.019 A 
ENDROOT
BRANCH   1   7
HETATM    7  C   UNL     1      23.635  49.186  48.777  1.00  0.00     0.251 C 
HETATM    8  N   UNL     1      22.663  49.843  49.504  1.00  0.00    -0.357 N 
HETATM    9  H   UNL     1      22.141  49.309  50.189  1.00  0.00     0.162 HD
HETATM   10  O   UNL     1      24.078  49.600  47.711  1.00  0.00    -0.268 OA
BRANCH   8  11
HETATM   11  C   UNL     1      22.005  51.019  48.963  1.00  0.00     0.127 C 
BRANCH  11  12
HETATM   12  C   UNL     1      20.898  50.668  47.964  1.00  0.00     0.058 C 
BRANCH  12  13
HETATM   13  C   UNL     1      19.505  51.003  48.445  1.00  0.00    -0.057 A 
HETATM   14  C   UNL     1      18.551  49.988  48.614  1.00  0.00     0.007 A 
HETATM   15  C   UNL     1      17.265  50.291  49.067  1.00  0.00     0.001 A 
HETATM   16  C   UNL     1      16.920  51.609  49.355  1.00  0.00     0.000 A 
HETATM   17  C   UNL     1      17.859  52.626  49.195  1.00  0.00     0.001 A 
HETATM   18  C   UNL     1      19.146  52.324  48.747  1.00  0.00     0.007 A 
ENDBRANCH  12  13
ENDBRANCH  11  12
ENDBRANCH   8  11
ENDBRANCH   1   7
BRANCH   4  19
HETATM   19  N   UNL     1      25.247  44.117  50.872  1.00  0.00    -0.309 N 
HETATM   20  C   UNL     1      26.307  43.300  50.507  1.00  0.00     0.325 C 
HETATM   21  N   UNL     1      26.379  42.190  51.335  1.00  0.00    -0.306 N 
HETATM   22  O   UNL     1      27.089  43.524  49.592  1.00  0.00    -0.247 OA
HETATM   23  H   UNL     1      25.750  42.119  52.120  1.00  0.00     0.171 HD
HETATM   24  H   UNL     1      24.600  43.738  51.547  1.00  0.00     0.170 HD
BRANCH  21  25
HETATM   25  C   UNL     1      27.342  41.205  51.227  1.00  0.00     0.072 A 
HETATM   26  C   UNL     1      27.595  40.242  50.224  1.00  0.00     0.169 A 
HETATM   27  N   UNL     1      28.649  39.471  50.513  1.00  0.00    -0.185 NA
HETATM   28  N   UNL     1      29.069  39.942  51.696  1.00  0.00    -0.287 N 
HETATM   29  H   UNL     1      29.880  39.507  52.122  1.00  0.00     0.188 HD
HETATM   30  C   UNL     1      28.317  40.979  52.169  1.00  0.00     0.140 A 
ENDBRANCH  21  25
ENDBRANCH   4  19
TORSDOF 6
ENDMDL
MODEL 9
REMARK VINA RESULT:      -7.8      3.974     10.766
REMARK  6 active torsions:
REMARK  status: ('A' for Active; 'I' for Inactive)
REMARK    1  A    between atoms: C_4  and  C_5 
REMARK    2  A    between atoms: C_5  and  C_6 
REMARK    3  A    between atoms: C_6  and  N_7 
REMARK       I    between atoms: N_7  and  C_8 
REMARK    4  A    between atoms: C_8  and  C_9 
REMARK    5  A    between atoms: C_12  and  N_13 
REMARK       I    between atoms: N_13  and  C_14 
REMARK       I    between atoms: C_14  and  N_15 
REMARK    6  A    between atoms: N_15  and  C_16 
ROOT
HETATM    1  C   UNL     1      24.943  45.722  50.540  1.00  0.00     0.032 A 
HETATM    2  C   UNL     1      24.098  44.639  50.272  1.00  0.00     0.019 A 
HETATM    3  C   UNL     1      24.538  43.328  50.494  1.00  0.00     0.030 A 
HETATM    4  C   UNL     1      25.819  43.080  50.994  1.00  0.00     0.036 A 
HETATM    5  C   UNL     1      26.653  44.168  51.284  1.00  0.00     0.030 A 
HETATM    6  C   UNL     1      26.217  45.479  51.063  1.00  0.00     0.019 A 
ENDROOT
BRANCH   1   7
HETATM    7  C   UNL     1      24.529  47.132  50.301  1.00  0.00     0.251 C 
HETATM    8  N   UNL     1      23.266  47.322  49.778  1.00  0.00    -0.357 N 
HETATM    9  H   UNL     1      22.812  46.531  49.336  1.00  0.00     0.162 HD
HETATM   10  O   UNL     1      25.309  48.050  50.534  1.00  0.00    -0.268 OA
BRANCH   8  11
HETATM   11  C   UNL     1      22.837  48.640  49.343  1.00  0.00     0.127 C 
BRANCH  11  12
HETATM   12  C   UNL     1      21.549  48.596  48.516  1.00  0.00     0.058 C 
BRANCH  12  13
HETATM   13  C   UNL     1      20.708  49.849  48.619  1.00  0.00    -0.057 A 
HETATM   14  C   UNL     1      20.183  50.446  47.464  1.00  0.00     0.007 A 
HETATM   15  C   UNL     1      19.398  51.597  47.554  1.00  0.00     0.001 A 
HETATM   16  C   UNL     1      19.129  52.162  48.798  1.00  0.00     0.000 A 
HETATM   17  C   UNL     1      19.641  51.576  49.954  1.00  0.00     0.001 A 
HETATM   18  C   UNL     1      20.422  50.423  49.866  1.00  0.00     0.007 A 
ENDBRANCH  12  13
ENDBRANCH  11  12
ENDBRANCH   8  11
ENDBRANCH   1   7
BRANCH   4  19
HETATM   19  N   UNL     1      26.346  41.790  51.209  1.00  0.00    -0.309 N 
HETATM   20  C   UNL     1      27.225  41.088  50.397  1.00  0.00     0.325 C 
HETATM   21  N   UNL     1      27.635  39.916  51.014  1.00  0.00    -0.306 N 
HETATM   22  O   UNL     1      27.607  41.450  49.291  1.00  0.00    -0.247 OA
HETATM   23  H   UNL     1      27.343  39.729  51.960  1.00  0.00     0.171 HD
HETATM   24  H   UNL     1      26.007  41.305  52.026  1.00  0.00     0.170 HD
BRANCH  21  25
HETATM   25  C   UNL     1      28.525  39.018  50.456  1.00  0.00     0.072 A 
HETATM   26  C   UNL     1      29.763  38.513  50.913  1.00  0.00     0.169 A 
HETATM   27  N   UNL     1      30.306  37.643  50.054  1.00  0.00    -0.185 NA
HETATM   28  N   UNL     1      29.416  37.592  49.052  1.00  0.00    -0.287 N 
HETATM   29  H   UNL     1      29.614  36.979  48.269  1.00  0.00     0.188 HD
HETATM   30  C   UNL     1      28.333  38.401  49.243  1.00  0.00     0.140 A 
ENDBRANCH  21  25
ENDBRANCH   4  19
TORSDOF 6
ENDMDL
MODEL 10
REMARK VINA RESULT:      -7.8     13.139     13.953
REMARK  6 active torsions:
REMARK  status: ('A' for Active; 'I' for Inactive)
REMARK    1  A    between atoms: C_4  and  C_5 
REMARK    2  A    between atoms: C_5  and  C_6 
REMARK    3  A    between atoms: C_6  and  N_7 
REMARK       I    between atoms: N_7  and  C_8 
REMARK    4  A    between atoms: C_8  and  C_9 
REMARK    5  A    between atoms: C_12  and  N_13 
REMARK       I    between atoms: N_13  and  C_14 
REMARK       I    between atoms: C_14  and  N_15 
REMARK    6  A    between atoms: N_15  and  C_16 
ROOT
HETATM    1  C   UNL     1      35.434  52.013  43.769  1.00  0.00     0.032 A 
HETATM    2  C   UNL     1      35.310  51.231  42.616  1.00  0.00     0.019 A 
HETATM    3  C   UNL     1      34.068  50.693  42.258  1.00  0.00     0.030 A 
HETATM    4  C   UNL     1      32.934  50.935  43.037  1.00  0.00     0.036 A 
HETATM    5  C   UNL     1      33.058  51.740  44.177  1.00  0.00     0.030 A 
HETATM    6  C   UNL     1      34.297  52.279  44.538  1.00  0.00     0.019 A 
ENDROOT
BRANCH   1   7
HETATM    7  C   UNL     1      36.737  52.591  44.203  1.00  0.00     0.251 C 
HETATM    8  N   UNL     1      37.063  53.830  43.689  1.00  0.00    -0.357 N 
HETATM    9  H   UNL     1      36.565  54.145  42.864  1.00  0.00     0.162 HD
HETATM   10  O   UNL     1      37.473  51.954  44.950  1.00  0.00    -0.268 OA
BRANCH   8  11
HETATM   11  C   UNL     1      38.382  54.396  43.905  1.00  0.00     0.127 C 
BRANCH  11  12
HETATM   12  C   UNL     1      38.405  55.421  45.041  1.00  0.00     0.058 C 
BRANCH  12  13
HETATM   13  C   UNL     1      38.989  54.896  46.334  1.00  0.00    -0.057 A 
HETATM   14  C   UNL     1      38.153  54.364  47.325  1.00  0.00     0.007 A 
HETATM   15  C   UNL     1      38.688  53.870  48.516  1.00  0.00     0.001 A 
HETATM   16  C   UNL     1      40.064  53.903  48.728  1.00  0.00     0.000 A 
HETATM   17  C   UNL     1      40.907  54.426  47.750  1.00  0.00     0.001 A 
HETATM   18  C   UNL     1      40.374  54.916  46.557  1.00  0.00     0.007 A 
ENDBRANCH  12  13
ENDBRANCH  11  12
ENDBRANCH   8  11
ENDBRANCH   1   7
BRANCH   4  19
HETATM   19  N   UNL     1      31.658  50.401  42.762  1.00  0.00    -0.309 N 
HETATM   20  C   UNL     1      30.714  50.880  41.865  1.00  0.00     0.325 C 
HETATM   21  N   UNL     1      29.645  50.003  41.761  1.00  0.00    -0.306 N 
HETATM   22  O   UNL     1      30.807  51.926  41.234  1.00  0.00    -0.247 OA
HETATM   23  H   UNL     1      29.681  49.122  42.249  1.00  0.00     0.171 HD
HETATM   24  H   UNL     1      31.384  49.604  43.317  1.00  0.00     0.170 HD
BRANCH  21  25
HETATM   25  C   UNL     1      28.559  50.203  40.931  1.00  0.00     0.072 A 
HETATM   26  C   UNL     1      28.269  49.732  39.630  1.00  0.00     0.169 A 
HETATM   27  N   UNL     1      27.084  50.164  39.185  1.00  0.00    -0.185 NA
HETATM   28  N   UNL     1      26.618  50.908  40.199  1.00  0.00    -0.287 N 
HETATM   29  H   UNL     1      25.709  51.345  40.092  1.00  0.00     0.188 HD
HETATM   30  C   UNL     1      27.466  50.966  41.268  1.00  0.00     0.140 A 
ENDBRANCH  21  25
ENDBRANCH   4  19
TORSDOF 6
ENDMDL
