MODEL 1
REMARK VINA RESULT:      -8.2      0.000      0.000
REMARK  1 active torsions:
REMARK  status: ('A' for Active; 'I' for Inactive)
REMARK    1  A    between atoms: C_8  and  C_9 
ROOT
HETATM    1  C   UNL     1      30.980  54.088  40.665  1.00  0.00     0.073 C 
HETATM    2  C   UNL     1      29.945  53.023  40.544  1.00  0.00     0.062 A 
HETATM    3  N   UNL     1      28.662  53.378  40.447  1.00  0.00    -0.178 NA
HETATM    4  N   UNL     1      28.023  52.218  40.292  1.00  0.00    -0.262 N 
HETATM    5  H   UNL     1      27.019  52.246  40.167  1.00  0.00     0.191 HD
HETATM    6  C   UNL     1      28.832  51.112  40.334  1.00  0.00     0.134 A 
HETATM    7  C   UNL     1      30.121  51.591  40.511  1.00  0.00     0.032 A 
HETATM    8  C   UNL     1      31.456  50.906  40.521  1.00  0.00     0.120 C 
HETATM    9  S   UNL     1      31.504  49.167  40.026  1.00  0.00    -0.141 SA
HETATM   10  C   UNL     1      30.142  48.399  40.945  1.00  0.00     0.136 C 
HETATM   11  C   UNL     1      30.075  48.617  42.447  1.00  0.00     0.031 C 
HETATM   12  C   UNL     1      28.798  48.638  40.284  1.00  0.00     0.236 C 
HETATM   13  O   UNL     1      28.095  47.680  39.938  1.00  0.00    -0.272 OA
HETATM   14  N   UNL     1      28.252  49.877  40.156  1.00  0.00    -0.311 N 
HETATM   15  H   UNL     1      27.292  49.829  39.830  1.00  0.00     0.170 HD
ENDROOT
BRANCH   8  16
HETATM   16  C   UNL     1      32.246  51.224  41.800  1.00  0.00    -0.029 A 
HETATM   17  C   UNL     1      33.683  51.318  41.766  1.00  0.00    -0.018 A 
HETATM   18  C   UNL     1      34.382  51.634  42.963  1.00  0.00    -0.025 A 
HETATM   19  C   UNL     1      34.477  51.125  40.607  1.00  0.00     0.013 A 
HETATM   20  C   UNL     1      35.784  51.747  42.966  1.00  0.00     0.012 A 
HETATM   21  C   UNL     1      33.683  51.840  44.156  1.00  0.00     0.012 A 
HETATM   22  C   UNL     1      36.524  51.553  41.804  1.00  0.00     0.001 A 
HETATM   23  C   UNL     1      35.872  51.241  40.624  1.00  0.00     0.001 A 
HETATM   24  C   UNL     1      32.299  51.750  44.193  1.00  0.00     0.002 A 
HETATM   25  C   UNL     1      31.592  51.449  43.033  1.00  0.00     0.009 A 
ENDBRANCH   8  16
TORSDOF 1
ENDMDL
MODEL 2
REMARK VINA RESULT:      -8.2     12.140     13.360
REMARK  1 active torsions:
REMARK  status: ('A' for Active; 'I' for Inactive)
REMARK    1  A    between atoms: C_8  and  C_9 
ROOT
HETATM    1  C   UNL     1      26.433  47.585  51.800  1.00  0.00     0.073 C 
HETATM    2  C   UNL     1      25.462  47.017  50.823  1.00  0.00     0.062 A 
HETATM    3  N   UNL     1      24.509  47.808  50.326  1.00  0.00    -0.178 NA
HETATM    4  N   UNL     1      23.868  47.026  49.457  1.00  0.00    -0.262 N 
HETATM    5  H   UNL     1      23.107  47.432  48.929  1.00  0.00     0.191 HD
HETATM    6  C   UNL     1      24.333  45.736  49.401  1.00  0.00     0.134 A 
HETATM    7  C   UNL     1      25.387  45.674  50.300  1.00  0.00     0.032 A 
HETATM    8  C   UNL     1      26.375  44.590  50.617  1.00  0.00     0.120 C 
HETATM    9  S   UNL     1      26.389  43.135  49.542  1.00  0.00    -0.141 SA
HETATM   10  C   UNL     1      24.641  42.678  49.379  1.00  0.00     0.136 C 
HETATM   11  C   UNL     1      23.821  42.508  50.646  1.00  0.00     0.031 C 
HETATM   12  C   UNL     1      23.919  43.532  48.355  1.00  0.00     0.236 C 
HETATM   13  O   UNL     1      23.361  43.003  47.385  1.00  0.00    -0.272 OA
HETATM   14  N   UNL     1      23.741  44.872  48.510  1.00  0.00    -0.311 N 
HETATM   15  H   UNL     1      23.110  45.247  47.809  1.00  0.00     0.170 HD
ENDROOT
BRANCH   8  16
HETATM   16  C   UNL     1      26.401  44.270  52.119  1.00  0.00    -0.029 A 
HETATM   17  C   UNL     1      27.609  43.795  52.743  1.00  0.00    -0.018 A 
HETATM   18  C   UNL     1      27.606  43.528  54.139  1.00  0.00    -0.025 A 
HETATM   19  C   UNL     1      28.836  43.575  52.065  1.00  0.00     0.013 A 
HETATM   20  C   UNL     1      28.769  43.075  54.786  1.00  0.00     0.012 A 
HETATM   21  C   UNL     1      26.442  43.714  54.891  1.00  0.00     0.012 A 
HETATM   22  C   UNL     1      29.954  42.877  54.083  1.00  0.00     0.001 A 
HETATM   23  C   UNL     1      29.987  43.125  52.721  1.00  0.00     0.001 A 
HETATM   24  C   UNL     1      25.276  44.170  54.293  1.00  0.00     0.002 A 
HETATM   25  C   UNL     1      25.257  44.445  52.930  1.00  0.00     0.009 A 
ENDBRANCH   8  16
TORSDOF 1
ENDMDL
MODEL 3
REMARK VINA RESULT:      -8.0      1.157      1.410
REMARK  1 active torsions:
REMARK  status: ('A' for Active; 'I' for Inactive)
REMARK    1  A    between atoms: C_8  and  C_9 
ROOT
HETATM    1  C   UNL     1      30.031  53.762  40.744  1.00  0.00     0.073 C 
HETATM    2  C   UNL     1      28.962  52.734  40.882  1.00  0.00     0.062 A 
HETATM    3  N   UNL     1      27.731  53.123  41.219  1.00  0.00    -0.178 NA
HETATM    4  N   UNL     1      27.023  51.994  41.194  1.00  0.00    -0.262 N 
HETATM    5  H   UNL     1      26.032  52.053  41.394  1.00  0.00     0.191 HD
HETATM    6  C   UNL     1      27.753  50.870  40.901  1.00  0.00     0.134 A 
HETATM    7  C   UNL     1      29.053  51.305  40.696  1.00  0.00     0.032 A 
HETATM    8  C   UNL     1      30.291  50.593  40.238  1.00  0.00     0.120 C 
HETATM    9  S   UNL     1      30.102  48.898  39.633  1.00  0.00    -0.141 SA
HETATM   10  C   UNL     1      29.062  48.089  40.880  1.00  0.00     0.136 C 
HETATM   11  C   UNL     1      29.478  48.187  42.337  1.00  0.00     0.031 C 
HETATM   12  C   UNL     1      27.592  48.409  40.695  1.00  0.00     0.236 C 
HETATM   13  O   UNL     1      26.773  47.497  40.522  1.00  0.00    -0.272 OA
HETATM   14  N   UNL     1      27.091  49.666  40.831  1.00  0.00    -0.311 N 
HETATM   15  H   UNL     1      26.076  49.666  40.822  1.00  0.00     0.170 HD
ENDROOT
BRANCH   8  16
HETATM   16  C   UNL     1      31.455  50.790  41.221  1.00  0.00    -0.029 A 
HETATM   17  C   UNL     1      32.765  51.145  40.739  1.00  0.00    -0.018 A 
HETATM   18  C   UNL     1      33.816  51.340  41.677  1.00  0.00    -0.025 A 
HETATM   19  C   UNL     1      33.101  51.328  39.373  1.00  0.00     0.013 A 
HETATM   20  C   UNL     1      35.105  51.699  41.245  1.00  0.00     0.012 A 
HETATM   21  C   UNL     1      33.580  51.179  43.045  1.00  0.00     0.012 A 
HETATM   22  C   UNL     1      35.390  51.874  39.894  1.00  0.00     0.001 A 
HETATM   23  C   UNL     1      34.388  51.687  38.957  1.00  0.00     0.001 A 
HETATM   24  C   UNL     1      32.319  50.837  43.513  1.00  0.00     0.002 A 
HETATM   25  C   UNL     1      31.274  50.648  42.615  1.00  0.00     0.009 A 
ENDBRANCH   8  16
TORSDOF 1
ENDMDL
MODEL 4
REMARK VINA RESULT:      -7.9      3.256      6.191
REMARK  1 active torsions:
REMARK  status: ('A' for Active; 'I' for Inactive)
REMARK    1  A    between atoms: C_8  and  C_9 
ROOT
HETATM    1  C   UNL     1      31.945  51.287  37.444  1.00  0.00     0.073 C 
HETATM    2  C   UNL     1      32.697  51.458  38.718  1.00  0.00     0.062 A 
HETATM    3  N   UNL     1      34.001  51.737  38.666  1.00  0.00    -0.178 NA
HETATM    4  N   UNL     1      34.346  51.887  39.944  1.00  0.00    -0.262 N 
HETATM    5  H   UNL     1      35.306  52.136  40.149  1.00  0.00     0.191 HD
HETATM    6  C   UNL     1      33.328  51.667  40.838  1.00  0.00     0.134 A 
HETATM    7  C   UNL     1      32.211  51.367  40.074  1.00  0.00     0.032 A 
HETATM    8  C   UNL     1      30.774  51.144  40.440  1.00  0.00     0.120 C 
HETATM    9  S   UNL     1      30.282  51.505  42.143  1.00  0.00    -0.141 SA
HETATM   10  C   UNL     1      31.555  50.708  43.158  1.00  0.00     0.136 C 
HETATM   11  C   UNL     1      31.872  49.245  42.898  1.00  0.00     0.031 C 
HETATM   12  C   UNL     1      32.817  51.544  43.256  1.00  0.00     0.236 C 
HETATM   13  O   UNL     1      33.240  51.905  44.361  1.00  0.00    -0.272 OA
HETATM   14  N   UNL     1      33.597  51.826  42.178  1.00  0.00    -0.311 N 
HETATM   15  H   UNL     1      34.470  52.263  42.454  1.00  0.00     0.170 HD
ENDROOT
BRANCH   8  16
HETATM   16  C   UNL     1      30.253  49.804  39.899  1.00  0.00    -0.029 A 
HETATM   17  C   UNL     1      28.990  49.737  39.210  1.00  0.00    -0.018 A 
HETATM   18  C   UNL     1      28.546  48.484  38.704  1.00  0.00    -0.025 A 
HETATM   19  C   UNL     1      28.134  50.845  38.981  1.00  0.00     0.013 A 
HETATM   20  C   UNL     1      27.325  48.381  38.014  1.00  0.00     0.012 A 
HETATM   21  C   UNL     1      29.322  47.336  38.882  1.00  0.00     0.012 A 
HETATM   22  C   UNL     1      26.518  49.496  37.808  1.00  0.00     0.001 A 
HETATM   23  C   UNL     1      26.921  50.728  38.293  1.00  0.00     0.001 A 
HETATM   24  C   UNL     1      30.539  47.396  39.546  1.00  0.00     0.002 A 
HETATM   25  C   UNL     1      30.997  48.612  40.044  1.00  0.00     0.009 A 
ENDBRANCH   8  16
TORSDOF 1
ENDMDL
MODEL 5
REMARK VINA RESULT:      -7.8      2.263      4.081
REMARK  1 active torsions:
REMARK  status: ('A' for Active; 'I' for Inactive)
REMARK    1  A    between atoms: C_8  and  C_9 
ROOT
HETATM    1  C   UNL     1      31.796  47.374  40.587  1.00  0.00     0.073 C 
HETATM    2  C   UNL     1      30.623  47.689  39.724  1.00  0.00     0.062 A 
HETATM    3  N   UNL     1      30.196  46.771  38.854  1.00  0.00    -0.178 NA
HETATM    4  N   UNL     1      29.121  47.333  38.302  1.00  0.00    -0.262 N 
HETATM    5  H   UNL     1      28.607  46.794  37.617  1.00  0.00     0.191 HD
HETATM    6  C   UNL     1      28.855  48.605  38.740  1.00  0.00     0.134 A 
HETATM    7  C   UNL     1      29.832  48.895  39.680  1.00  0.00     0.032 A 
HETATM    8  C   UNL     1      30.028  50.065  40.598  1.00  0.00     0.120 C 
HETATM    9  S   UNL     1      28.686  51.274  40.704  1.00  0.00    -0.141 SA
HETATM   10  C   UNL     1      28.243  51.608  38.977  1.00  0.00     0.136 C 
HETATM   11  C   UNL     1      29.351  51.990  38.011  1.00  0.00     0.031 C 
HETATM   12  C   UNL     1      27.342  50.534  38.400  1.00  0.00     0.236 C 
HETATM   13  O   UNL     1      26.229  50.831  37.947  1.00  0.00    -0.272 OA
HETATM   14  N   UNL     1      27.746  49.245  38.236  1.00  0.00    -0.311 N 
HETATM   15  H   UNL     1      27.071  48.708  37.701  1.00  0.00     0.170 HD
ENDROOT
BRANCH   8  16
HETATM   16  C   UNL     1      31.427  50.680  40.441  1.00  0.00    -0.029 A 
HETATM   17  C   UNL     1      32.199  51.042  41.602  1.00  0.00    -0.018 A 
HETATM   18  C   UNL     1      33.498  51.591  41.422  1.00  0.00    -0.025 A 
HETATM   19  C   UNL     1      31.763  50.886  42.943  1.00  0.00     0.013 A 
HETATM   20  C   UNL     1      34.287  51.945  42.531  1.00  0.00     0.012 A 
HETATM   21  C   UNL     1      34.012  51.783  40.136  1.00  0.00     0.012 A 
HETATM   22  C   UNL     1      33.822  51.770  43.831  1.00  0.00     0.001 A 
HETATM   23  C   UNL     1      32.559  51.242  44.037  1.00  0.00     0.001 A 
HETATM   24  C   UNL     1      33.270  51.436  39.016  1.00  0.00     0.002 A 
HETATM   25  C   UNL     1      31.999  50.891  39.167  1.00  0.00     0.009 A 
ENDBRANCH   8  16
TORSDOF 1
ENDMDL
MODEL 6
REMARK VINA RESULT:      -7.6      1.922      3.722
REMARK  1 active torsions:
REMARK  status: ('A' for Active; 'I' for Inactive)
REMARK    1  A    between atoms: C_8  and  C_9 
ROOT
HETATM    1  C   UNL     1      32.634  47.937  41.374  1.00  0.00     0.073 C 
HETATM    2  C   UNL     1      31.259  48.466  41.150  1.00  0.00     0.062 A 
HETATM    3  N   UNL     1      30.320  47.645  40.676  1.00  0.00    -0.178 NA
HETATM    4  N   UNL     1      29.221  48.398  40.655  1.00  0.00    -0.262 N 
HETATM    5  H   UNL     1      28.358  47.965  40.350  1.00  0.00     0.191 HD
HETATM    6  C   UNL     1      29.412  49.698  41.051  1.00  0.00     0.134 A 
HETATM    7  C   UNL     1      30.755  49.799  41.380  1.00  0.00     0.032 A 
HETATM    8  C   UNL     1      31.560  50.911  41.984  1.00  0.00     0.120 C 
HETATM    9  S   UNL     1      30.658  52.350  42.608  1.00  0.00    -0.141 SA
HETATM   10  C   UNL     1      29.494  52.762  41.280  1.00  0.00     0.136 C 
HETATM   11  C   UNL     1      30.038  52.931  39.872  1.00  0.00     0.031 C 
HETATM   12  C   UNL     1      28.263  51.875  41.301  1.00  0.00     0.236 C 
HETATM   13  O   UNL     1      27.137  52.375  41.410  1.00  0.00    -0.272 OA
HETATM   14  N   UNL     1      28.321  50.534  41.081  1.00  0.00    -0.311 N 
HETATM   15  H   UNL     1      27.393  50.133  40.984  1.00  0.00     0.170 HD
ENDROOT
BRANCH   8  16
HETATM   16  C   UNL     1      32.786  51.255  41.124  1.00  0.00    -0.029 A 
HETATM   17  C   UNL     1      34.040  51.597  41.745  1.00  0.00    -0.018 A 
HETATM   18  C   UNL     1      35.161  51.890  40.920  1.00  0.00    -0.025 A 
HETATM   19  C   UNL     1      34.258  51.661  43.145  1.00  0.00     0.013 A 
HETATM   20  C   UNL     1      36.405  52.216  41.489  1.00  0.00     0.012 A 
HETATM   21  C   UNL     1      35.041  51.854  39.528  1.00  0.00     0.012 A 
HETATM   22  C   UNL     1      36.575  52.262  42.869  1.00  0.00     0.001 A 
HETATM   23  C   UNL     1      35.501  51.986  43.698  1.00  0.00     0.001 A 
HETATM   24  C   UNL     1      33.835  51.526  38.926  1.00  0.00     0.002 A 
HETATM   25  C   UNL     1      32.726  51.229  39.713  1.00  0.00     0.009 A 
ENDBRANCH   8  16
TORSDOF 1
ENDMDL
MODEL 7
REMARK VINA RESULT:      -7.5     14.061     15.875
REMARK  1 active torsions:
REMARK  status: ('A' for Active; 'I' for Inactive)
REMARK    1  A    between atoms: C_8  and  C_9 
ROOT
HETATM    1  C   UNL     1      20.175  51.413  49.447  1.00  0.00     0.073 C 
HETATM    2  C   UNL     1      20.473  49.964  49.268  1.00  0.00     0.062 A 
HETATM    3  N   UNL     1      21.727  49.538  49.433  1.00  0.00    -0.178 NA
HETATM    4  N   UNL     1      21.639  48.218  49.269  1.00  0.00    -0.262 N 
HETATM    5  H   UNL     1      22.483  47.671  49.379  1.00  0.00     0.191 HD
HETATM    6  C   UNL     1      20.382  47.767  48.953  1.00  0.00     0.134 A 
HETATM    7  C   UNL     1      19.571  48.890  48.929  1.00  0.00     0.032 A 
HETATM    8  C   UNL     1      18.089  49.057  48.763  1.00  0.00     0.120 C 
HETATM    9  S   UNL     1      17.075  47.559  48.788  1.00  0.00    -0.141 SA
HETATM   10  C   UNL     1      17.936  46.413  47.677  1.00  0.00     0.136 C 
HETATM   11  C   UNL     1      18.297  46.897  46.283  1.00  0.00     0.031 C 
HETATM   12  C   UNL     1      19.109  45.731  48.354  1.00  0.00     0.236 C 
HETATM   13  O   UNL     1      19.155  44.497  48.426  1.00  0.00    -0.272 OA
HETATM   14  N   UNL     1      20.202  46.413  48.792  1.00  0.00    -0.311 N 
HETATM   15  H   UNL     1      20.944  45.782  49.078  1.00  0.00     0.170 HD
ENDROOT
BRANCH   8  16
HETATM   16  C   UNL     1      17.752  50.032  47.625  1.00  0.00    -0.029 A 
HETATM   17  C   UNL     1      16.776  51.073  47.821  1.00  0.00    -0.018 A 
HETATM   18  C   UNL     1      16.503  51.972  46.755  1.00  0.00    -0.025 A 
HETATM   19  C   UNL     1      16.053  51.286  49.023  1.00  0.00     0.013 A 
HETATM   20  C   UNL     1      15.566  53.009  46.912  1.00  0.00     0.012 A 
HETATM   21  C   UNL     1      17.166  51.840  45.532  1.00  0.00     0.012 A 
HETATM   22  C   UNL     1      14.881  53.185  48.111  1.00  0.00     0.001 A 
HETATM   23  C   UNL     1      15.123  52.322  49.167  1.00  0.00     0.001 A 
HETATM   24  C   UNL     1      18.107  50.838  45.339  1.00  0.00     0.002 A 
HETATM   25  C   UNL     1      18.396  49.950  46.370  1.00  0.00     0.009 A 
ENDBRANCH   8  16
TORSDOF 1
ENDMDL
MODEL 8
REMARK VINA RESULT:      -7.5      3.260      6.076
REMARK  1 active torsions:
REMARK  status: ('A' for Active; 'I' for Inactive)
REMARK    1  A    between atoms: C_8  and  C_9 
ROOT
HETATM    1  C   UNL     1      31.527  48.365  42.571  1.00  0.00     0.073 C 
HETATM    2  C   UNL     1      31.556  49.853  42.633  1.00  0.00     0.062 A 
HETATM    3  N   UNL     1      32.071  50.445  43.714  1.00  0.00    -0.178 NA
HETATM    4  N   UNL     1      32.004  51.744  43.427  1.00  0.00    -0.262 N 
HETATM    5  H   UNL     1      32.373  52.397  44.107  1.00  0.00     0.191 HD
HETATM    6  C   UNL     1      31.420  52.032  42.219  1.00  0.00     0.134 A 
HETATM    7  C   UNL     1      31.093  50.808  41.656  1.00  0.00     0.032 A 
HETATM    8  C   UNL     1      30.542  50.437  40.311  1.00  0.00     0.120 C 
HETATM    9  S   UNL     1      30.437  51.743  39.063  1.00  0.00    -0.141 SA
HETATM   10  C   UNL     1      29.685  53.142  39.938  1.00  0.00     0.136 C 
HETATM   11  C   UNL     1      28.393  52.904  40.699  1.00  0.00     0.031 C 
HETATM   12  C   UNL     1      30.695  53.905  40.773  1.00  0.00     0.236 C 
HETATM   13  O   UNL     1      30.883  55.112  40.575  1.00  0.00    -0.272 OA
HETATM   14  N   UNL     1      31.335  53.351  41.838  1.00  0.00    -0.311 N 
HETATM   15  H   UNL     1      31.854  54.047  42.364  1.00  0.00     0.170 HD
ENDROOT
BRANCH   8  16
HETATM   16  C   UNL     1      29.276  49.575  40.436  1.00  0.00    -0.029 A 
HETATM   17  C   UNL     1      29.182  48.313  39.748  1.00  0.00    -0.018 A 
HETATM   18  C   UNL     1      28.005  47.531  39.901  1.00  0.00    -0.025 A 
HETATM   19  C   UNL     1      30.195  47.768  38.917  1.00  0.00     0.013 A 
HETATM   20  C   UNL     1      27.881  46.287  39.257  1.00  0.00     0.012 A 
HETATM   21  C   UNL     1      26.952  47.987  40.700  1.00  0.00     0.012 A 
HETATM   22  C   UNL     1      28.902  45.787  38.454  1.00  0.00     0.001 A 
HETATM   23  C   UNL     1      30.059  46.528  38.282  1.00  0.00     0.001 A 
HETATM   24  C   UNL     1      27.039  49.203  41.363  1.00  0.00     0.002 A 
HETATM   25  C   UNL     1      28.184  49.983  41.234  1.00  0.00     0.009 A 
ENDBRANCH   8  16
TORSDOF 1
ENDMDL
MODEL 9
REMARK VINA RESULT:      -7.5     24.835     25.977
REMARK  1 active torsions:
REMARK  status: ('A' for Active; 'I' for Inactive)
REMARK    1  A    between atoms: C_8  and  C_9 
ROOT
HETATM    1  C   UNL     1      42.217  44.886  63.759  1.00  0.00     0.073 C 
HETATM    2  C   UNL     1      41.187  45.853  64.231  1.00  0.00     0.062 A 
HETATM    3  N   UNL     1      41.568  47.086  64.574  1.00  0.00    -0.178 NA
HETATM    4  N   UNL     1      40.424  47.697  64.881  1.00  0.00    -0.262 N 
HETATM    5  H   UNL     1      40.468  48.673  65.149  1.00  0.00     0.191 HD
HETATM    6  C   UNL     1      39.311  46.899  64.801  1.00  0.00     0.134 A 
HETATM    7  C   UNL     1      39.766  45.657  64.384  1.00  0.00     0.032 A 
HETATM    8  C   UNL     1      39.043  44.400  64.000  1.00  0.00     0.120 C 
HETATM    9  S   UNL     1      37.243  44.490  63.836  1.00  0.00    -0.141 SA
HETATM   10  C   UNL     1      36.699  45.368  65.326  1.00  0.00     0.136 C 
HETATM   11  C   UNL     1      37.176  44.860  66.676  1.00  0.00     0.031 C 
HETATM   12  C   UNL     1      36.870  46.869  65.201  1.00  0.00     0.236 C 
HETATM   13  O   UNL     1      35.893  47.620  65.324  1.00  0.00    -0.272 OA
HETATM   14  N   UNL     1      38.088  47.462  65.079  1.00  0.00    -0.311 N 
HETATM   15  H   UNL     1      38.020  48.472  65.160  1.00  0.00     0.170 HD
ENDROOT
BRANCH   8  16
HETATM   16  C   UNL     1      39.548  43.190  64.801  1.00  0.00    -0.029 A 
HETATM   17  C   UNL     1      39.595  41.883  64.197  1.00  0.00    -0.018 A 
HETATM   18  C   UNL     1      40.086  40.788  64.959  1.00  0.00    -0.025 A 
HETATM   19  C   UNL     1      39.189  41.592  62.869  1.00  0.00     0.013 A 
HETATM   20  C   UNL     1      40.160  39.500  64.399  1.00  0.00     0.012 A 
HETATM   21  C   UNL     1      40.508  40.978  66.278  1.00  0.00     0.012 A 
HETATM   22  C   UNL     1      39.755  39.260  63.090  1.00  0.00     0.001 A 
HETATM   23  C   UNL     1      39.268  40.306  62.324  1.00  0.00     0.001 A 
HETATM   24  C   UNL     1      40.463  42.235  66.864  1.00  0.00     0.002 A 
HETATM   25  C   UNL     1      39.992  43.323  66.135  1.00  0.00     0.009 A 
ENDBRANCH   8  16
TORSDOF 1
ENDMDL
MODEL 10
REMARK VINA RESULT:      -7.4     14.136     16.611
REMARK  1 active torsions:
REMARK  status: ('A' for Active; 'I' for Inactive)
REMARK    1  A    between atoms: C_8  and  C_9 
ROOT
HETATM    1  C   UNL     1      15.290  48.406  47.563  1.00  0.00     0.073 C 
HETATM    2  C   UNL     1      16.600  48.088  48.196  1.00  0.00     0.062 A 
HETATM    3  N   UNL     1      16.745  46.923  48.831  1.00  0.00    -0.178 NA
HETATM    4  N   UNL     1      18.021  46.927  49.216  1.00  0.00    -0.262 N 
HETATM    5  H   UNL     1      18.369  46.111  49.703  1.00  0.00     0.191 HD
HETATM    6  C   UNL     1      18.707  48.072  48.901  1.00  0.00     0.134 A 
HETATM    7  C   UNL     1      17.804  48.883  48.231  1.00  0.00     0.032 A 
HETATM    8  C   UNL     1      17.963  50.201  47.534  1.00  0.00     0.120 C 
HETATM    9  S   UNL     1      19.646  50.828  47.308  1.00  0.00    -0.141 SA
HETATM   10  C   UNL     1      20.424  50.621  48.933  1.00  0.00     0.136 C 
HETATM   11  C   UNL     1      19.709  51.182  50.150  1.00  0.00     0.031 C 
HETATM   12  C   UNL     1      20.895  49.198  49.166  1.00  0.00     0.236 C 
HETATM   13  O   UNL     1      22.086  48.969  49.412  1.00  0.00    -0.272 OA
HETATM   14  N   UNL     1      20.038  48.145  49.242  1.00  0.00    -0.311 N 
HETATM   15  H   UNL     1      20.511  47.301  49.551  1.00  0.00     0.170 HD
ENDROOT
BRANCH   8  16
HETATM   16  C   UNL     1      16.963  51.243  48.057  1.00  0.00    -0.029 A 
HETATM   17  C   UNL     1      16.168  52.018  47.138  1.00  0.00    -0.018 A 
HETATM   18  C   UNL     1      15.237  52.959  47.656  1.00  0.00    -0.025 A 
HETATM   19  C   UNL     1      16.233  51.911  45.725  1.00  0.00     0.013 A 
HETATM   20  C   UNL     1      14.434  53.724  46.791  1.00  0.00     0.012 A 
HETATM   21  C   UNL     1      15.103  53.134  49.036  1.00  0.00     0.012 A 
HETATM   22  C   UNL     1      14.527  53.584  45.410  1.00  0.00     0.001 A 
HETATM   23  C   UNL     1      15.428  52.678  44.876  1.00  0.00     0.001 A 
HETATM   24  C   UNL     1      15.868  52.391  49.924  1.00  0.00     0.002 A 
HETATM   25  C   UNL     1      16.781  51.459  49.441  1.00  0.00     0.009 A 
ENDBRANCH   8  16
TORSDOF 1
ENDMDL
