MODEL 1
REMARK VINA RESULT:      -9.7      0.000      0.000
REMARK  7 active torsions:
REMARK  status: ('A' for Active; 'I' for Inactive)
REMARK    1  A    between atoms: O_2  and  C_3 
REMARK    2  A    between atoms: C_4  and  N_5 
REMARK    3  A    between atoms: N_5  and  C_6 
REMARK    4  A    between atoms: C_6  and  C_7 
REMARK       I    between atoms: C_7  and  N_8 
REMARK    5  A    between atoms: N_8  and  N_9 
REMARK       I    between atoms: N_9  and  C_10 
REMARK    6  A    between atoms: C_10  and  C_11 
REMARK    7  A    between atoms: N_13  and  C_14 
ROOT
HETATM    1  N   UNL     1      24.872  47.020  51.182  1.00  0.00    -0.263 N 
HETATM    2  C   UNL     1      25.016  45.892  51.977  1.00  0.00     0.273 C 
HETATM    3  O   UNL     1      24.341  44.873  51.884  1.00  0.00    -0.266 OA
HETATM    4  H   UNL     1      25.209  47.905  51.548  1.00  0.00     0.190 HD
ENDROOT
BRANCH   1   5
HETATM    5  N   UNL     1      23.764  47.110  50.325  1.00  0.00    -0.266 N 
HETATM    6  C   UNL     1      23.669  48.204  49.470  1.00  0.00     0.249 C 
HETATM    7  O   UNL     1      24.363  49.214  49.546  1.00  0.00    -0.270 OA
HETATM    8  H   UNL     1      23.395  46.235  49.948  1.00  0.00     0.190 HD
BRANCH   6   9
HETATM    9  C   UNL     1      22.604  47.987  48.392  1.00  0.00     0.197 C 
BRANCH   9  10
HETATM   10  N   UNL     1      21.263  48.116  48.982  1.00  0.00    -0.282 NA
HETATM   11  H   UNL     1      21.143  47.621  49.869  1.00  0.00     0.128 HD
BRANCH  10  12
HETATM   12  C   UNL     1      20.649  49.380  49.083  1.00  0.00     0.042 A 
HETATM   13  C   UNL     1      19.433  49.485  49.802  1.00  0.00     0.089 A 
HETATM   14  C   UNL     1      18.757  50.708  49.882  1.00  0.00     0.038 A 
HETATM   15  C   UNL     1      19.252  51.829  49.217  1.00  0.00     0.003 A 
HETATM   16  C   UNL     1      20.419  51.730  48.469  1.00  0.00     0.002 A 
HETATM   17  C   UNL     1      21.103  50.514  48.393  1.00  0.00     0.026 A 
BRANCH  13  18
HETATM   18  O   UNL     1      19.013  48.330  50.424  1.00  0.00    -0.354 OA
HETATM   19  C   UNL     1      18.509  48.485  51.746  1.00  0.00     0.210 C 
ENDBRANCH  13  18
ENDBRANCH  10  12
ENDBRANCH   9  10
ENDBRANCH   6   9
ENDBRANCH   1   5
BRANCH   2  20
HETATM   20  C   UNL     1      26.066  46.039  52.967  1.00  0.00     0.070 A 
HETATM   21  C   UNL     1      27.033  45.109  53.294  1.00  0.00     0.137 A 
HETATM   22  N   UNL     1      27.808  45.654  54.294  1.00  0.00    -0.244 N 
HETATM   23  N   UNL     1      27.415  46.925  54.580  1.00  0.00    -0.179 NA
HETATM   24  C   UNL     1      26.367  47.140  53.788  1.00  0.00     0.157 A 
BRANCH  22  25
HETATM   25  C   UNL     1      28.877  45.050  55.012  1.00  0.00     0.059 A 
HETATM   26  C   UNL     1      29.352  45.603  56.209  1.00  0.00     0.055 A 
HETATM   27  C   UNL     1      30.420  44.995  56.871  1.00  0.00     0.036 A 
HETATM   28 CL   UNL     1      31.024  45.688  58.328  1.00  0.00    -0.084 Cl
HETATM   29  C   UNL     1      31.013  43.838  56.365  1.00  0.00     0.024 A 
HETATM   30  C   UNL     1      30.539  43.283  55.179  1.00  0.00     0.004 A 
HETATM   31  C   UNL     1      29.480  43.888  54.500  1.00  0.00     0.031 A 
ENDBRANCH  22  25
ENDBRANCH   2  20
TORSDOF 7
ENDMDL
MODEL 2
REMARK VINA RESULT:      -9.5      1.670      2.479
REMARK  7 active torsions:
REMARK  status: ('A' for Active; 'I' for Inactive)
REMARK    1  A    between atoms: O_2  and  C_3 
REMARK    2  A    between atoms: C_4  and  N_5 
REMARK    3  A    between atoms: N_5  and  C_6 
REMARK    4  A    between atoms: C_6  and  C_7 
REMARK       I    between atoms: C_7  and  N_8 
REMARK    5  A    between atoms: N_8  and  N_9 
REMARK       I    between atoms: N_9  and  C_10 
REMARK    6  A    between atoms: C_10  and  C_11 
REMARK    7  A    between atoms: N_13  and  C_14 
ROOT
HETATM    1  N   UNL     1      24.662  45.571  50.964  1.00  0.00    -0.263 N 
HETATM    2  C   UNL     1      25.418  46.238  51.918  1.00  0.00     0.273 C 
HETATM    3  O   UNL     1      25.277  47.415  52.233  1.00  0.00    -0.266 OA
HETATM    4  H   UNL     1      25.066  44.746  50.531  1.00  0.00     0.190 HD
ENDROOT
BRANCH   1   5
HETATM    5  N   UNL     1      23.792  46.311  50.149  1.00  0.00    -0.266 N 
HETATM    6  C   UNL     1      23.402  45.769  48.927  1.00  0.00     0.249 C 
HETATM    7  O   UNL     1      23.920  44.790  48.398  1.00  0.00    -0.270 OA
HETATM    8  H   UNL     1      23.080  46.873  50.618  1.00  0.00     0.190 HD
BRANCH   6   9
HETATM    9  C   UNL     1      22.217  46.530  48.325  1.00  0.00     0.197 C 
BRANCH   9  10
HETATM   10  N   UNL     1      21.663  47.460  49.321  1.00  0.00    -0.282 NA
HETATM   11  H   UNL     1      22.175  47.485  50.206  1.00  0.00     0.128 HD
BRANCH  10  12
HETATM   12  C   UNL     1      21.332  48.780  48.954  1.00  0.00     0.042 A 
HETATM   13  C   UNL     1      22.306  49.793  49.129  1.00  0.00     0.089 A 
HETATM   14  C   UNL     1      22.006  51.128  48.833  1.00  0.00     0.038 A 
HETATM   15  C   UNL     1      20.729  51.481  48.401  1.00  0.00     0.003 A 
HETATM   16  C   UNL     1      19.749  50.504  48.269  1.00  0.00     0.002 A 
HETATM   17  C   UNL     1      20.045  49.169  48.555  1.00  0.00     0.026 A 
BRANCH  13  18
HETATM   18  O   UNL     1      23.540  49.359  49.563  1.00  0.00    -0.354 OA
HETATM   19  C   UNL     1      24.628  49.591  48.674  1.00  0.00     0.210 C 
ENDBRANCH  13  18
ENDBRANCH  10  12
ENDBRANCH   9  10
ENDBRANCH   6   9
ENDBRANCH   1   5
BRANCH   2  20
HETATM   20  C   UNL     1      26.429  45.390  52.520  1.00  0.00     0.070 A 
HETATM   21  C   UNL     1      27.186  45.670  53.641  1.00  0.00     0.137 A 
HETATM   22  N   UNL     1      28.031  44.601  53.845  1.00  0.00    -0.244 N 
HETATM   23  N   UNL     1      27.804  43.617  52.934  1.00  0.00    -0.179 NA
HETATM   24  C   UNL     1      26.852  44.104  52.141  1.00  0.00     0.157 A 
BRANCH  22  25
HETATM   25  C   UNL     1      29.051  44.457  54.825  1.00  0.00     0.059 A 
HETATM   26  C   UNL     1      29.167  45.359  55.892  1.00  0.00     0.055 A 
HETATM   27  C   UNL     1      30.198  45.199  56.820  1.00  0.00     0.036 A 
HETATM   28 CL   UNL     1      30.358  46.322  58.116  1.00  0.00    -0.084 Cl
HETATM   29  C   UNL     1      31.106  44.147  56.707  1.00  0.00     0.024 A 
HETATM   30  C   UNL     1      30.991  43.245  55.652  1.00  0.00     0.004 A 
HETATM   31  C   UNL     1      29.972  43.402  54.711  1.00  0.00     0.031 A 
ENDBRANCH  22  25
ENDBRANCH   2  20
TORSDOF 7
ENDMDL
MODEL 3
REMARK VINA RESULT:      -9.3      1.405      1.768
REMARK  7 active torsions:
REMARK  status: ('A' for Active; 'I' for Inactive)
REMARK    1  A    between atoms: O_2  and  C_3 
REMARK    2  A    between atoms: C_4  and  N_5 
REMARK    3  A    between atoms: N_5  and  C_6 
REMARK    4  A    between atoms: C_6  and  C_7 
REMARK       I    between atoms: C_7  and  N_8 
REMARK    5  A    between atoms: N_8  and  N_9 
REMARK       I    between atoms: N_9  and  C_10 
REMARK    6  A    between atoms: C_10  and  C_11 
REMARK    7  A    between atoms: N_13  and  C_14 
ROOT
HETATM    1  N   UNL     1      24.736  45.746  49.994  1.00  0.00    -0.263 N 
HETATM    2  C   UNL     1      24.595  44.643  50.825  1.00  0.00     0.273 C 
HETATM    3  O   UNL     1      23.533  44.090  51.088  1.00  0.00    -0.266 OA
HETATM    4  H   UNL     1      25.558  46.329  50.115  1.00  0.00     0.190 HD
ENDROOT
BRANCH   1   5
HETATM    5  N   UNL     1      23.585  46.417  49.555  1.00  0.00    -0.266 N 
HETATM    6  C   UNL     1      23.613  47.806  49.474  1.00  0.00     0.249 C 
HETATM    7  O   UNL     1      24.490  48.518  49.957  1.00  0.00    -0.270 OA
HETATM    8  H   UNL     1      23.021  45.955  48.839  1.00  0.00     0.190 HD
BRANCH   6   9
HETATM    9  C   UNL     1      22.423  48.350  48.679  1.00  0.00     0.197 C 
BRANCH   9  10
HETATM   10  N   UNL     1      21.292  48.606  49.584  1.00  0.00    -0.282 NA
HETATM   11  H   UNL     1      21.516  48.507  50.577  1.00  0.00     0.128 HD
BRANCH  10  12
HETATM   12  C   UNL     1      20.491  49.752  49.414  1.00  0.00     0.042 A 
HETATM   13  C   UNL     1      19.125  49.682  49.782  1.00  0.00     0.089 A 
HETATM   14  C   UNL     1      18.276  50.776  49.579  1.00  0.00     0.038 A 
HETATM   15  C   UNL     1      18.757  51.934  48.971  1.00  0.00     0.003 A 
HETATM   16  C   UNL     1      20.084  52.001  48.561  1.00  0.00     0.002 A 
HETATM   17  C   UNL     1      20.938  50.915  48.770  1.00  0.00     0.026 A 
BRANCH  13  18
HETATM   18  O   UNL     1      18.732  48.501  50.372  1.00  0.00    -0.354 OA
HETATM   19  C   UNL     1      18.541  48.544  51.782  1.00  0.00     0.210 C 
ENDBRANCH  13  18
ENDBRANCH  10  12
ENDBRANCH   9  10
ENDBRANCH   6   9
ENDBRANCH   1   5
BRANCH   2  20
HETATM   20  C   UNL     1      25.860  44.197  51.379  1.00  0.00     0.070 A 
HETATM   21  C   UNL     1      26.388  44.529  52.610  1.00  0.00     0.137 A 
HETATM   22  N   UNL     1      27.610  43.903  52.717  1.00  0.00    -0.244 N 
HETATM   23  N   UNL     1      27.861  43.131  51.626  1.00  0.00    -0.179 NA
HETATM   24  C   UNL     1      26.813  43.323  50.828  1.00  0.00     0.157 A 
BRANCH  22  25
HETATM   25  C   UNL     1      28.565  44.002  53.766  1.00  0.00     0.059 A 
HETATM   26  C   UNL     1      28.413  44.934  54.801  1.00  0.00     0.055 A 
HETATM   27  C   UNL     1      29.385  45.019  55.800  1.00  0.00     0.036 A 
HETATM   28 CL   UNL     1      29.214  46.183  57.058  1.00  0.00    -0.084 Cl
HETATM   29  C   UNL     1      30.499  44.180  55.789  1.00  0.00     0.024 A 
HETATM   30  C   UNL     1      30.651  43.248  54.765  1.00  0.00     0.004 A 
HETATM   31  C   UNL     1      29.692  43.162  53.754  1.00  0.00     0.031 A 
ENDBRANCH  22  25
ENDBRANCH   2  20
TORSDOF 7
ENDMDL
MODEL 4
REMARK VINA RESULT:      -9.0      1.989      2.933
REMARK  7 active torsions:
REMARK  status: ('A' for Active; 'I' for Inactive)
REMARK    1  A    between atoms: O_2  and  C_3 
REMARK    2  A    between atoms: C_4  and  N_5 
REMARK    3  A    between atoms: N_5  and  C_6 
REMARK    4  A    between atoms: C_6  and  C_7 
REMARK       I    between atoms: C_7  and  N_8 
REMARK    5  A    between atoms: N_8  and  N_9 
REMARK       I    between atoms: N_9  and  C_10 
REMARK    6  A    between atoms: C_10  and  C_11 
REMARK    7  A    between atoms: N_13  and  C_14 
ROOT
HETATM    1  N   UNL     1      23.566  45.696  49.805  1.00  0.00    -0.263 N 
HETATM    2  C   UNL     1      24.594  46.361  50.459  1.00  0.00     0.273 C 
HETATM    3  O   UNL     1      24.609  47.560  50.715  1.00  0.00    -0.266 OA
HETATM    4  H   UNL     1      23.788  44.823  49.337  1.00  0.00     0.190 HD
ENDROOT
BRANCH   1   5
HETATM    5  N   UNL     1      22.540  46.449  49.213  1.00  0.00    -0.266 N 
HETATM    6  C   UNL     1      21.343  45.813  48.900  1.00  0.00     0.249 C 
HETATM    7  O   UNL     1      21.176  44.596  48.899  1.00  0.00    -0.270 OA
HETATM    8  H   UNL     1      22.446  47.422  49.509  1.00  0.00     0.190 HD
BRANCH   6   9
HETATM    9  C   UNL     1      20.235  46.820  48.578  1.00  0.00     0.197 C 
BRANCH   9  10
HETATM   10  N   UNL     1      20.204  47.872  49.606  1.00  0.00    -0.282 NA
HETATM   11  H   UNL     1      20.978  47.834  50.273  1.00  0.00     0.128 HD
BRANCH  10  12
HETATM   12  C   UNL     1      19.988  49.216  49.241  1.00  0.00     0.042 A 
HETATM   13  C   UNL     1      21.113  50.024  48.943  1.00  0.00     0.089 A 
HETATM   14  C   UNL     1      20.954  51.379  48.631  1.00  0.00     0.038 A 
HETATM   15  C   UNL     1      19.686  51.959  48.651  1.00  0.00     0.003 A 
HETATM   16  C   UNL     1      18.579  51.190  48.987  1.00  0.00     0.002 A 
HETATM   17  C   UNL     1      18.730  49.835  49.290  1.00  0.00     0.026 A 
BRANCH  13  18
HETATM   18  O   UNL     1      22.327  49.372  48.950  1.00  0.00    -0.354 OA
HETATM   19  C   UNL     1      23.282  49.830  47.999  1.00  0.00     0.210 C 
ENDBRANCH  13  18
ENDBRANCH  10  12
ENDBRANCH   9  10
ENDBRANCH   6   9
ENDBRANCH   1   5
BRANCH   2  20
HETATM   20  C   UNL     1      25.689  45.478  50.816  1.00  0.00     0.070 A 
HETATM   21  C   UNL     1      26.353  45.428  52.025  1.00  0.00     0.137 A 
HETATM   22  N   UNL     1      27.331  44.464  51.919  1.00  0.00    -0.244 N 
HETATM   23  N   UNL     1      27.282  43.848  50.707  1.00  0.00    -0.179 NA
HETATM   24  C   UNL     1      26.304  44.470  50.052  1.00  0.00     0.157 A 
BRANCH  22  25
HETATM   25  C   UNL     1      28.321  44.101  52.873  1.00  0.00     0.059 A 
HETATM   26  C   UNL     1      28.423  44.766  54.103  1.00  0.00     0.055 A 
HETATM   27  C   UNL     1      29.425  44.398  55.003  1.00  0.00     0.036 A 
HETATM   28 CL   UNL     1      29.570  45.232  56.503  1.00  0.00    -0.084 Cl
HETATM   29  C   UNL     1      30.318  43.370  54.701  1.00  0.00     0.024 A 
HETATM   30  C   UNL     1      30.216  42.703  53.482  1.00  0.00     0.004 A 
HETATM   31  C   UNL     1      29.226  43.070  52.569  1.00  0.00     0.031 A 
ENDBRANCH  22  25
ENDBRANCH   2  20
TORSDOF 7
ENDMDL
MODEL 5
REMARK VINA RESULT:      -9.0      3.702     10.352
REMARK  7 active torsions:
REMARK  status: ('A' for Active; 'I' for Inactive)
REMARK    1  A    between atoms: O_2  and  C_3 
REMARK    2  A    between atoms: C_4  and  N_5 
REMARK    3  A    between atoms: N_5  and  C_6 
REMARK    4  A    between atoms: C_6  and  C_7 
REMARK       I    between atoms: C_7  and  N_8 
REMARK    5  A    between atoms: N_8  and  N_9 
REMARK       I    between atoms: N_9  and  C_10 
REMARK    6  A    between atoms: C_10  and  C_11 
REMARK    7  A    between atoms: N_13  and  C_14 
ROOT
HETATM    1  N   UNL     1      25.573  46.802  50.765  1.00  0.00    -0.263 N 
HETATM    2  C   UNL     1      25.997  47.595  49.708  1.00  0.00     0.273 C 
HETATM    3  O   UNL     1      27.104  47.540  49.184  1.00  0.00    -0.266 OA
HETATM    4  H   UNL     1      24.812  47.148  51.342  1.00  0.00     0.190 HD
ENDROOT
BRANCH   1   5
HETATM    5  N   UNL     1      26.513  46.000  51.431  1.00  0.00    -0.266 N 
HETATM    6  C   UNL     1      26.389  44.616  51.342  1.00  0.00     0.249 C 
HETATM    7  O   UNL     1      25.404  44.028  50.906  1.00  0.00    -0.270 OA
HETATM    8  H   UNL     1      27.473  46.345  51.473  1.00  0.00     0.190 HD
BRANCH   6   9
HETATM    9  C   UNL     1      27.654  43.904  51.831  1.00  0.00     0.197 C 
BRANCH   9  10
HETATM   10  N   UNL     1      27.488  43.500  53.235  1.00  0.00    -0.282 NA
HETATM   11  H   UNL     1      27.193  42.529  53.363  1.00  0.00     0.128 HD
BRANCH  10  12
HETATM   12  C   UNL     1      28.487  43.798  54.182  1.00  0.00     0.042 A 
HETATM   13  C   UNL     1      28.468  45.069  54.808  1.00  0.00     0.089 A 
HETATM   14  C   UNL     1      29.472  45.432  55.713  1.00  0.00     0.038 A 
HETATM   15  C   UNL     1      30.528  44.561  55.977  1.00  0.00     0.003 A 
HETATM   16  C   UNL     1      30.585  43.329  55.335  1.00  0.00     0.002 A 
HETATM   17  C   UNL     1      29.581  42.957  54.438  1.00  0.00     0.026 A 
BRANCH  13  18
HETATM   18  O   UNL     1      27.393  45.869  54.488  1.00  0.00    -0.354 OA
HETATM   19  C   UNL     1      27.526  47.248  54.815  1.00  0.00     0.210 C 
ENDBRANCH  13  18
ENDBRANCH  10  12
ENDBRANCH   9  10
ENDBRANCH   6   9
ENDBRANCH   1   5
BRANCH   2  20
HETATM   20  C   UNL     1      24.979  48.533  49.272  1.00  0.00     0.070 A 
HETATM   21  C   UNL     1      23.643  48.526  49.619  1.00  0.00     0.137 A 
HETATM   22  N   UNL     1      23.041  49.578  48.964  1.00  0.00    -0.244 N 
HETATM   23  N   UNL     1      23.952  50.299  48.257  1.00  0.00    -0.179 NA
HETATM   24  C   UNL     1      25.104  49.659  48.440  1.00  0.00     0.157 A 
BRANCH  22  25
HETATM   25  C   UNL     1      21.664  49.934  48.943  1.00  0.00     0.059 A 
HETATM   26  C   UNL     1      20.667  48.996  49.243  1.00  0.00     0.055 A 
HETATM   27  C   UNL     1      19.325  49.377  49.186  1.00  0.00     0.036 A 
HETATM   28 CL   UNL     1      18.096  48.219  49.526  1.00  0.00    -0.084 Cl
HETATM   29  C   UNL     1      18.963  50.681  48.848  1.00  0.00     0.024 A 
HETATM   30  C   UNL     1      19.952  51.618  48.555  1.00  0.00     0.004 A 
HETATM   31  C   UNL     1      21.297  51.246  48.596  1.00  0.00     0.031 A 
ENDBRANCH  22  25
ENDBRANCH   2  20
TORSDOF 7
ENDMDL
MODEL 6
REMARK VINA RESULT:      -8.9      1.679      2.140
REMARK  7 active torsions:
REMARK  status: ('A' for Active; 'I' for Inactive)
REMARK    1  A    between atoms: O_2  and  C_3 
REMARK    2  A    between atoms: C_4  and  N_5 
REMARK    3  A    between atoms: N_5  and  C_6 
REMARK    4  A    between atoms: C_6  and  C_7 
REMARK       I    between atoms: C_7  and  N_8 
REMARK    5  A    between atoms: N_8  and  N_9 
REMARK       I    between atoms: N_9  and  C_10 
REMARK    6  A    between atoms: C_10  and  C_11 
REMARK    7  A    between atoms: N_13  and  C_14 
ROOT
HETATM    1  N   UNL     1      23.899  45.718  50.271  1.00  0.00    -0.263 N 
HETATM    2  C   UNL     1      24.840  46.361  51.062  1.00  0.00     0.273 C 
HETATM    3  O   UNL     1      24.899  47.572  51.246  1.00  0.00    -0.266 OA
HETATM    4  H   UNL     1      24.134  44.801  49.903  1.00  0.00     0.190 HD
ENDROOT
BRANCH   1   5
HETATM    5  N   UNL     1      23.053  46.490  49.459  1.00  0.00    -0.266 N 
HETATM    6  C   UNL     1      22.142  45.836  48.635  1.00  0.00     0.249 C 
HETATM    7  O   UNL     1      22.154  44.633  48.393  1.00  0.00    -0.270 OA
HETATM    8  H   UNL     1      22.729  47.381  49.840  1.00  0.00     0.190 HD
BRANCH   6   9
HETATM    9  C   UNL     1      21.091  46.801  48.079  1.00  0.00     0.197 C 
BRANCH   9  10
HETATM   10  N   UNL     1      20.536  47.618  49.170  1.00  0.00    -0.282 NA
HETATM   11  H   UNL     1      20.925  47.410  50.093  1.00  0.00     0.128 HD
BRANCH  10  12
HETATM   12  C   UNL     1      20.433  49.016  49.028  1.00  0.00     0.042 A 
HETATM   13  C   UNL     1      19.143  49.590  48.920  1.00  0.00     0.089 A 
HETATM   14  C   UNL     1      18.990  50.967  48.721  1.00  0.00     0.038 A 
HETATM   15  C   UNL     1      20.112  51.784  48.584  1.00  0.00     0.003 A 
HETATM   16  C   UNL     1      21.384  51.228  48.641  1.00  0.00     0.002 A 
HETATM   17  C   UNL     1      21.542  49.856  48.849  1.00  0.00     0.026 A 
BRANCH  13  18
HETATM   18  O   UNL     1      18.091  48.712  49.063  1.00  0.00    -0.354 OA
HETATM   19  C   UNL     1      16.957  48.962  48.239  1.00  0.00     0.210 C 
ENDBRANCH  13  18
ENDBRANCH  10  12
ENDBRANCH   9  10
ENDBRANCH   6   9
ENDBRANCH   1   5
BRANCH   2  20
HETATM   20  C   UNL     1      25.786  45.439  51.663  1.00  0.00     0.070 A 
HETATM   21  C   UNL     1      26.650  45.701  52.707  1.00  0.00     0.137 A 
HETATM   22  N   UNL     1      27.376  44.554  52.940  1.00  0.00    -0.244 N 
HETATM   23  N   UNL     1      26.969  43.544  52.125  1.00  0.00    -0.179 NA
HETATM   24  C   UNL     1      26.026  44.087  51.359  1.00  0.00     0.157 A 
BRANCH  22  25
HETATM   25  C   UNL     1      28.442  44.354  53.860  1.00  0.00     0.059 A 
HETATM   26  C   UNL     1      28.593  45.176  54.985  1.00  0.00     0.055 A 
HETATM   27  C   UNL     1      29.667  44.965  55.852  1.00  0.00     0.036 A 
HETATM   28 CL   UNL     1      29.871  45.991  57.221  1.00  0.00    -0.084 Cl
HETATM   29  C   UNL     1      30.583  43.938  55.622  1.00  0.00     0.024 A 
HETATM   30  C   UNL     1      30.432  43.116  54.508  1.00  0.00     0.004 A 
HETATM   31  C   UNL     1      29.370  43.325  53.627  1.00  0.00     0.031 A 
ENDBRANCH  22  25
ENDBRANCH   2  20
TORSDOF 7
ENDMDL
MODEL 7
REMARK VINA RESULT:      -8.7      2.375      3.283
REMARK  7 active torsions:
REMARK  status: ('A' for Active; 'I' for Inactive)
REMARK    1  A    between atoms: O_2  and  C_3 
REMARK    2  A    between atoms: C_4  and  N_5 
REMARK    3  A    between atoms: N_5  and  C_6 
REMARK    4  A    between atoms: C_6  and  C_7 
REMARK       I    between atoms: C_7  and  N_8 
REMARK    5  A    between atoms: N_8  and  N_9 
REMARK       I    between atoms: N_9  and  C_10 
REMARK    6  A    between atoms: C_10  and  C_11 
REMARK    7  A    between atoms: N_13  and  C_14 
ROOT
HETATM    1  N   UNL     1      24.579  44.045  49.449  1.00  0.00    -0.263 N 
HETATM    2  C   UNL     1      24.459  43.308  50.619  1.00  0.00     0.273 C 
HETATM    3  O   UNL     1      23.404  42.893  51.086  1.00  0.00    -0.266 OA
HETATM    4  H   UNL     1      25.404  44.626  49.337  1.00  0.00     0.190 HD
ENDROOT
BRANCH   1   5
HETATM    5  N   UNL     1      23.417  44.530  48.830  1.00  0.00    -0.266 N 
HETATM    6  C   UNL     1      23.148  45.894  48.892  1.00  0.00     0.249 C 
HETATM    7  O   UNL     1      23.728  46.689  49.626  1.00  0.00    -0.270 OA
HETATM    8  H   UNL     1      23.125  44.071  47.965  1.00  0.00     0.190 HD
BRANCH   6   9
HETATM    9  C   UNL     1      22.048  46.297  47.906  1.00  0.00     0.197 C 
BRANCH   9  10
HETATM   10  N   UNL     1      22.355  47.615  47.328  1.00  0.00    -0.282 NA
HETATM   11  H   UNL     1      22.228  47.671  46.315  1.00  0.00     0.128 HD
BRANCH  10  12
HETATM   12  C   UNL     1      21.835  48.786  47.914  1.00  0.00     0.042 A 
HETATM   13  C   UNL     1      22.657  49.939  47.961  1.00  0.00     0.089 A 
HETATM   14  C   UNL     1      22.206  51.109  48.584  1.00  0.00     0.038 A 
HETATM   15  C   UNL     1      20.957  51.138  49.203  1.00  0.00     0.003 A 
HETATM   16  C   UNL     1      20.160  50.000  49.205  1.00  0.00     0.002 A 
HETATM   17  C   UNL     1      20.600  48.832  48.578  1.00  0.00     0.026 A 
BRANCH  13  18
HETATM   18  O   UNL     1      23.875  49.823  47.330  1.00  0.00    -0.354 OA
HETATM   19  C   UNL     1      25.021  49.907  48.171  1.00  0.00     0.210 C 
ENDBRANCH  13  18
ENDBRANCH  10  12
ENDBRANCH   9  10
ENDBRANCH   6   9
ENDBRANCH   1   5
BRANCH   2  20
HETATM   20  C   UNL     1      25.738  43.074  51.264  1.00  0.00     0.070 A 
HETATM   21  C   UNL     1      26.218  43.691  52.401  1.00  0.00     0.137 A 
HETATM   22  N   UNL     1      27.475  43.184  52.646  1.00  0.00    -0.244 N 
HETATM   23  N   UNL     1      27.798  42.219  51.745  1.00  0.00    -0.179 NA
HETATM   24  C   UNL     1      26.756  42.169  50.917  1.00  0.00     0.157 A 
BRANCH  22  25
HETATM   25  C   UNL     1      28.399  43.565  53.658  1.00  0.00     0.059 A 
HETATM   26  C   UNL     1      28.113  44.610  54.547  1.00  0.00     0.055 A 
HETATM   27  C   UNL     1      29.057  44.972  55.510  1.00  0.00     0.036 A 
HETATM   28 CL   UNL     1      28.719  46.275  56.586  1.00  0.00    -0.084 Cl
HETATM   29  C   UNL     1      30.275  44.300  55.609  1.00  0.00     0.024 A 
HETATM   30  C   UNL     1      30.560  43.256  54.731  1.00  0.00     0.004 A 
HETATM   31  C   UNL     1      29.630  42.893  53.755  1.00  0.00     0.031 A 
ENDBRANCH  22  25
ENDBRANCH   2  20
TORSDOF 7
ENDMDL
MODEL 8
REMARK VINA RESULT:      -8.3      2.087      2.769
REMARK  7 active torsions:
REMARK  status: ('A' for Active; 'I' for Inactive)
REMARK    1  A    between atoms: O_2  and  C_3 
REMARK    2  A    between atoms: C_4  and  N_5 
REMARK    3  A    between atoms: N_5  and  C_6 
REMARK    4  A    between atoms: C_6  and  C_7 
REMARK       I    between atoms: C_7  and  N_8 
REMARK    5  A    between atoms: N_8  and  N_9 
REMARK       I    between atoms: N_9  and  C_10 
REMARK    6  A    between atoms: C_10  and  C_11 
REMARK    7  A    between atoms: N_13  and  C_14 
ROOT
HETATM    1  N   UNL     1      24.545  46.362  50.356  1.00  0.00    -0.263 N 
HETATM    2  C   UNL     1      24.964  45.214  49.697  1.00  0.00     0.273 C 
HETATM    3  O   UNL     1      24.515  44.809  48.631  1.00  0.00    -0.266 OA
HETATM    4  H   UNL     1      24.707  46.421  51.356  1.00  0.00     0.190 HD
ENDROOT
BRANCH   1   5
HETATM    5  N   UNL     1      23.401  47.031  49.894  1.00  0.00    -0.266 N 
HETATM    6  C   UNL     1      23.532  48.338  49.436  1.00  0.00     0.249 C 
HETATM    7  O   UNL     1      24.527  49.040  49.598  1.00  0.00    -0.270 OA
HETATM    8  H   UNL     1      22.701  46.471  49.404  1.00  0.00     0.190 HD
BRANCH   6   9
HETATM    9  C   UNL     1      22.287  48.797  48.673  1.00  0.00     0.197 C 
BRANCH   9  10
HETATM   10  N   UNL     1      21.169  48.990  49.610  1.00  0.00    -0.282 NA
HETATM   11  H   UNL     1      21.183  49.884  50.106  1.00  0.00     0.128 HD
BRANCH  10  12
HETATM   12  C   UNL     1      19.847  48.719  49.205  1.00  0.00     0.042 A 
HETATM   13  C   UNL     1      18.921  49.790  49.164  1.00  0.00     0.089 A 
HETATM   14  C   UNL     1      17.583  49.561  48.823  1.00  0.00     0.038 A 
HETATM   15  C   UNL     1      17.137  48.266  48.560  1.00  0.00     0.003 A 
HETATM   16  C   UNL     1      18.024  47.200  48.643  1.00  0.00     0.002 A 
HETATM   17  C   UNL     1      19.362  47.423  48.974  1.00  0.00     0.026 A 
BRANCH  13  18
HETATM   18  O   UNL     1      19.444  51.034  49.440  1.00  0.00    -0.354 OA
HETATM   19  C   UNL     1      18.506  52.026  49.844  1.00  0.00     0.210 C 
ENDBRANCH  13  18
ENDBRANCH  10  12
ENDBRANCH   9  10
ENDBRANCH   6   9
ENDBRANCH   1   5
BRANCH   2  20
HETATM   20  C   UNL     1      26.009  44.510  50.416  1.00  0.00     0.070 A 
HETATM   21  C   UNL     1      26.565  44.866  51.629  1.00  0.00     0.137 A 
HETATM   22  N   UNL     1      27.533  43.931  51.929  1.00  0.00    -0.244 N 
HETATM   23  N   UNL     1      27.577  42.953  50.985  1.00  0.00    -0.179 NA
HETATM   24  C   UNL     1      26.670  43.315  50.080  1.00  0.00     0.157 A 
BRANCH  22  25
HETATM   25  C   UNL     1      28.431  43.912  53.031  1.00  0.00     0.059 A 
HETATM   26  C   UNL     1      28.261  44.777  54.121  1.00  0.00     0.055 A 
HETATM   27  C   UNL     1      29.179  44.747  55.173  1.00  0.00     0.036 A 
HETATM   28 CL   UNL     1      28.989  45.828  56.500  1.00  0.00    -0.084 Cl
HETATM   29  C   UNL     1      30.254  43.858  55.161  1.00  0.00     0.024 A 
HETATM   30  C   UNL     1      30.422  42.993  54.082  1.00  0.00     0.004 A 
HETATM   31  C   UNL     1      29.518  43.023  53.018  1.00  0.00     0.031 A 
ENDBRANCH  22  25
ENDBRANCH   2  20
TORSDOF 7
ENDMDL
MODEL 9
REMARK VINA RESULT:      -8.3      5.564      8.449
REMARK  7 active torsions:
REMARK  status: ('A' for Active; 'I' for Inactive)
REMARK    1  A    between atoms: O_2  and  C_3 
REMARK    2  A    between atoms: C_4  and  N_5 
REMARK    3  A    between atoms: N_5  and  C_6 
REMARK    4  A    between atoms: C_6  and  C_7 
REMARK       I    between atoms: C_7  and  N_8 
REMARK    5  A    between atoms: N_8  and  N_9 
REMARK       I    between atoms: N_9  and  C_10 
REMARK    6  A    between atoms: C_10  and  C_11 
REMARK    7  A    between atoms: N_13  and  C_14 
ROOT
HETATM    1  N   UNL     1      26.219  42.915  52.140  1.00  0.00    -0.263 N 
HETATM    2  C   UNL     1      25.674  44.120  52.561  1.00  0.00     0.273 C 
HETATM    3  O   UNL     1      24.581  44.557  52.219  1.00  0.00    -0.266 OA
HETATM    4  H   UNL     1      27.228  42.809  52.184  1.00  0.00     0.190 HD
ENDROOT
BRANCH   1   5
HETATM    5  N   UNL     1      25.587  42.209  51.104  1.00  0.00    -0.266 N 
HETATM    6  C   UNL     1      26.084  42.339  49.811  1.00  0.00     0.249 C 
HETATM    7  O   UNL     1      26.899  43.185  49.455  1.00  0.00    -0.270 OA
HETATM    8  H   UNL     1      25.210  41.288  51.331  1.00  0.00     0.190 HD
BRANCH   6   9
HETATM    9  C   UNL     1      25.509  41.271  48.876  1.00  0.00     0.197 C 
BRANCH   9  10
HETATM   10  N   UNL     1      25.783  39.932  49.419  1.00  0.00    -0.282 NA
HETATM   11  H   UNL     1      25.046  39.245  49.242  1.00  0.00     0.128 HD
BRANCH  10  12
HETATM   12  C   UNL     1      27.032  39.318  49.199  1.00  0.00     0.042 A 
HETATM   13  C   UNL     1      27.156  38.404  48.125  1.00  0.00     0.089 A 
HETATM   14  C   UNL     1      28.360  37.726  47.901  1.00  0.00     0.038 A 
HETATM   15  C   UNL     1      29.441  37.913  48.762  1.00  0.00     0.003 A 
HETATM   16  C   UNL     1      29.319  38.771  49.848  1.00  0.00     0.002 A 
HETATM   17  C   UNL     1      28.123  39.457  50.071  1.00  0.00     0.026 A 
BRANCH  13  18
HETATM   18  O   UNL     1      26.040  38.276  47.326  1.00  0.00    -0.354 OA
HETATM   19  C   UNL     1      26.260  38.409  45.926  1.00  0.00     0.210 C 
ENDBRANCH  13  18
ENDBRANCH  10  12
ENDBRANCH   9  10
ENDBRANCH   6   9
ENDBRANCH   1   5
BRANCH   2  20
HETATM   20  C   UNL     1      26.549  44.841  53.466  1.00  0.00     0.070 A 
HETATM   21  C   UNL     1      27.497  44.298  54.310  1.00  0.00     0.137 A 
HETATM   22  N   UNL     1      28.081  45.339  54.999  1.00  0.00    -0.244 N 
HETATM   23  N   UNL     1      27.586  46.537  54.586  1.00  0.00    -0.179 NA
HETATM   24  C   UNL     1      26.664  46.226  53.677  1.00  0.00     0.157 A 
BRANCH  22  25
HETATM   25  C   UNL     1      29.053  45.278  56.035  1.00  0.00     0.059 A 
HETATM   26  C   UNL     1      30.094  44.340  55.999  1.00  0.00     0.055 A 
HETATM   27  C   UNL     1      31.015  44.294  57.048  1.00  0.00     0.036 A 
HETATM   28 CL   UNL     1      32.279  43.124  57.020  1.00  0.00    -0.084 Cl
HETATM   29  C   UNL     1      30.921  45.177  58.123  1.00  0.00     0.024 A 
HETATM   30  C   UNL     1      29.892  46.115  58.159  1.00  0.00     0.004 A 
HETATM   31  C   UNL     1      28.957  46.162  57.123  1.00  0.00     0.031 A 
ENDBRANCH  22  25
ENDBRANCH   2  20
TORSDOF 7
ENDMDL
MODEL 10
REMARK VINA RESULT:      -7.9      9.557     13.389
REMARK  7 active torsions:
REMARK  status: ('A' for Active; 'I' for Inactive)
REMARK    1  A    between atoms: O_2  and  C_3 
REMARK    2  A    between atoms: C_4  and  N_5 
REMARK    3  A    between atoms: N_5  and  C_6 
REMARK    4  A    between atoms: C_6  and  C_7 
REMARK       I    between atoms: C_7  and  N_8 
REMARK    5  A    between atoms: N_8  and  N_9 
REMARK       I    between atoms: N_9  and  C_10 
REMARK    6  A    between atoms: C_10  and  C_11 
REMARK    7  A    between atoms: N_13  and  C_14 
ROOT
HETATM    1  N   UNL     1      15.461  54.356  51.543  1.00  0.00    -0.263 N 
HETATM    2  C   UNL     1      14.741  53.475  50.748  1.00  0.00     0.273 C 
HETATM    3  O   UNL     1      13.542  53.244  50.858  1.00  0.00    -0.266 OA
HETATM    4  H   UNL     1      16.464  54.218  51.614  1.00  0.00     0.190 HD
ENDROOT
BRANCH   1   5
HETATM    5  N   UNL     1      14.848  54.897  52.683  1.00  0.00    -0.266 N 
HETATM    6  C   UNL     1      14.648  56.273  52.742  1.00  0.00     0.249 C 
HETATM    7  O   UNL     1      15.153  57.088  51.975  1.00  0.00    -0.270 OA
HETATM    8  H   UNL     1      14.122  54.336  53.132  1.00  0.00     0.190 HD
BRANCH   6   9
HETATM    9  C   UNL     1      13.689  56.656  53.873  1.00  0.00     0.197 C 
BRANCH   9  10
HETATM   10  N   UNL     1      14.454  57.008  55.079  1.00  0.00    -0.282 NA
HETATM   11  H   UNL     1      15.468  57.026  54.945  1.00  0.00     0.128 HD
BRANCH  10  12
HETATM   12  C   UNL     1      14.081  58.123  55.856  1.00  0.00     0.042 A 
HETATM   13  C   UNL     1      14.679  59.375  55.571  1.00  0.00     0.089 A 
HETATM   14  C   UNL     1      14.385  60.499  56.352  1.00  0.00     0.038 A 
HETATM   15  C   UNL     1      13.530  60.387  57.448  1.00  0.00     0.003 A 
HETATM   16  C   UNL     1      12.973  59.155  57.768  1.00  0.00     0.002 A 
HETATM   17  C   UNL     1      13.256  58.032  56.987  1.00  0.00     0.026 A 
BRANCH  13  18
HETATM   18  O   UNL     1      15.513  59.396  54.475  1.00  0.00    -0.354 OA
HETATM   19  C   UNL     1      15.146  60.292  53.432  1.00  0.00     0.210 C 
ENDBRANCH  13  18
ENDBRANCH  10  12
ENDBRANCH   9  10
ENDBRANCH   6   9
ENDBRANCH   1   5
BRANCH   2  20
HETATM   20  C   UNL     1      15.567  52.824  49.748  1.00  0.00     0.070 A 
HETATM   21  C   UNL     1      16.824  52.285  49.935  1.00  0.00     0.137 A 
HETATM   22  N   UNL     1      17.245  51.791  48.720  1.00  0.00    -0.244 N 
HETATM   23  N   UNL     1      16.281  51.936  47.772  1.00  0.00    -0.179 NA
HETATM   24  C   UNL     1      15.287  52.564  48.395  1.00  0.00     0.157 A 
BRANCH  22  25
HETATM   25  C   UNL     1      18.502  51.213  48.390  1.00  0.00     0.059 A 
HETATM   26  C   UNL     1      18.584  49.964  47.759  1.00  0.00     0.055 A 
HETATM   27  C   UNL     1      19.837  49.418  47.474  1.00  0.00     0.036 A 
HETATM   28 CL   UNL     1      19.941  47.871  46.724  1.00  0.00    -0.084 Cl
HETATM   29  C   UNL     1      21.008  50.105  47.795  1.00  0.00     0.024 A 
HETATM   30  C   UNL     1      20.931  51.349  48.417  1.00  0.00     0.004 A 
HETATM   31  C   UNL     1      19.683  51.900  48.718  1.00  0.00     0.031 A 
ENDBRANCH  22  25
ENDBRANCH   2  20
TORSDOF 7
ENDMDL
