MODEL 1
REMARK VINA RESULT:      -9.6      0.000      0.000
REMARK  10 active torsions:
REMARK  status: ('A' for Active; 'I' for Inactive)
REMARK    1  A    between atoms: C_6  and  C_7 
REMARK    2  A    between atoms: C_7  and  N_8 
REMARK    3  A    between atoms: N_8  and  C_10 
REMARK    4  A    between atoms: N_8  and  C_20 
REMARK    5  A    between atoms: C_10  and  C_11 
REMARK    6  A    between atoms: N_12  and  C_13 
REMARK    7  A    between atoms: C_20  and  C_21 
REMARK    8  A    between atoms: C_21  and  C_22 
REMARK    9  A    between atoms: C_22  and  N_23 
REMARK   10  A    between atoms: C_30  and  O_31 
ROOT
HETATM    1  N   UNL     1      26.550  43.138  52.297  1.00  0.00    -0.060 N 
HETATM    2  H   UNL     1      26.666  42.585  53.158  1.00  0.00     0.280 HD
ENDROOT
BRANCH   1   3
HETATM    3  C   UNL     1      27.863  43.930  52.196  1.00  0.00     0.278 C 
BRANCH   3   4
HETATM    4  C   UNL     1      28.700  44.055  53.428  1.00  0.00     0.021 A 
HETATM    5  C   UNL     1      28.421  45.006  54.411  1.00  0.00     0.027 A 
HETATM    6  C   UNL     1      29.190  45.064  55.586  1.00  0.00    -0.006 A 
HETATM    7  C   UNL     1      30.251  44.144  55.747  1.00  0.00     0.075 A 
HETATM    8  C   UNL     1      28.901  46.004  56.589  1.00  0.00     0.014 A 
HETATM    9  C   UNL     1      31.008  44.201  56.924  1.00  0.00    -0.032 A 
HETATM   10  N   UNL     1      30.519  43.230  54.791  1.00  0.00    -0.223 NA
HETATM   11  C   UNL     1      32.120  43.218  57.188  1.00  0.00     0.050 C 
HETATM   12  C   UNL     1      30.702  45.139  57.924  1.00  0.00     0.009 A 
HETATM   13  C   UNL     1      29.656  46.038  57.756  1.00  0.00     0.002 A 
HETATM   14  C   UNL     1      29.751  43.205  53.701  1.00  0.00     0.170 A 
BRANCH  14  15
HETATM   15  O   UNL     1      30.109  42.218  52.845  1.00  0.00    -0.344 OA
HETATM   16  H   UNL     1      29.431  42.379  52.151  1.00  0.00     0.219 HD
ENDBRANCH  14  15
ENDBRANCH   3   4
ENDBRANCH   1   3
BRANCH   1  17
HETATM   17  C   UNL     1      25.349  44.048  52.670  1.00  0.00     0.316 C 
BRANCH  17  18
HETATM   18  C   UNL     1      24.535  44.347  51.471  1.00  0.00     0.163 A 
HETATM   19  N   UNL     1      24.618  45.412  50.602  1.00  0.00    -0.253 N 
HETATM   20  N   UNL     1      23.618  45.285  49.705  1.00  0.00    -0.002 NA
HETATM   21  N   UNL     1      23.008  44.145  49.975  1.00  0.00     0.018 NA
HETATM   22  N   UNL     1      23.572  43.542  51.055  1.00  0.00    -0.145 NA
BRANCH  19  23
HETATM   23  C   UNL     1      25.520  46.568  50.480  1.00  0.00     0.042 C 
HETATM   24  C   UNL     1      26.008  47.128  51.829  1.00  0.00     0.039 C 
HETATM   25  C   UNL     1      26.780  46.155  49.683  1.00  0.00     0.039 C 
HETATM   26  C   UNL     1      24.795  47.700  49.727  1.00  0.00     0.039 C 
ENDBRANCH  19  23
ENDBRANCH  17  18
ENDBRANCH   1  17
BRANCH   1  27
HETATM   27  C   UNL     1      26.222  42.230  51.139  1.00  0.00     0.237 C 
BRANCH  27  28
HETATM   28  C   UNL     1      27.294  41.174  50.812  1.00  0.00     0.055 C 
BRANCH  28  29
HETATM   29  C   UNL     1      26.758  39.879  50.199  1.00  0.00     0.236 C 
BRANCH  29  30
HETATM   30  N   UNL     1      27.872  38.864  50.022  1.00  0.00    -0.067 N 
HETATM   31  H   UNL     1      27.494  37.911  50.125  1.00  0.00     0.280 HD
HETATM   32  C   UNL     1      28.477  38.924  48.605  1.00  0.00     0.261 C 
HETATM   33  C   UNL     1      29.575  37.865  48.466  1.00  0.00     0.195 C 
HETATM   34  O   UNL     1      30.593  38.063  49.449  1.00  0.00    -0.388 OA
HETATM   35  C   UNL     1      30.085  37.940  50.779  1.00  0.00     0.195 C 
HETATM   36  C   UNL     1      29.012  39.003  51.048  1.00  0.00     0.261 C 
ENDBRANCH  29  30
ENDBRANCH  28  29
ENDBRANCH  27  28
ENDBRANCH   1  27
TORSDOF 10
ENDMDL
MODEL 2
REMARK VINA RESULT:      -9.4      1.589      2.148
REMARK  10 active torsions:
REMARK  status: ('A' for Active; 'I' for Inactive)
REMARK    1  A    between atoms: C_6  and  C_7 
REMARK    2  A    between atoms: C_7  and  N_8 
REMARK    3  A    between atoms: N_8  and  C_10 
REMARK    4  A    between atoms: N_8  and  C_20 
REMARK    5  A    between atoms: C_10  and  C_11 
REMARK    6  A    between atoms: N_12  and  C_13 
REMARK    7  A    between atoms: C_20  and  C_21 
REMARK    8  A    between atoms: C_21  and  C_22 
REMARK    9  A    between atoms: C_22  and  N_23 
REMARK   10  A    between atoms: C_30  and  O_31 
ROOT
HETATM    1  N   UNL     1      26.665  43.059  52.506  1.00  0.00    -0.060 N 
HETATM    2  H   UNL     1      26.543  42.918  53.519  1.00  0.00     0.280 HD
ENDROOT
BRANCH   1   3
HETATM    3  C   UNL     1      27.922  43.937  52.410  1.00  0.00     0.278 C 
BRANCH   3   4
HETATM    4  C   UNL     1      28.790  44.050  53.621  1.00  0.00     0.021 A 
HETATM    5  C   UNL     1      28.529  44.983  54.627  1.00  0.00     0.027 A 
HETATM    6  C   UNL     1      29.327  45.030  55.782  1.00  0.00    -0.006 A 
HETATM    7  C   UNL     1      30.399  44.115  55.901  1.00  0.00     0.075 A 
HETATM    8  C   UNL     1      29.058  45.952  56.807  1.00  0.00     0.014 A 
HETATM    9  C   UNL     1      31.186  44.160  57.059  1.00  0.00    -0.032 A 
HETATM   10  N   UNL     1      30.649  43.218  54.925  1.00  0.00    -0.223 NA
HETATM   11  C   UNL     1      32.311  43.182  57.280  1.00  0.00     0.050 C 
HETATM   12  C   UNL     1      30.898  45.080  58.082  1.00  0.00     0.009 A 
HETATM   13  C   UNL     1      29.842  45.974  57.954  1.00  0.00     0.002 A 
HETATM   14  C   UNL     1      29.853  43.203  53.854  1.00  0.00     0.170 A 
BRANCH  14  15
HETATM   15  O   UNL     1      30.197  42.232  52.975  1.00  0.00    -0.344 OA
HETATM   16  H   UNL     1      29.507  41.574  53.214  1.00  0.00     0.219 HD
ENDBRANCH  14  15
ENDBRANCH   3   4
ENDBRANCH   1   3
BRANCH   1  17
HETATM   17  C   UNL     1      25.377  43.848  52.145  1.00  0.00     0.316 C 
BRANCH  17  18
HETATM   18  C   UNL     1      25.503  45.262  52.559  1.00  0.00     0.163 A 
HETATM   19  N   UNL     1      25.731  46.381  51.788  1.00  0.00    -0.253 N 
HETATM   20  N   UNL     1      25.837  47.437  52.623  1.00  0.00    -0.002 NA
HETATM   21  N   UNL     1      25.601  46.982  53.841  1.00  0.00     0.018 NA
HETATM   22  N   UNL     1      25.376  45.641  53.819  1.00  0.00    -0.145 NA
BRANCH  19  23
HETATM   23  C   UNL     1      25.869  46.621  50.344  1.00  0.00     0.042 C 
HETATM   24  C   UNL     1      26.805  45.627  49.630  1.00  0.00     0.039 C 
HETATM   25  C   UNL     1      24.483  46.498  49.667  1.00  0.00     0.039 C 
HETATM   26  C   UNL     1      26.419  48.042  50.115  1.00  0.00     0.039 C 
ENDBRANCH  19  23
ENDBRANCH  17  18
ENDBRANCH   1  17
BRANCH   1  27
HETATM   27  C   UNL     1      26.718  41.728  51.800  1.00  0.00     0.237 C 
BRANCH  27  28
HETATM   28  C   UNL     1      27.678  41.664  50.598  1.00  0.00     0.055 C 
BRANCH  28  29
HETATM   29  C   UNL     1      28.542  40.403  50.528  1.00  0.00     0.236 C 
BRANCH  29  30
HETATM   30  N   UNL     1      28.722  39.951  49.092  1.00  0.00    -0.067 N 
HETATM   31  H   UNL     1      29.705  40.072  48.809  1.00  0.00     0.280 HD
HETATM   32  C   UNL     1      28.422  38.447  48.926  1.00  0.00     0.261 C 
HETATM   33  C   UNL     1      28.645  38.032  47.468  1.00  0.00     0.195 C 
HETATM   34  O   UNL     1      27.819  38.803  46.594  1.00  0.00    -0.388 OA
HETATM   35  C   UNL     1      28.119  40.198  46.663  1.00  0.00     0.195 C 
HETATM   36  C   UNL     1      27.869  40.735  48.078  1.00  0.00     0.261 C 
ENDBRANCH  29  30
ENDBRANCH  28  29
ENDBRANCH  27  28
ENDBRANCH   1  27
TORSDOF 10
ENDMDL
MODEL 3
REMARK VINA RESULT:      -9.4      3.068      6.260
REMARK  10 active torsions:
REMARK  status: ('A' for Active; 'I' for Inactive)
REMARK    1  A    between atoms: C_6  and  C_7 
REMARK    2  A    between atoms: C_7  and  N_8 
REMARK    3  A    between atoms: N_8  and  C_10 
REMARK    4  A    between atoms: N_8  and  C_20 
REMARK    5  A    between atoms: C_10  and  C_11 
REMARK    6  A    between atoms: N_12  and  C_13 
REMARK    7  A    between atoms: C_20  and  C_21 
REMARK    8  A    between atoms: C_21  and  C_22 
REMARK    9  A    between atoms: C_22  and  N_23 
REMARK   10  A    between atoms: C_30  and  O_31 
ROOT
HETATM    1  N   UNL     1      26.891  44.649  51.739  1.00  0.00    -0.060 N 
HETATM    2  H   UNL     1      27.907  44.476  51.738  1.00  0.00     0.280 HD
ENDROOT
BRANCH   1   3
HETATM    3  C   UNL     1      26.673  45.530  52.978  1.00  0.00     0.278 C 
BRANCH   3   4
HETATM    4  C   UNL     1      27.639  45.394  54.110  1.00  0.00     0.021 A 
HETATM    5  C   UNL     1      28.568  44.353  54.161  1.00  0.00     0.027 A 
HETATM    6  C   UNL     1      29.503  44.282  55.208  1.00  0.00    -0.006 A 
HETATM    7  C   UNL     1      29.479  45.283  56.207  1.00  0.00     0.075 A 
HETATM    8  C   UNL     1      30.454  43.249  55.255  1.00  0.00     0.014 A 
HETATM    9  C   UNL     1      30.419  45.211  57.243  1.00  0.00    -0.032 A 
HETATM   10  N   UNL     1      28.576  46.284  56.155  1.00  0.00    -0.223 NA
HETATM   11  C   UNL     1      30.488  46.271  58.312  1.00  0.00     0.050 C 
HETATM   12  C   UNL     1      31.372  44.179  57.271  1.00  0.00     0.009 A 
HETATM   13  C   UNL     1      31.387  43.201  56.284  1.00  0.00     0.002 A 
HETATM   14  C   UNL     1      27.720  46.316  55.132  1.00  0.00     0.170 A 
BRANCH  14  15
HETATM   15  O   UNL     1      26.898  47.392  55.188  1.00  0.00    -0.344 OA
HETATM   16  H   UNL     1      27.043  47.632  56.130  1.00  0.00     0.219 HD
ENDBRANCH  14  15
ENDBRANCH   3   4
ENDBRANCH   1   3
BRANCH   1  17
HETATM   17  C   UNL     1      26.331  43.214  51.939  1.00  0.00     0.316 C 
BRANCH  17  18
HETATM   18  C   UNL     1      25.083  43.033  51.166  1.00  0.00     0.163 A 
HETATM   19  N   UNL     1      24.845  42.242  50.063  1.00  0.00    -0.253 N 
HETATM   20  N   UNL     1      23.574  42.464  49.669  1.00  0.00    -0.002 NA
HETATM   21  N   UNL     1      23.043  43.295  50.548  1.00  0.00     0.018 NA
HETATM   22  N   UNL     1      23.958  43.646  51.491  1.00  0.00    -0.145 NA
BRANCH  19  23
HETATM   23  C   UNL     1      25.652  41.278  49.299  1.00  0.00     0.042 C 
HETATM   24  C   UNL     1      26.166  40.090  50.133  1.00  0.00     0.039 C 
HETATM   25  C   UNL     1      24.798  40.687  48.153  1.00  0.00     0.039 C 
HETATM   26  C   UNL     1      26.873  42.002  48.698  1.00  0.00     0.039 C 
ENDBRANCH  19  23
ENDBRANCH  17  18
ENDBRANCH   1  17
BRANCH   1  27
HETATM   27  C   UNL     1      26.465  45.232  50.415  1.00  0.00     0.237 C 
BRANCH  27  28
HETATM   28  C   UNL     1      26.073  46.721  50.453  1.00  0.00     0.055 C 
BRANCH  28  29
HETATM   29  C   UNL     1      24.570  46.994  50.385  1.00  0.00     0.236 C 
BRANCH  29  30
HETATM   30  N   UNL     1      24.291  48.298  49.661  1.00  0.00    -0.067 N 
HETATM   31  H   UNL     1      24.074  49.037  50.346  1.00  0.00     0.280 HD
HETATM   32  C   UNL     1      25.529  48.795  48.888  1.00  0.00     0.261 C 
HETATM   33  C   UNL     1      25.208  50.126  48.198  1.00  0.00     0.195 C 
HETATM   34  O   UNL     1      24.095  49.979  47.314  1.00  0.00    -0.388 OA
HETATM   35  C   UNL     1      22.908  49.590  48.007  1.00  0.00     0.195 C 
HETATM   36  C   UNL     1      23.100  48.230  48.689  1.00  0.00     0.261 C 
ENDBRANCH  29  30
ENDBRANCH  28  29
ENDBRANCH  27  28
ENDBRANCH   1  27
TORSDOF 10
ENDMDL
MODEL 4
REMARK VINA RESULT:      -9.2      3.808      7.074
REMARK  10 active torsions:
REMARK  status: ('A' for Active; 'I' for Inactive)
REMARK    1  A    between atoms: C_6  and  C_7 
REMARK    2  A    between atoms: C_7  and  N_8 
REMARK    3  A    between atoms: N_8  and  C_10 
REMARK    4  A    between atoms: N_8  and  C_20 
REMARK    5  A    between atoms: C_10  and  C_11 
REMARK    6  A    between atoms: N_12  and  C_13 
REMARK    7  A    between atoms: C_20  and  C_21 
REMARK    8  A    between atoms: C_21  and  C_22 
REMARK    9  A    between atoms: C_22  and  N_23 
REMARK   10  A    between atoms: C_30  and  O_31 
ROOT
HETATM    1  N   UNL     1      26.001  46.127  51.827  1.00  0.00    -0.060 N 
HETATM    2  H   UNL     1      26.959  45.759  51.735  1.00  0.00     0.280 HD
ENDROOT
BRANCH   1   3
HETATM    3  C   UNL     1      25.932  46.598  53.288  1.00  0.00     0.278 C 
BRANCH   3   4
HETATM    4  C   UNL     1      27.029  46.177  54.211  1.00  0.00     0.021 A 
HETATM    5  C   UNL     1      27.807  45.045  53.957  1.00  0.00     0.027 A 
HETATM    6  C   UNL     1      28.869  44.704  54.812  1.00  0.00    -0.006 A 
HETATM    7  C   UNL     1      29.129  45.529  55.931  1.00  0.00     0.075 A 
HETATM    8  C   UNL     1      29.669  43.580  54.552  1.00  0.00     0.014 A 
HETATM    9  C   UNL     1      30.195  45.189  56.774  1.00  0.00    -0.032 A 
HETATM   10  N   UNL     1      28.371  46.618  56.173  1.00  0.00    -0.223 NA
HETATM   11  C   UNL     1      30.564  46.049  57.955  1.00  0.00     0.050 C 
HETATM   12  C   UNL     1      30.994  44.067  56.497  1.00  0.00     0.009 A 
HETATM   13  C   UNL     1      30.730  43.265  55.393  1.00  0.00     0.002 A 
HETATM   14  C   UNL     1      27.384  46.909  55.324  1.00  0.00     0.170 A 
BRANCH  14  15
HETATM   15  O   UNL     1      26.732  48.045  55.668  1.00  0.00    -0.344 OA
HETATM   16  H   UNL     1      26.857  47.991  56.641  1.00  0.00     0.219 HD
ENDBRANCH  14  15
ENDBRANCH   3   4
ENDBRANCH   1   3
BRANCH   1  17
HETATM   17  C   UNL     1      25.153  44.849  51.587  1.00  0.00     0.316 C 
BRANCH  17  18
HETATM   18  C   UNL     1      25.813  43.967  50.599  1.00  0.00     0.163 A 
HETATM   19  N   UNL     1      25.260  43.253  49.559  1.00  0.00    -0.253 N 
HETATM   20  N   UNL     1      26.251  42.542  48.981  1.00  0.00    -0.002 NA
HETATM   21  N   UNL     1      27.369  42.877  49.598  1.00  0.00     0.018 NA
HETATM   22  N   UNL     1      27.120  43.771  50.593  1.00  0.00    -0.145 NA
BRANCH  19  23
HETATM   23  C   UNL     1      23.902  43.132  49.005  1.00  0.00     0.042 C 
HETATM   24  C   UNL     1      22.786  43.178  50.066  1.00  0.00     0.039 C 
HETATM   25  C   UNL     1      23.639  44.300  48.026  1.00  0.00     0.039 C 
HETATM   26  C   UNL     1      23.782  41.797  48.245  1.00  0.00     0.039 C 
ENDBRANCH  19  23
ENDBRANCH  17  18
ENDBRANCH   1  17
BRANCH   1  27
HETATM   27  C   UNL     1      25.745  47.171  50.770  1.00  0.00     0.237 C 
BRANCH  27  28
HETATM   28  C   UNL     1      24.309  47.199  50.214  1.00  0.00     0.055 C 
BRANCH  28  29
HETATM   29  C   UNL     1      23.972  48.421  49.358  1.00  0.00     0.236 C 
BRANCH  29  30
HETATM   30  N   UNL     1      22.568  48.915  49.652  1.00  0.00    -0.067 N 
HETATM   31  H   UNL     1      22.320  48.697  50.628  1.00  0.00     0.280 HD
HETATM   32  C   UNL     1      22.466  50.448  49.527  1.00  0.00     0.261 C 
HETATM   33  C   UNL     1      21.041  50.902  49.861  1.00  0.00     0.195 C 
HETATM   34  O   UNL     1      20.097  50.269  48.995  1.00  0.00    -0.388 OA
HETATM   35  C   UNL     1      20.108  48.847  49.137  1.00  0.00     0.195 C 
HETATM   36  C   UNL     1      21.483  48.278  48.765  1.00  0.00     0.261 C 
ENDBRANCH  29  30
ENDBRANCH  28  29
ENDBRANCH  27  28
ENDBRANCH   1  27
TORSDOF 10
ENDMDL
MODEL 5
REMARK VINA RESULT:      -9.0      2.291      6.427
REMARK  10 active torsions:
REMARK  status: ('A' for Active; 'I' for Inactive)
REMARK    1  A    between atoms: C_6  and  C_7 
REMARK    2  A    between atoms: C_7  and  N_8 
REMARK    3  A    between atoms: N_8  and  C_10 
REMARK    4  A    between atoms: N_8  and  C_20 
REMARK    5  A    between atoms: C_10  and  C_11 
REMARK    6  A    between atoms: N_12  and  C_13 
REMARK    7  A    between atoms: C_20  and  C_21 
REMARK    8  A    between atoms: C_21  and  C_22 
REMARK    9  A    between atoms: C_22  and  N_23 
REMARK   10  A    between atoms: C_30  and  O_31 
ROOT
HETATM    1  N   UNL     1      27.142  41.876  50.552  1.00  0.00    -0.060 N 
HETATM    2  H   UNL     1      28.149  41.730  50.709  1.00  0.00     0.280 HD
ENDROOT
BRANCH   1   3
HETATM    3  C   UNL     1      26.616  42.296  51.933  1.00  0.00     0.278 C 
BRANCH   3   4
HETATM    4  C   UNL     1      27.597  42.845  52.917  1.00  0.00     0.021 A 
HETATM    5  C   UNL     1      27.496  44.151  53.402  1.00  0.00     0.027 A 
HETATM    6  C   UNL     1      28.398  44.624  54.370  1.00  0.00    -0.006 A 
HETATM    7  C   UNL     1      29.410  43.753  54.837  1.00  0.00     0.075 A 
HETATM    8  C   UNL     1      28.290  45.929  54.878  1.00  0.00     0.014 A 
HETATM    9  C   UNL     1      30.300  44.227  55.808  1.00  0.00    -0.032 A 
HETATM   10  N   UNL     1      29.505  42.494  54.361  1.00  0.00    -0.223 NA
HETATM   11  C   UNL     1      31.369  43.339  56.390  1.00  0.00     0.050 C 
HETATM   12  C   UNL     1      30.174  45.531  56.316  1.00  0.00     0.009 A 
HETATM   13  C   UNL     1      29.176  46.379  55.850  1.00  0.00     0.002 A 
HETATM   14  C   UNL     1      28.615  42.086  53.454  1.00  0.00     0.170 A 
BRANCH  14  15
HETATM   15  O   UNL     1      28.807  40.795  53.094  1.00  0.00    -0.344 OA
HETATM   16  H   UNL     1      27.945  40.433  53.400  1.00  0.00     0.219 HD
ENDBRANCH  14  15
ENDBRANCH   3   4
ENDBRANCH   1   3
BRANCH   1  17
HETATM   17  C   UNL     1      26.677  40.447  50.163  1.00  0.00     0.316 C 
BRANCH  17  18
HETATM   18  C   UNL     1      27.831  39.628  49.730  1.00  0.00     0.163 A 
HETATM   19  N   UNL     1      28.181  39.212  48.464  1.00  0.00    -0.253 N 
HETATM   20  N   UNL     1      29.273  38.427  48.580  1.00  0.00    -0.002 NA
HETATM   21  N   UNL     1      29.614  38.437  49.857  1.00  0.00     0.018 NA
HETATM   22  N   UNL     1      28.742  39.188  50.581  1.00  0.00    -0.145 NA
BRANCH  19  23
HETATM   23  C   UNL     1      27.633  39.445  47.119  1.00  0.00     0.042 C 
HETATM   24  C   UNL     1      26.095  39.387  47.051  1.00  0.00     0.039 C 
HETATM   25  C   UNL     1      28.050  40.852  46.629  1.00  0.00     0.039 C 
HETATM   26  C   UNL     1      28.194  38.386  46.152  1.00  0.00     0.039 C 
ENDBRANCH  19  23
ENDBRANCH  17  18
ENDBRANCH   1  17
BRANCH   1  27
HETATM   27  C   UNL     1      26.930  42.856  49.425  1.00  0.00     0.237 C 
BRANCH  27  28
HETATM   28  C   UNL     1      26.011  44.045  49.757  1.00  0.00     0.055 C 
BRANCH  28  29
HETATM   29  C   UNL     1      26.731  45.379  49.968  1.00  0.00     0.236 C 
BRANCH  29  30
HETATM   30  N   UNL     1      25.899  46.531  49.438  1.00  0.00    -0.067 N 
HETATM   31  H   UNL     1      25.732  46.405  48.429  1.00  0.00     0.280 HD
HETATM   32  C   UNL     1      24.502  46.571  50.090  1.00  0.00     0.261 C 
HETATM   33  C   UNL     1      23.690  47.731  49.504  1.00  0.00     0.195 C 
HETATM   34  O   UNL     1      24.368  48.972  49.706  1.00  0.00    -0.388 OA
HETATM   35  C   UNL     1      25.638  49.002  49.052  1.00  0.00     0.195 C 
HETATM   36  C   UNL     1      26.560  47.910  49.610  1.00  0.00     0.261 C 
ENDBRANCH  29  30
ENDBRANCH  28  29
ENDBRANCH  27  28
ENDBRANCH   1  27
TORSDOF 10
ENDMDL
MODEL 6
REMARK VINA RESULT:      -9.0      3.130      6.411
REMARK  10 active torsions:
REMARK  status: ('A' for Active; 'I' for Inactive)
REMARK    1  A    between atoms: C_6  and  C_7 
REMARK    2  A    between atoms: C_7  and  N_8 
REMARK    3  A    between atoms: N_8  and  C_10 
REMARK    4  A    between atoms: N_8  and  C_20 
REMARK    5  A    between atoms: C_10  and  C_11 
REMARK    6  A    between atoms: N_12  and  C_13 
REMARK    7  A    between atoms: C_20  and  C_21 
REMARK    8  A    between atoms: C_21  and  C_22 
REMARK    9  A    between atoms: C_22  and  N_23 
REMARK   10  A    between atoms: C_30  and  O_31 
ROOT
HETATM    1  N   UNL     1      25.950  45.449  52.066  1.00  0.00    -0.060 N 
HETATM    2  H   UNL     1      26.858  44.982  51.928  1.00  0.00     0.280 HD
ENDROOT
BRANCH   1   3
HETATM    3  C   UNL     1      26.221  46.438  53.211  1.00  0.00     0.278 C 
BRANCH   3   4
HETATM    4  C   UNL     1      27.260  46.071  54.220  1.00  0.00     0.021 A 
HETATM    5  C   UNL     1      28.080  44.952  54.055  1.00  0.00     0.027 A 
HETATM    6  C   UNL     1      29.087  44.663  54.991  1.00  0.00    -0.006 A 
HETATM    7  C   UNL     1      29.249  45.525  56.101  1.00  0.00     0.075 A 
HETATM    8  C   UNL     1      29.929  43.551  54.821  1.00  0.00     0.014 A 
HETATM    9  C   UNL     1      30.261  45.236  57.025  1.00  0.00    -0.032 A 
HETATM   10  N   UNL     1      28.452  46.601  56.257  1.00  0.00    -0.223 NA
HETATM   11  C   UNL     1      30.528  46.138  58.202  1.00  0.00     0.050 C 
HETATM   12  C   UNL     1      31.104  44.127  56.837  1.00  0.00     0.009 A 
HETATM   13  C   UNL     1      30.936  43.287  55.743  1.00  0.00     0.002 A 
HETATM   14  C   UNL     1      27.520  46.843  55.333  1.00  0.00     0.170 A 
BRANCH  14  15
HETATM   15  O   UNL     1      26.819  47.971  55.596  1.00  0.00    -0.344 OA
HETATM   16  H   UNL     1      26.585  47.778  56.531  1.00  0.00     0.219 HD
ENDBRANCH  14  15
ENDBRANCH   3   4
ENDBRANCH   1   3
BRANCH   1  17
HETATM   17  C   UNL     1      25.056  44.264  52.521  1.00  0.00     0.316 C 
BRANCH  17  18
HETATM   18  C   UNL     1      24.883  43.294  51.418  1.00  0.00     0.163 A 
HETATM   19  N   UNL     1      25.813  42.466  50.828  1.00  0.00    -0.253 N 
HETATM   20  N   UNL     1      25.198  41.816  49.818  1.00  0.00    -0.002 NA
HETATM   21  N   UNL     1      23.928  42.178  49.851  1.00  0.00     0.018 NA
HETATM   22  N   UNL     1      23.710  43.080  50.845  1.00  0.00    -0.145 NA
BRANCH  19  23
HETATM   23  C   UNL     1      27.235  42.181  51.074  1.00  0.00     0.042 C 
HETATM   24  C   UNL     1      28.155  43.408  50.924  1.00  0.00     0.039 C 
HETATM   25  C   UNL     1      27.413  41.661  52.520  1.00  0.00     0.039 C 
HETATM   26  C   UNL     1      27.715  41.102  50.086  1.00  0.00     0.039 C 
ENDBRANCH  19  23
ENDBRANCH  17  18
ENDBRANCH   1  17
BRANCH   1  27
HETATM   27  C   UNL     1      25.469  46.041  50.766  1.00  0.00     0.237 C 
BRANCH  27  28
HETATM   28  C   UNL     1      24.891  47.464  50.869  1.00  0.00     0.055 C 
BRANCH  28  29
HETATM   29  C   UNL     1      24.297  48.015  49.572  1.00  0.00     0.236 C 
BRANCH  29  30
HETATM   30  N   UNL     1      22.816  47.700  49.481  1.00  0.00    -0.067 N 
HETATM   31  H   UNL     1      22.478  47.348  50.388  1.00  0.00     0.280 HD
HETATM   32  C   UNL     1      21.982  48.964  49.187  1.00  0.00     0.261 C 
HETATM   33  C   UNL     1      20.494  48.601  49.133  1.00  0.00     0.195 C 
HETATM   34  O   UNL     1      20.255  47.605  48.137  1.00  0.00    -0.388 OA
HETATM   35  C   UNL     1      20.953  46.390  48.414  1.00  0.00     0.195 C 
HETATM   36  C   UNL     1      22.468  46.629  48.431  1.00  0.00     0.261 C 
ENDBRANCH  29  30
ENDBRANCH  28  29
ENDBRANCH  27  28
ENDBRANCH   1  27
TORSDOF 10
ENDMDL
MODEL 7
REMARK VINA RESULT:      -8.8      2.361      6.028
REMARK  10 active torsions:
REMARK  status: ('A' for Active; 'I' for Inactive)
REMARK    1  A    between atoms: C_6  and  C_7 
REMARK    2  A    between atoms: C_7  and  N_8 
REMARK    3  A    between atoms: N_8  and  C_10 
REMARK    4  A    between atoms: N_8  and  C_20 
REMARK    5  A    between atoms: C_10  and  C_11 
REMARK    6  A    between atoms: N_12  and  C_13 
REMARK    7  A    between atoms: C_20  and  C_21 
REMARK    8  A    between atoms: C_21  and  C_22 
REMARK    9  A    between atoms: C_22  and  N_23 
REMARK   10  A    between atoms: C_30  and  O_31 
ROOT
HETATM    1  N   UNL     1      27.137  41.422  50.830  1.00  0.00    -0.060 N 
HETATM    2  H   UNL     1      27.097  42.451  50.829  1.00  0.00     0.280 HD
ENDROOT
BRANCH   1   3
HETATM    3  C   UNL     1      27.520  41.076  52.277  1.00  0.00     0.278 C 
BRANCH   3   4
HETATM    4  C   UNL     1      27.909  42.197  53.185  1.00  0.00     0.021 A 
HETATM    5  C   UNL     1      29.134  42.205  53.857  1.00  0.00     0.027 A 
HETATM    6  C   UNL     1      29.499  43.299  54.660  1.00  0.00    -0.006 A 
HETATM    7  C   UNL     1      28.600  44.385  54.774  1.00  0.00     0.075 A 
HETATM    8  C   UNL     1      30.738  43.325  55.322  1.00  0.00     0.014 A 
HETATM    9  C   UNL     1      28.974  45.476  55.569  1.00  0.00    -0.032 A 
HETATM   10  N   UNL     1      27.417  44.369  54.127  1.00  0.00    -0.223 NA
HETATM   11  C   UNL     1      28.091  46.691  55.695  1.00  0.00     0.050 C 
HETATM   12  C   UNL     1      30.221  45.494  56.216  1.00  0.00     0.009 A 
HETATM   13  C   UNL     1      31.096  44.422  56.096  1.00  0.00     0.002 A 
HETATM   14  C   UNL     1      27.123  43.315  53.364  1.00  0.00     0.170 A 
BRANCH  14  15
HETATM   15  O   UNL     1      25.925  43.449  52.747  1.00  0.00    -0.344 OA
HETATM   16  H   UNL     1      26.113  44.276  52.250  1.00  0.00     0.219 HD
ENDBRANCH  14  15
ENDBRANCH   3   4
ENDBRANCH   1   3
BRANCH   1  17
HETATM   17  C   UNL     1      28.304  41.156  49.841  1.00  0.00     0.316 C 
BRANCH  17  18
HETATM   18  C   UNL     1      28.424  39.708  49.560  1.00  0.00     0.163 A 
HETATM   19  N   UNL     1      28.087  39.009  48.421  1.00  0.00    -0.253 N 
HETATM   20  N   UNL     1      28.313  37.700  48.666  1.00  0.00    -0.002 NA
HETATM   21  N   UNL     1      28.842  37.626  49.874  1.00  0.00     0.018 NA
HETATM   22  N   UNL     1      28.933  38.860  50.437  1.00  0.00    -0.145 NA
BRANCH  19  23
HETATM   23  C   UNL     1      27.569  39.390  47.098  1.00  0.00     0.042 C 
HETATM   24  C   UNL     1      26.032  39.409  47.009  1.00  0.00     0.039 C 
HETATM   25  C   UNL     1      28.058  40.815  46.746  1.00  0.00     0.039 C 
HETATM   26  C   UNL     1      28.096  38.399  46.043  1.00  0.00     0.039 C 
ENDBRANCH  19  23
ENDBRANCH  17  18
ENDBRANCH   1  17
BRANCH   1  27
HETATM   27  C   UNL     1      25.837  40.852  50.323  1.00  0.00     0.237 C 
BRANCH  27  28
HETATM   28  C   UNL     1      24.787  41.896  49.898  1.00  0.00     0.055 C 
BRANCH  28  29
HETATM   29  C   UNL     1      25.100  42.632  48.594  1.00  0.00     0.236 C 
BRANCH  29  30
HETATM   30  N   UNL     1      25.191  44.128  48.828  1.00  0.00    -0.067 N 
HETATM   31  H   UNL     1      25.194  44.622  47.924  1.00  0.00     0.280 HD
HETATM   32  C   UNL     1      23.963  44.661  49.592  1.00  0.00     0.261 C 
HETATM   33  C   UNL     1      24.086  46.177  49.778  1.00  0.00     0.195 C 
HETATM   34  O   UNL     1      25.288  46.501  50.480  1.00  0.00    -0.388 OA
HETATM   35  C   UNL     1      26.455  46.089  49.767  1.00  0.00     0.195 C 
HETATM   36  C   UNL     1      26.463  44.567  49.577  1.00  0.00     0.261 C 
ENDBRANCH  29  30
ENDBRANCH  28  29
ENDBRANCH  27  28
ENDBRANCH   1  27
TORSDOF 10
ENDMDL
MODEL 8
REMARK VINA RESULT:      -8.7      2.977      6.397
REMARK  10 active torsions:
REMARK  status: ('A' for Active; 'I' for Inactive)
REMARK    1  A    between atoms: C_6  and  C_7 
REMARK    2  A    between atoms: C_7  and  N_8 
REMARK    3  A    between atoms: N_8  and  C_10 
REMARK    4  A    between atoms: N_8  and  C_20 
REMARK    5  A    between atoms: C_10  and  C_11 
REMARK    6  A    between atoms: N_12  and  C_13 
REMARK    7  A    between atoms: C_20  and  C_21 
REMARK    8  A    between atoms: C_21  and  C_22 
REMARK    9  A    between atoms: C_22  and  N_23 
REMARK   10  A    between atoms: C_30  and  O_31 
ROOT
HETATM    1  N   UNL     1      25.391  43.647  50.954  1.00  0.00    -0.060 N 
HETATM    2  H   UNL     1      26.155  42.965  51.064  1.00  0.00     0.280 HD
ENDROOT
BRANCH   1   3
HETATM    3  C   UNL     1      25.143  44.148  52.385  1.00  0.00     0.278 C 
BRANCH   3   4
HETATM    4  C   UNL     1      26.324  44.293  53.289  1.00  0.00     0.021 A 
HETATM    5  C   UNL     1      27.417  43.427  53.213  1.00  0.00     0.027 A 
HETATM    6  C   UNL     1      28.539  43.621  54.037  1.00  0.00    -0.006 A 
HETATM    7  C   UNL     1      28.534  44.707  54.943  1.00  0.00     0.075 A 
HETATM    8  C   UNL     1      29.650  42.767  53.952  1.00  0.00     0.014 A 
HETATM    9  C   UNL     1      29.659  44.900  55.754  1.00  0.00    -0.032 A 
HETATM   10  N   UNL     1      27.474  45.538  55.015  1.00  0.00    -0.223 NA
HETATM   11  C   UNL     1      29.748  46.066  56.705  1.00  0.00     0.050 C 
HETATM   12  C   UNL     1      30.769  44.045  55.651  1.00  0.00     0.009 A 
HETATM   13  C   UNL     1      30.763  42.981  54.757  1.00  0.00     0.002 A 
HETATM   14  C   UNL     1      26.439  45.321  54.201  1.00  0.00     0.170 A 
BRANCH  14  15
HETATM   15  O   UNL     1      25.464  46.249  54.355  1.00  0.00    -0.344 OA
HETATM   16  H   UNL     1      25.587  46.426  55.314  1.00  0.00     0.219 HD
ENDBRANCH  14  15
ENDBRANCH   3   4
ENDBRANCH   1   3
BRANCH   1  17
HETATM   17  C   UNL     1      24.237  42.741  50.447  1.00  0.00     0.316 C 
BRANCH  17  18
HETATM   18  C   UNL     1      24.565  42.178  49.119  1.00  0.00     0.163 A 
HETATM   19  N   UNL     1      25.592  41.334  48.758  1.00  0.00    -0.253 N 
HETATM   20  N   UNL     1      25.522  41.156  47.421  1.00  0.00    -0.002 NA
HETATM   21  N   UNL     1      24.447  41.802  47.008  1.00  0.00     0.018 NA
HETATM   22  N   UNL     1      23.832  42.428  48.047  1.00  0.00    -0.145 NA
BRANCH  19  23
HETATM   23  C   UNL     1      26.663  40.647  49.496  1.00  0.00     0.042 C 
HETATM   24  C   UNL     1      27.812  41.573  49.940  1.00  0.00     0.039 C 
HETATM   25  C   UNL     1      26.078  40.010  50.778  1.00  0.00     0.039 C 
HETATM   26  C   UNL     1      27.261  39.539  48.608  1.00  0.00     0.039 C 
ENDBRANCH  19  23
ENDBRANCH  17  18
ENDBRANCH   1  17
BRANCH   1  27
HETATM   27  C   UNL     1      25.769  44.689  49.932  1.00  0.00     0.237 C 
BRANCH  27  28
HETATM   28  C   UNL     1      25.181  46.090  50.179  1.00  0.00     0.055 C 
BRANCH  28  29
HETATM   29  C   UNL     1      26.195  47.146  50.624  1.00  0.00     0.236 C 
BRANCH  29  30
HETATM   30  N   UNL     1      25.963  48.457  49.896  1.00  0.00    -0.067 N 
HETATM   31  H   UNL     1      25.864  49.222  50.579  1.00  0.00     0.280 HD
HETATM   32  C   UNL     1      27.169  48.839  49.013  1.00  0.00     0.261 C 
HETATM   33  C   UNL     1      26.900  50.180  48.322  1.00  0.00     0.195 C 
HETATM   34  O   UNL     1      25.710  50.111  47.535  1.00  0.00    -0.388 OA
HETATM   35  C   UNL     1      24.556  49.832  48.330  1.00  0.00     0.195 C 
HETATM   36  C   UNL     1      24.694  48.472  49.025  1.00  0.00     0.261 C 
ENDBRANCH  29  30
ENDBRANCH  28  29
ENDBRANCH  27  28
ENDBRANCH   1  27
TORSDOF 10
ENDMDL
MODEL 9
REMARK VINA RESULT:      -8.6      2.609      6.713
REMARK  10 active torsions:
REMARK  status: ('A' for Active; 'I' for Inactive)
REMARK    1  A    between atoms: C_6  and  C_7 
REMARK    2  A    between atoms: C_7  and  N_8 
REMARK    3  A    between atoms: N_8  and  C_10 
REMARK    4  A    between atoms: N_8  and  C_20 
REMARK    5  A    between atoms: C_10  and  C_11 
REMARK    6  A    between atoms: N_12  and  C_13 
REMARK    7  A    between atoms: C_20  and  C_21 
REMARK    8  A    between atoms: C_21  and  C_22 
REMARK    9  A    between atoms: C_22  and  N_23 
REMARK   10  A    between atoms: C_30  and  O_31 
ROOT
HETATM    1  N   UNL     1      26.291  44.017  51.356  1.00  0.00    -0.060 N 
HETATM    2  H   UNL     1      26.944  44.813  51.338  1.00  0.00     0.280 HD
ENDROOT
BRANCH   1   3
HETATM    3  C   UNL     1      25.002  44.591  50.748  1.00  0.00     0.278 C 
BRANCH   3   4
HETATM    4  C   UNL     1      25.052  45.971  50.179  1.00  0.00     0.021 A 
HETATM    5  C   UNL     1      26.249  46.687  50.095  1.00  0.00     0.027 A 
HETATM    6  C   UNL     1      26.278  47.961  49.503  1.00  0.00    -0.006 A 
HETATM    7  C   UNL     1      25.072  48.502  49.000  1.00  0.00     0.075 A 
HETATM    8  C   UNL     1      27.481  48.678  49.396  1.00  0.00     0.014 A 
HETATM    9  C   UNL     1      25.108  49.768  48.403  1.00  0.00    -0.032 A 
HETATM   10  N   UNL     1      23.918  47.807  49.088  1.00  0.00    -0.223 NA
HETATM   11  C   UNL     1      23.874  50.385  47.797  1.00  0.00     0.050 C 
HETATM   12  C   UNL     1      26.321  50.470  48.293  1.00  0.00     0.009 A 
HETATM   13  C   UNL     1      27.500  49.929  48.790  1.00  0.00     0.002 A 
HETATM   14  C   UNL     1      23.945  46.595  49.644  1.00  0.00     0.170 A 
BRANCH  14  15
HETATM   15  O   UNL     1      22.729  46.000  49.633  1.00  0.00    -0.344 OA
HETATM   16  H   UNL     1      22.674  45.807  48.670  1.00  0.00     0.219 HD
ENDBRANCH  14  15
ENDBRANCH   3   4
ENDBRANCH   1   3
BRANCH   1  17
HETATM   17  C   UNL     1      26.151  43.764  52.882  1.00  0.00     0.316 C 
BRANCH  17  18
HETATM   18  C   UNL     1      27.099  44.615  53.636  1.00  0.00     0.163 A 
HETATM   19  N   UNL     1      28.353  44.310  54.117  1.00  0.00    -0.253 N 
HETATM   20  N   UNL     1      28.799  45.385  54.800  1.00  0.00    -0.002 NA
HETATM   21  N   UNL     1      27.884  46.328  54.665  1.00  0.00     0.018 NA
HETATM   22  N   UNL     1      26.831  45.875  53.933  1.00  0.00    -0.145 NA
BRANCH  19  23
HETATM   23  C   UNL     1      29.225  43.128  54.034  1.00  0.00     0.042 C 
HETATM   24  C   UNL     1      28.472  41.787  54.117  1.00  0.00     0.039 C 
HETATM   25  C   UNL     1      29.976  43.138  52.681  1.00  0.00     0.039 C 
HETATM   26  C   UNL     1      30.250  43.172  55.183  1.00  0.00     0.039 C 
ENDBRANCH  19  23
ENDBRANCH  17  18
ENDBRANCH   1  17
BRANCH   1  27
HETATM   27  C   UNL     1      26.899  42.832  50.650  1.00  0.00     0.237 C 
BRANCH  27  28
HETATM   28  C   UNL     1      26.072  42.276  49.475  1.00  0.00     0.055 C 
BRANCH  28  29
HETATM   29  C   UNL     1      26.851  41.393  48.499  1.00  0.00     0.236 C 
BRANCH  29  30
HETATM   30  N   UNL     1      27.207  40.064  49.140  1.00  0.00    -0.067 N 
HETATM   31  H   UNL     1      26.844  40.034  50.104  1.00  0.00     0.280 HD
HETATM   32  C   UNL     1      26.542  38.882  48.406  1.00  0.00     0.261 C 
HETATM   33  C   UNL     1      26.906  37.568  49.105  1.00  0.00     0.195 C 
HETATM   34  O   UNL     1      28.323  37.395  49.144  1.00  0.00    -0.388 OA
HETATM   35  C   UNL     1      28.971  38.433  49.881  1.00  0.00     0.195 C 
HETATM   36  C   UNL     1      28.720  39.798  49.227  1.00  0.00     0.261 C 
ENDBRANCH  29  30
ENDBRANCH  28  29
ENDBRANCH  27  28
ENDBRANCH   1  27
TORSDOF 10
ENDMDL
MODEL 10
REMARK VINA RESULT:      -8.6      3.235      6.206
REMARK  10 active torsions:
REMARK  status: ('A' for Active; 'I' for Inactive)
REMARK    1  A    between atoms: C_6  and  C_7 
REMARK    2  A    between atoms: C_7  and  N_8 
REMARK    3  A    between atoms: N_8  and  C_10 
REMARK    4  A    between atoms: N_8  and  C_20 
REMARK    5  A    between atoms: C_10  and  C_11 
REMARK    6  A    between atoms: N_12  and  C_13 
REMARK    7  A    between atoms: C_20  and  C_21 
REMARK    8  A    between atoms: C_21  and  C_22 
REMARK    9  A    between atoms: C_22  and  N_23 
REMARK   10  A    between atoms: C_30  and  O_31 
ROOT
HETATM    1  N   UNL     1      25.023  43.474  50.439  1.00  0.00    -0.060 N 
HETATM    2  H   UNL     1      25.894  42.924  50.434  1.00  0.00     0.280 HD
ENDROOT
BRANCH   1   3
HETATM    3  C   UNL     1      24.870  43.898  51.908  1.00  0.00     0.278 C 
BRANCH   3   4
HETATM    4  C   UNL     1      26.112  44.044  52.726  1.00  0.00     0.021 A 
HETATM    5  C   UNL     1      26.351  45.182  53.499  1.00  0.00     0.027 A 
HETATM    6  C   UNL     1      27.500  45.268  54.304  1.00  0.00    -0.006 A 
HETATM    7  C   UNL     1      28.406  44.183  54.310  1.00  0.00     0.075 A 
HETATM    8  C   UNL     1      27.737  46.401  55.100  1.00  0.00     0.014 A 
HETATM    9  C   UNL     1      29.544  44.271  55.121  1.00  0.00    -0.032 A 
HETATM   10  N   UNL     1      28.172  43.087  53.558  1.00  0.00    -0.223 NA
HETATM   11  C   UNL     1      30.526  43.132  55.219  1.00  0.00     0.050 C 
HETATM   12  C   UNL     1      29.764  45.405  55.921  1.00  0.00     0.009 A 
HETATM   13  C   UNL     1      28.867  46.466  55.908  1.00  0.00     0.002 A 
HETATM   14  C   UNL     1      27.059  43.047  52.822  1.00  0.00     0.170 A 
BRANCH  14  15
HETATM   15  O   UNL     1      26.934  41.878  52.149  1.00  0.00    -0.344 OA
HETATM   16  H   UNL     1      25.955  41.795  52.188  1.00  0.00     0.219 HD
ENDBRANCH  14  15
ENDBRANCH   3   4
ENDBRANCH   1   3
BRANCH   1  17
HETATM   17  C   UNL     1      23.977  42.401  50.032  1.00  0.00     0.316 C 
BRANCH  17  18
HETATM   18  C   UNL     1      22.872  43.020  49.266  1.00  0.00     0.163 A 
HETATM   19  N   UNL     1      22.443  42.756  47.984  1.00  0.00    -0.253 N 
HETATM   20  N   UNL     1      21.449  43.625  47.700  1.00  0.00    -0.002 NA
HETATM   21  N   UNL     1      21.236  44.329  48.797  1.00  0.00     0.018 NA
HETATM   22  N   UNL     1      22.096  43.958  49.782  1.00  0.00    -0.145 NA
BRANCH  19  23
HETATM   23  C   UNL     1      22.833  41.784  46.951  1.00  0.00     0.042 C 
HETATM   24  C   UNL     1      22.504  40.322  47.311  1.00  0.00     0.039 C 
HETATM   25  C   UNL     1      22.083  42.102  45.636  1.00  0.00     0.039 C 
HETATM   26  C   UNL     1      24.350  41.885  46.706  1.00  0.00     0.039 C 
ENDBRANCH  19  23
ENDBRANCH  17  18
ENDBRANCH   1  17
BRANCH   1  27
HETATM   27  C   UNL     1      25.105  44.584  49.423  1.00  0.00     0.237 C 
BRANCH  27  28
HETATM   28  C   UNL     1      24.857  45.999  49.978  1.00  0.00     0.055 C 
BRANCH  28  29
HETATM   29  C   UNL     1      26.118  46.838  50.194  1.00  0.00     0.236 C 
BRANCH  29  30
HETATM   30  N   UNL     1      25.924  48.248  49.669  1.00  0.00    -0.067 N 
HETATM   31  H   UNL     1      25.838  48.904  50.458  1.00  0.00     0.280 HD
HETATM   32  C   UNL     1      27.145  48.727  48.859  1.00  0.00     0.261 C 
HETATM   33  C   UNL     1      26.915  50.162  48.375  1.00  0.00     0.195 C 
HETATM   34  O   UNL     1      25.730  50.242  47.581  1.00  0.00    -0.388 OA
HETATM   35  C   UNL     1      24.563  49.877  48.321  1.00  0.00     0.195 C 
HETATM   36  C   UNL     1      24.662  48.425  48.805  1.00  0.00     0.261 C 
ENDBRANCH  29  30
ENDBRANCH  28  29
ENDBRANCH  27  28
ENDBRANCH   1  27
TORSDOF 10
ENDMDL
