MODEL 1
REMARK VINA RESULT:      -8.8      0.000      0.000
REMARK  6 active torsions:
REMARK  status: ('A' for Active; 'I' for Inactive)
REMARK    1  A    between atoms: C_9  and  C_10 
REMARK       I    between atoms: C_10  and  N_11 
REMARK    2  A    between atoms: N_11  and  C_12 
REMARK    3  A    between atoms: C_12  and  C_13 
REMARK    4  A    between atoms: C_13  and  O_14 
REMARK    5  A    between atoms: C_13  and  C_15 
REMARK    6  A    between atoms: C_18  and  O_19 
ROOT
HETATM    1  C   UNL     1      26.288  46.184  49.986  1.00  0.00     0.258 C 
HETATM    2  N   UNL     1      25.739  45.732  51.163  1.00  0.00    -0.350 N 
HETATM    3  O   UNL     1      27.178  45.581  49.394  1.00  0.00    -0.267 OA
HETATM    4  H   UNL     1      24.945  46.256  51.528  1.00  0.00     0.163 HD
ENDROOT
BRANCH   2   5
HETATM    5  C   UNL     1      26.076  44.458  51.794  1.00  0.00     0.114 C 
HETATM    6  C   UNL     1      25.179  43.335  51.263  1.00  0.00     0.035 C 
BRANCH   5   7
HETATM    7  C   UNL     1      26.085  44.515  53.352  1.00  0.00     0.173 C 
BRANCH   7   8
HETATM    8  O   UNL     1      25.112  43.613  53.896  1.00  0.00    -0.389 OA
HETATM    9  H   UNL     1      25.115  42.830  53.320  1.00  0.00     0.210 HD
ENDBRANCH   7   8
BRANCH   7  10
HETATM   10  C   UNL     1      27.444  44.152  53.928  1.00  0.00    -0.028 A 
HETATM   11  C   UNL     1      28.155  45.083  54.698  1.00  0.00     0.012 A 
HETATM   12  C   UNL     1      29.411  44.763  55.220  1.00  0.00     0.037 A 
HETATM   13  C   UNL     1      29.975  43.506  54.999  1.00  0.00     0.068 A 
HETATM   14  C   UNL     1      29.285  42.578  54.221  1.00  0.00     0.037 A 
HETATM   15  C   UNL     1      28.031  42.901  53.687  1.00  0.00     0.012 A 
BRANCH  13  16
HETATM   16  O   UNL     1      31.198  43.313  55.579  1.00  0.00    -0.356 OA
HETATM   17  C   UNL     1      31.225  43.297  57.002  1.00  0.00     0.210 C 
ENDBRANCH  13  16
ENDBRANCH   7  10
ENDBRANCH   5   7
ENDBRANCH   2   5
BRANCH   1  18
HETATM   18  C   UNL     1      25.713  47.417  49.473  1.00  0.00     0.105 A 
HETATM   19  C   UNL     1      24.398  47.650  49.110  1.00  0.00     0.169 A 
HETATM   20  N   UNL     1      23.294  46.836  49.132  1.00  0.00    -0.233 NA
HETATM   21  N   UNL     1      24.338  48.973  48.658  1.00  0.00    -0.219 N 
HETATM   22  C   UNL     1      22.178  47.360  48.713  1.00  0.00     0.035 A 
HETATM   23  C   UNL     1      20.938  46.503  48.711  1.00  0.00     0.070 C 
HETATM   24  C   UNL     1      22.024  48.760  48.206  1.00  0.00     0.053 A 
HETATM   25  C   UNL     1      23.131  49.521  48.201  1.00  0.00     0.036 A 
HETATM   26  C   UNL     1      23.139  50.939  47.721  1.00  0.00     0.070 C 
HETATM   27  N   UNL     1      25.549  49.578  48.731  1.00  0.00    -0.170 NA
HETATM   28  C   UNL     1      26.375  48.646  49.217  1.00  0.00     0.071 A 
HETATM   29  C   UNL     1      27.811  48.967  49.424  1.00  0.00     0.073 C 
ENDBRANCH   1  18
TORSDOF 6
ENDMDL
MODEL 2
REMARK VINA RESULT:      -8.8      2.749      8.468
REMARK  6 active torsions:
REMARK  status: ('A' for Active; 'I' for Inactive)
REMARK    1  A    between atoms: C_9  and  C_10 
REMARK       I    between atoms: C_10  and  N_11 
REMARK    2  A    between atoms: N_11  and  C_12 
REMARK    3  A    between atoms: C_12  and  C_13 
REMARK    4  A    between atoms: C_13  and  O_14 
REMARK    5  A    between atoms: C_13  and  C_15 
REMARK    6  A    between atoms: C_18  and  O_19 
ROOT
HETATM    1  C   UNL     1      26.361  46.578  53.306  1.00  0.00     0.258 C 
HETATM    2  N   UNL     1      26.323  45.504  52.448  1.00  0.00    -0.350 N 
HETATM    3  O   UNL     1      25.647  47.565  53.165  1.00  0.00    -0.267 OA
HETATM    4  H   UNL     1      26.890  44.696  52.701  1.00  0.00     0.163 HD
ENDROOT
BRANCH   2   5
HETATM    5  C   UNL     1      25.383  45.368  51.338  1.00  0.00     0.114 C 
HETATM    6  C   UNL     1      24.862  43.930  51.240  1.00  0.00     0.035 C 
BRANCH   5   7
HETATM    7  C   UNL     1      25.943  45.883  49.977  1.00  0.00     0.173 C 
BRANCH   7   8
HETATM    8  O   UNL     1      25.684  44.935  48.934  1.00  0.00    -0.389 OA
HETATM    9  H   UNL     1      26.512  44.848  48.432  1.00  0.00     0.210 HD
ENDBRANCH   7   8
BRANCH   7  10
HETATM   10  C   UNL     1      25.328  47.213  49.574  1.00  0.00    -0.028 A 
HETATM   11  C   UNL     1      23.935  47.363  49.540  1.00  0.00     0.012 A 
HETATM   12  C   UNL     1      23.360  48.579  49.157  1.00  0.00     0.037 A 
HETATM   13  C   UNL     1      24.161  49.670  48.820  1.00  0.00     0.068 A 
HETATM   14  C   UNL     1      25.547  49.528  48.834  1.00  0.00     0.037 A 
HETATM   15  C   UNL     1      26.125  48.307  49.206  1.00  0.00     0.012 A 
BRANCH  13  16
HETATM   16  O   UNL     1      23.476  50.805  48.482  1.00  0.00    -0.356 OA
HETATM   17  C   UNL     1      22.116  50.867  48.897  1.00  0.00     0.210 C 
ENDBRANCH  13  16
ENDBRANCH   7  10
ENDBRANCH   5   7
ENDBRANCH   2   5
BRANCH   1  18
HETATM   18  C   UNL     1      27.289  46.445  54.417  1.00  0.00     0.105 A 
HETATM   19  C   UNL     1      28.292  45.504  54.574  1.00  0.00     0.169 A 
HETATM   20  N   UNL     1      28.699  44.470  53.767  1.00  0.00    -0.233 NA
HETATM   21  N   UNL     1      28.898  45.769  55.806  1.00  0.00    -0.219 N 
HETATM   22  C   UNL     1      29.688  43.746  54.207  1.00  0.00     0.035 A 
HETATM   23  C   UNL     1      30.167  42.594  53.361  1.00  0.00     0.070 C 
HETATM   24  C   UNL     1      30.389  43.952  55.514  1.00  0.00     0.053 A 
HETATM   25  C   UNL     1      29.956  44.975  56.271  1.00  0.00     0.036 A 
HETATM   26  C   UNL     1      30.553  45.306  57.604  1.00  0.00     0.070 C 
HETATM   27  N   UNL     1      28.330  46.835  56.420  1.00  0.00    -0.170 NA
HETATM   28  C   UNL     1      27.364  47.240  55.590  1.00  0.00     0.071 A 
HETATM   29  C   UNL     1      26.516  48.405  55.955  1.00  0.00     0.073 C 
ENDBRANCH   1  18
TORSDOF 6
ENDMDL
MODEL 3
REMARK VINA RESULT:      -8.7      1.900      3.476
REMARK  6 active torsions:
REMARK  status: ('A' for Active; 'I' for Inactive)
REMARK    1  A    between atoms: C_9  and  C_10 
REMARK       I    between atoms: C_10  and  N_11 
REMARK    2  A    between atoms: N_11  and  C_12 
REMARK    3  A    between atoms: C_12  and  C_13 
REMARK    4  A    between atoms: C_13  and  O_14 
REMARK    5  A    between atoms: C_13  and  C_15 
REMARK    6  A    between atoms: C_18  and  O_19 
ROOT
HETATM    1  C   UNL     1      26.564  43.643  50.078  1.00  0.00     0.258 C 
HETATM    2  N   UNL     1      26.662  43.140  51.354  1.00  0.00    -0.350 N 
HETATM    3  O   UNL     1      27.288  43.270  49.160  1.00  0.00    -0.267 OA
HETATM    4  H   UNL     1      25.958  43.449  52.023  1.00  0.00     0.163 HD
ENDROOT
BRANCH   2   5
HETATM    5  C   UNL     1      27.560  42.057  51.747  1.00  0.00     0.114 C 
HETATM    6  C   UNL     1      27.270  40.790  50.934  1.00  0.00     0.035 C 
BRANCH   5   7
HETATM    7  C   UNL     1      27.575  41.780  53.281  1.00  0.00     0.173 C 
BRANCH   7   8
HETATM    8  O   UNL     1      28.208  40.525  53.561  1.00  0.00    -0.389 OA
HETATM    9  H   UNL     1      27.675  40.098  54.252  1.00  0.00     0.210 HD
ENDBRANCH   7   8
BRANCH   7  10
HETATM   10  C   UNL     1      28.309  42.865  54.049  1.00  0.00    -0.028 A 
HETATM   11  C   UNL     1      27.644  44.045  54.413  1.00  0.00     0.012 A 
HETATM   12  C   UNL     1      28.315  45.055  55.108  1.00  0.00     0.037 A 
HETATM   13  C   UNL     1      29.654  44.902  55.468  1.00  0.00     0.068 A 
HETATM   14  C   UNL     1      30.331  43.741  55.098  1.00  0.00     0.037 A 
HETATM   15  C   UNL     1      29.663  42.732  54.391  1.00  0.00     0.012 A 
BRANCH  13  16
HETATM   16  O   UNL     1      30.188  45.953  56.161  1.00  0.00    -0.356 OA
HETATM   17  C   UNL     1      30.370  45.759  57.559  1.00  0.00     0.210 C 
ENDBRANCH  13  16
ENDBRANCH   7  10
ENDBRANCH   5   7
ENDBRANCH   2   5
BRANCH   1  18
HETATM   18  C   UNL     1      25.514  44.630  49.885  1.00  0.00     0.105 A 
HETATM   19  C   UNL     1      25.660  45.988  49.660  1.00  0.00     0.169 A 
HETATM   20  N   UNL     1      26.780  46.773  49.548  1.00  0.00    -0.233 NA
HETATM   21  N   UNL     1      24.368  46.516  49.560  1.00  0.00    -0.219 N 
HETATM   22  C   UNL     1      26.581  48.042  49.338  1.00  0.00     0.035 A 
HETATM   23  C   UNL     1      27.780  48.947  49.215  1.00  0.00     0.070 C 
HETATM   24  C   UNL     1      25.238  48.693  49.225  1.00  0.00     0.053 A 
HETATM   25  C   UNL     1      24.169  47.887  49.342  1.00  0.00     0.036 A 
HETATM   26  C   UNL     1      22.761  48.389  49.256  1.00  0.00     0.070 C 
HETATM   27  N   UNL     1      23.425  45.553  49.701  1.00  0.00    -0.170 NA
HETATM   28  C   UNL     1      24.110  44.422  49.898  1.00  0.00     0.071 A 
HETATM   29  C   UNL     1      23.381  43.143  50.102  1.00  0.00     0.073 C 
ENDBRANCH   1  18
TORSDOF 6
ENDMDL
MODEL 4
REMARK VINA RESULT:      -8.5      3.984      9.618
REMARK  6 active torsions:
REMARK  status: ('A' for Active; 'I' for Inactive)
REMARK    1  A    between atoms: C_9  and  C_10 
REMARK       I    between atoms: C_10  and  N_11 
REMARK    2  A    between atoms: N_11  and  C_12 
REMARK    3  A    between atoms: C_12  and  C_13 
REMARK    4  A    between atoms: C_13  and  O_14 
REMARK    5  A    between atoms: C_13  and  C_15 
REMARK    6  A    between atoms: C_18  and  O_19 
ROOT
HETATM    1  C   UNL     1      24.304  47.803  49.934  1.00  0.00     0.258 C 
HETATM    2  N   UNL     1      22.964  47.754  49.628  1.00  0.00    -0.350 N 
HETATM    3  O   UNL     1      25.021  48.751  49.629  1.00  0.00    -0.267 OA
HETATM    4  H   UNL     1      22.438  46.967  50.003  1.00  0.00     0.163 HD
ENDROOT
BRANCH   2   5
HETATM    5  C   UNL     1      22.224  48.842  48.994  1.00  0.00     0.114 C 
HETATM    6  C   UNL     1      22.908  49.280  47.695  1.00  0.00     0.035 C 
BRANCH   5   7
HETATM    7  C   UNL     1      21.944  50.046  49.945  1.00  0.00     0.173 C 
BRANCH   7   8
HETATM    8  O   UNL     1      22.975  51.035  49.824  1.00  0.00    -0.389 OA
HETATM    9  H   UNL     1      23.317  50.962  48.917  1.00  0.00     0.210 HD
ENDBRANCH   7   8
BRANCH   7  10
HETATM   10  C   UNL     1      20.610  50.711  49.646  1.00  0.00    -0.028 A 
HETATM   11  C   UNL     1      19.449  50.291  50.310  1.00  0.00     0.012 A 
HETATM   12  C   UNL     1      18.216  50.887  50.032  1.00  0.00     0.037 A 
HETATM   13  C   UNL     1      18.120  51.922  49.101  1.00  0.00     0.068 A 
HETATM   14  C   UNL     1      19.264  52.336  48.422  1.00  0.00     0.037 A 
HETATM   15  C   UNL     1      20.499  51.733  48.691  1.00  0.00     0.012 A 
BRANCH  13  16
HETATM   16  O   UNL     1      16.861  52.432  48.934  1.00  0.00    -0.356 OA
HETATM   17  C   UNL     1      16.301  53.107  50.055  1.00  0.00     0.210 C 
ENDBRANCH  13  16
ENDBRANCH   7  10
ENDBRANCH   5   7
ENDBRANCH   2   5
BRANCH   1  18
HETATM   18  C   UNL     1      24.807  46.660  50.679  1.00  0.00     0.105 A 
HETATM   19  C   UNL     1      25.314  46.646  51.967  1.00  0.00     0.169 A 
HETATM   20  N   UNL     1      25.480  47.652  52.886  1.00  0.00    -0.233 NA
HETATM   21  N   UNL     1      25.686  45.325  52.234  1.00  0.00    -0.219 N 
HETATM   22  C   UNL     1      26.000  47.312  54.031  1.00  0.00     0.035 A 
HETATM   23  C   UNL     1      26.209  48.382  55.071  1.00  0.00     0.070 C 
HETATM   24  C   UNL     1      26.434  45.927  54.399  1.00  0.00     0.053 A 
HETATM   25  C   UNL     1      26.254  44.975  53.468  1.00  0.00     0.036 A 
HETATM   26  C   UNL     1      26.640  43.545  53.685  1.00  0.00     0.070 C 
HETATM   27  N   UNL     1      25.426  44.513  51.181  1.00  0.00    -0.170 NA
HETATM   28  C   UNL     1      24.901  45.312  50.247  1.00  0.00     0.071 A 
HETATM   29  C   UNL     1      24.498  44.747  48.933  1.00  0.00     0.073 C 
ENDBRANCH   1  18
TORSDOF 6
ENDMDL
MODEL 5
REMARK VINA RESULT:      -8.4      1.934      2.444
REMARK  6 active torsions:
REMARK  status: ('A' for Active; 'I' for Inactive)
REMARK    1  A    between atoms: C_9  and  C_10 
REMARK       I    between atoms: C_10  and  N_11 
REMARK    2  A    between atoms: N_11  and  C_12 
REMARK    3  A    between atoms: C_12  and  C_13 
REMARK    4  A    between atoms: C_13  and  O_14 
REMARK    5  A    between atoms: C_13  and  C_15 
REMARK    6  A    between atoms: C_18  and  O_19 
ROOT
HETATM    1  C   UNL     1      25.419  44.267  51.304  1.00  0.00     0.258 C 
HETATM    2  N   UNL     1      26.757  44.037  51.083  1.00  0.00    -0.350 N 
HETATM    3  O   UNL     1      24.677  43.432  51.814  1.00  0.00    -0.267 OA
HETATM    4  H   UNL     1      27.304  44.824  50.738  1.00  0.00     0.163 HD
ENDROOT
BRANCH   2   5
HETATM    5  C   UNL     1      27.466  42.831  51.503  1.00  0.00     0.114 C 
HETATM    6  C   UNL     1      27.142  41.659  50.571  1.00  0.00     0.035 C 
BRANCH   5   7
HETATM    7  C   UNL     1      27.249  42.466  53.003  1.00  0.00     0.173 C 
BRANCH   7   8
HETATM    8  O   UNL     1      27.473  41.067  53.219  1.00  0.00    -0.389 OA
HETATM    9  H   UNL     1      28.319  40.856  52.787  1.00  0.00     0.210 HD
ENDBRANCH   7   8
BRANCH   7  10
HETATM   10  C   UNL     1      28.178  43.244  53.919  1.00  0.00    -0.028 A 
HETATM   11  C   UNL     1      29.455  42.747  54.215  1.00  0.00     0.012 A 
HETATM   12  C   UNL     1      30.311  43.448  55.068  1.00  0.00     0.037 A 
HETATM   13  C   UNL     1      29.919  44.665  55.627  1.00  0.00     0.068 A 
HETATM   14  C   UNL     1      28.646  45.162  55.353  1.00  0.00     0.037 A 
HETATM   15  C   UNL     1      27.782  44.454  54.508  1.00  0.00     0.012 A 
BRANCH  13  16
HETATM   16  O   UNL     1      30.855  45.260  56.428  1.00  0.00    -0.356 OA
HETATM   17  C   UNL     1      30.578  45.265  57.824  1.00  0.00     0.210 C 
ENDBRANCH  13  16
ENDBRANCH   7  10
ENDBRANCH   5   7
ENDBRANCH   2   5
BRANCH   1  18
HETATM   18  C   UNL     1      24.949  45.588  50.919  1.00  0.00     0.105 A 
HETATM   19  C   UNL     1      24.072  45.909  49.898  1.00  0.00     0.169 A 
HETATM   20  N   UNL     1      23.408  45.121  48.992  1.00  0.00    -0.233 NA
HETATM   21  N   UNL     1      23.946  47.302  49.905  1.00  0.00    -0.219 N 
HETATM   22  C   UNL     1      22.644  45.737  48.136  1.00  0.00     0.035 A 
HETATM   23  C   UNL     1      21.898  44.916  47.116  1.00  0.00     0.070 C 
HETATM   24  C   UNL     1      22.456  47.221  48.066  1.00  0.00     0.053 A 
HETATM   25  C   UNL     1      23.126  47.953  48.972  1.00  0.00     0.036 A 
HETATM   26  C   UNL     1      23.044  49.447  49.028  1.00  0.00     0.070 C 
HETATM   27  N   UNL     1      24.692  47.864  50.888  1.00  0.00    -0.170 NA
HETATM   28  C   UNL     1      25.296  46.838  51.495  1.00  0.00     0.071 A 
HETATM   29  C   UNL     1      26.214  47.091  52.636  1.00  0.00     0.073 C 
ENDBRANCH   1  18
TORSDOF 6
ENDMDL
MODEL 6
REMARK VINA RESULT:      -8.4      3.688      7.329
REMARK  6 active torsions:
REMARK  status: ('A' for Active; 'I' for Inactive)
REMARK    1  A    between atoms: C_9  and  C_10 
REMARK       I    between atoms: C_10  and  N_11 
REMARK    2  A    between atoms: N_11  and  C_12 
REMARK    3  A    between atoms: C_12  and  C_13 
REMARK    4  A    between atoms: C_13  and  O_14 
REMARK    5  A    between atoms: C_13  and  C_15 
REMARK    6  A    between atoms: C_18  and  O_19 
ROOT
HETATM    1  C   UNL     1      26.267  46.570  53.006  1.00  0.00     0.258 C 
HETATM    2  N   UNL     1      26.350  45.551  52.086  1.00  0.00    -0.350 N 
HETATM    3  O   UNL     1      25.471  47.498  52.899  1.00  0.00    -0.267 OA
HETATM    4  H   UNL     1      26.979  44.782  52.311  1.00  0.00     0.163 HD
ENDROOT
BRANCH   2   5
HETATM    5  C   UNL     1      25.459  45.403  50.938  1.00  0.00     0.114 C 
HETATM    6  C   UNL     1      24.204  44.612  51.324  1.00  0.00     0.035 C 
BRANCH   5   7
HETATM    7  C   UNL     1      26.158  44.815  49.674  1.00  0.00     0.173 C 
BRANCH   7   8
HETATM    8  O   UNL     1      27.491  45.327  49.551  1.00  0.00    -0.389 OA
HETATM    9  H   UNL     1      27.540  45.753  48.678  1.00  0.00     0.210 HD
ENDBRANCH   7   8
BRANCH   7  10
HETATM   10  C   UNL     1      26.234  43.298  49.719  1.00  0.00    -0.028 A 
HETATM   11  C   UNL     1      27.197  42.664  50.516  1.00  0.00     0.012 A 
HETATM   12  C   UNL     1      27.283  41.269  50.553  1.00  0.00     0.037 A 
HETATM   13  C   UNL     1      26.403  40.481  49.812  1.00  0.00     0.068 A 
HETATM   14  C   UNL     1      25.452  41.100  49.002  1.00  0.00     0.037 A 
HETATM   15  C   UNL     1      25.371  42.498  48.955  1.00  0.00     0.012 A 
BRANCH  13  16
HETATM   16  O   UNL     1      26.580  39.132  49.949  1.00  0.00    -0.356 OA
HETATM   17  C   UNL     1      27.850  38.621  49.562  1.00  0.00     0.210 C 
ENDBRANCH  13  16
ENDBRANCH   7  10
ENDBRANCH   5   7
ENDBRANCH   2   5
BRANCH   1  18
HETATM   18  C   UNL     1      27.170  46.451  54.139  1.00  0.00     0.105 A 
HETATM   19  C   UNL     1      28.155  45.499  54.339  1.00  0.00     0.169 A 
HETATM   20  N   UNL     1      28.561  44.439  53.567  1.00  0.00    -0.233 NA
HETATM   21  N   UNL     1      28.740  45.785  55.577  1.00  0.00    -0.219 N 
HETATM   22  C   UNL     1      29.529  43.711  54.045  1.00  0.00     0.035 A 
HETATM   23  C   UNL     1      30.007  42.531  53.238  1.00  0.00     0.070 C 
HETATM   24  C   UNL     1      30.207  43.939  55.361  1.00  0.00     0.053 A 
HETATM   25  C   UNL     1      29.776  44.987  56.083  1.00  0.00     0.036 A 
HETATM   26  C   UNL     1      30.351  45.342  57.419  1.00  0.00     0.070 C 
HETATM   27  N   UNL     1      28.176  46.875  56.153  1.00  0.00    -0.170 NA
HETATM   28  C   UNL     1      27.234  47.274  55.293  1.00  0.00     0.071 A 
HETATM   29  C   UNL     1      26.397  48.461  55.611  1.00  0.00     0.073 C 
ENDBRANCH   1  18
TORSDOF 6
ENDMDL
MODEL 7
REMARK VINA RESULT:      -8.3      1.762      3.122
REMARK  6 active torsions:
REMARK  status: ('A' for Active; 'I' for Inactive)
REMARK    1  A    between atoms: C_9  and  C_10 
REMARK       I    between atoms: C_10  and  N_11 
REMARK    2  A    between atoms: N_11  and  C_12 
REMARK    3  A    between atoms: C_12  and  C_13 
REMARK    4  A    between atoms: C_13  and  O_14 
REMARK    5  A    between atoms: C_13  and  C_15 
REMARK    6  A    between atoms: C_18  and  O_19 
ROOT
HETATM    1  C   UNL     1      25.237  45.124  50.966  1.00  0.00     0.258 C 
HETATM    2  N   UNL     1      24.936  45.184  52.307  1.00  0.00    -0.350 N 
HETATM    3  O   UNL     1      26.362  44.866  50.549  1.00  0.00    -0.267 OA
HETATM    4  H   UNL     1      23.956  45.316  52.550  1.00  0.00     0.163 HD
ENDROOT
BRANCH   2   5
HETATM    5  C   UNL     1      25.877  44.864  53.378  1.00  0.00     0.114 C 
HETATM    6  C   UNL     1      25.165  44.147  54.530  1.00  0.00     0.035 C 
BRANCH   5   7
HETATM    7  C   UNL     1      26.704  46.091  53.871  1.00  0.00     0.173 C 
BRANCH   7   8
HETATM    8  O   UNL     1      25.879  46.981  54.635  1.00  0.00    -0.389 OA
HETATM    9  H   UNL     1      24.993  46.942  54.236  1.00  0.00     0.210 HD
ENDBRANCH   7   8
BRANCH   7  10
HETATM   10  C   UNL     1      27.881  45.674  54.736  1.00  0.00    -0.028 A 
HETATM   11  C   UNL     1      28.191  46.393  55.899  1.00  0.00     0.012 A 
HETATM   12  C   UNL     1      29.280  46.025  56.694  1.00  0.00     0.037 A 
HETATM   13  C   UNL     1      30.070  44.926  56.355  1.00  0.00     0.068 A 
HETATM   14  C   UNL     1      29.782  44.213  55.192  1.00  0.00     0.037 A 
HETATM   15  C   UNL     1      28.697  44.587  54.388  1.00  0.00     0.012 A 
BRANCH  13  16
HETATM   16  O   UNL     1      31.092  44.660  57.224  1.00  0.00    -0.356 OA
HETATM   17  C   UNL     1      31.762  43.417  57.048  1.00  0.00     0.210 C 
ENDBRANCH  13  16
ENDBRANCH   7  10
ENDBRANCH   5   7
ENDBRANCH   2   5
BRANCH   1  18
HETATM   18  C   UNL     1      24.114  45.358  50.073  1.00  0.00     0.105 A 
HETATM   19  C   UNL     1      23.767  46.539  49.441  1.00  0.00     0.169 A 
HETATM   20  N   UNL     1      24.351  47.781  49.457  1.00  0.00    -0.233 NA
HETATM   21  N   UNL     1      22.606  46.272  48.708  1.00  0.00    -0.219 N 
HETATM   22  C   UNL     1      23.769  48.705  48.747  1.00  0.00     0.035 A 
HETATM   23  C   UNL     1      24.369  50.088  48.738  1.00  0.00     0.070 C 
HETATM   24  C   UNL     1      22.523  48.512  47.941  1.00  0.00     0.053 A 
HETATM   25  C   UNL     1      21.985  47.280  47.955  1.00  0.00     0.036 A 
HETATM   26  C   UNL     1      20.739  46.931  47.203  1.00  0.00     0.070 C 
HETATM   27  N   UNL     1      22.218  44.981  48.843  1.00  0.00    -0.170 NA
HETATM   28  C   UNL     1      23.120  44.432  49.663  1.00  0.00     0.071 A 
HETATM   29  C   UNL     1      22.998  43.000  50.043  1.00  0.00     0.073 C 
ENDBRANCH   1  18
TORSDOF 6
ENDMDL
MODEL 8
REMARK VINA RESULT:      -8.2      2.948      7.980
REMARK  6 active torsions:
REMARK  status: ('A' for Active; 'I' for Inactive)
REMARK    1  A    between atoms: C_9  and  C_10 
REMARK       I    between atoms: C_10  and  N_11 
REMARK    2  A    between atoms: N_11  and  C_12 
REMARK    3  A    between atoms: C_12  and  C_13 
REMARK    4  A    between atoms: C_13  and  O_14 
REMARK    5  A    between atoms: C_13  and  C_15 
REMARK    6  A    between atoms: C_18  and  O_19 
ROOT
HETATM    1  C   UNL     1      26.140  43.453  52.540  1.00  0.00     0.258 C 
HETATM    2  N   UNL     1      26.398  42.957  51.283  1.00  0.00    -0.350 N 
HETATM    3  O   UNL     1      25.020  43.803  52.898  1.00  0.00    -0.267 OA
HETATM    4  H   UNL     1      27.341  42.610  51.113  1.00  0.00     0.163 HD
ENDROOT
BRANCH   2   5
HETATM    5  C   UNL     1      25.376  42.706  50.271  1.00  0.00     0.114 C 
HETATM    6  C   UNL     1      25.311  41.215  49.922  1.00  0.00     0.035 C 
BRANCH   5   7
HETATM    7  C   UNL     1      25.518  43.600  49.001  1.00  0.00     0.173 C 
BRANCH   7   8
HETATM    8  O   UNL     1      24.707  43.093  47.933  1.00  0.00    -0.389 OA
HETATM    9  H   UNL     1      23.863  42.826  48.335  1.00  0.00     0.210 HD
ENDBRANCH   7   8
BRANCH   7  10
HETATM   10  C   UNL     1      25.108  45.038  49.268  1.00  0.00    -0.028 A 
HETATM   11  C   UNL     1      23.792  45.453  49.021  1.00  0.00     0.012 A 
HETATM   12  C   UNL     1      23.409  46.777  49.250  1.00  0.00     0.037 A 
HETATM   13  C   UNL     1      24.323  47.707  49.746  1.00  0.00     0.068 A 
HETATM   14  C   UNL     1      25.638  47.311  49.981  1.00  0.00     0.037 A 
HETATM   15  C   UNL     1      26.028  45.987  49.740  1.00  0.00     0.012 A 
BRANCH  13  16
HETATM   16  O   UNL     1      23.818  48.963  49.945  1.00  0.00    -0.356 OA
HETATM   17  C   UNL     1      22.589  49.258  49.291  1.00  0.00     0.210 C 
ENDBRANCH  13  16
ENDBRANCH   7  10
ENDBRANCH   5   7
ENDBRANCH   2   5
BRANCH   1  18
HETATM   18  C   UNL     1      27.289  43.502  53.429  1.00  0.00     0.105 A 
HETATM   19  C   UNL     1      27.758  44.589  54.147  1.00  0.00     0.169 A 
HETATM   20  N   UNL     1      27.301  45.880  54.238  1.00  0.00    -0.233 NA
HETATM   21  N   UNL     1      28.894  44.151  54.836  1.00  0.00    -0.219 N 
HETATM   22  C   UNL     1      27.979  46.682  55.008  1.00  0.00     0.035 A 
HETATM   23  C   UNL     1      27.520  48.112  55.136  1.00  0.00     0.070 C 
HETATM   24  C   UNL     1      29.207  46.302  55.775  1.00  0.00     0.053 A 
HETATM   25  C   UNL     1      29.619  45.029  55.655  1.00  0.00     0.036 A 
HETATM   26  C   UNL     1      30.831  44.499  56.356  1.00  0.00     0.070 C 
HETATM   27  N   UNL     1      29.149  42.843  54.593  1.00  0.00    -0.170 NA
HETATM   28  C   UNL     1      28.190  42.452  53.748  1.00  0.00     0.071 A 
HETATM   29  C   UNL     1      28.165  41.051  53.254  1.00  0.00     0.073 C 
ENDBRANCH   1  18
TORSDOF 6
ENDMDL
MODEL 9
REMARK VINA RESULT:      -8.0      1.439      2.652
REMARK  6 active torsions:
REMARK  status: ('A' for Active; 'I' for Inactive)
REMARK    1  A    between atoms: C_9  and  C_10 
REMARK       I    between atoms: C_10  and  N_11 
REMARK    2  A    between atoms: N_11  and  C_12 
REMARK    3  A    between atoms: C_12  and  C_13 
REMARK    4  A    between atoms: C_13  and  O_14 
REMARK    5  A    between atoms: C_13  and  C_15 
REMARK    6  A    between atoms: C_18  and  O_19 
ROOT
HETATM    1  C   UNL     1      25.437  46.129  50.020  1.00  0.00     0.258 C 
HETATM    2  N   UNL     1      25.492  45.376  51.170  1.00  0.00    -0.350 N 
HETATM    3  O   UNL     1      26.431  46.636  49.511  1.00  0.00    -0.267 OA
HETATM    4  H   UNL     1      24.626  44.924  51.462  1.00  0.00     0.163 HD
ENDROOT
BRANCH   2   5
HETATM    5  C   UNL     1      26.727  45.019  51.863  1.00  0.00     0.114 C 
HETATM    6  C   UNL     1      27.588  44.094  50.996  1.00  0.00     0.035 C 
BRANCH   5   7
HETATM    7  C   UNL     1      26.497  44.438  53.292  1.00  0.00     0.173 C 
BRANCH   7   8
HETATM    8  O   UNL     1      25.976  43.105  53.217  1.00  0.00    -0.389 OA
HETATM    9  H   UNL     1      25.009  43.191  53.186  1.00  0.00     0.210 HD
ENDBRANCH   7   8
BRANCH   7  10
HETATM   10  C   UNL     1      27.780  44.403  54.106  1.00  0.00    -0.028 A 
HETATM   11  C   UNL     1      28.192  45.535  54.822  1.00  0.00     0.012 A 
HETATM   12  C   UNL     1      29.377  45.517  55.562  1.00  0.00     0.037 A 
HETATM   13  C   UNL     1      30.164  44.366  55.617  1.00  0.00     0.068 A 
HETATM   14  C   UNL     1      29.774  43.239  54.895  1.00  0.00     0.037 A 
HETATM   15  C   UNL     1      28.592  43.259  54.144  1.00  0.00     0.012 A 
BRANCH  13  16
HETATM   16  O   UNL     1      31.287  44.472  56.390  1.00  0.00    -0.356 OA
HETATM   17  C   UNL     1      31.673  43.303  57.105  1.00  0.00     0.210 C 
ENDBRANCH  13  16
ENDBRANCH   7  10
ENDBRANCH   5   7
ENDBRANCH   2   5
BRANCH   1  18
HETATM   18  C   UNL     1      24.115  46.253  49.429  1.00  0.00     0.105 A 
HETATM   19  C   UNL     1      23.399  47.415  49.193  1.00  0.00     0.169 A 
HETATM   20  N   UNL     1      23.708  48.732  49.427  1.00  0.00    -0.233 NA
HETATM   21  N   UNL     1      22.179  47.024  48.633  1.00  0.00    -0.219 N 
HETATM   22  C   UNL     1      22.803  49.607  49.092  1.00  0.00     0.035 A 
HETATM   23  C   UNL     1      23.091  51.067  49.335  1.00  0.00     0.070 C 
HETATM   24  C   UNL     1      21.470  49.280  48.496  1.00  0.00     0.053 A 
HETATM   25  C   UNL     1      21.210  47.978  48.287  1.00  0.00     0.036 A 
HETATM   26  C   UNL     1      19.921  47.492  47.701  1.00  0.00     0.070 C 
HETATM   27  N   UNL     1      22.102  45.678  48.497  1.00  0.00    -0.170 NA
HETATM   28  C   UNL     1      23.261  45.214  48.976  1.00  0.00     0.071 A 
HETATM   29  C   UNL     1      23.522  43.751  48.989  1.00  0.00     0.073 C 
ENDBRANCH   1  18
TORSDOF 6
ENDMDL
MODEL 10
REMARK VINA RESULT:      -7.8      2.139      3.330
REMARK  6 active torsions:
REMARK  status: ('A' for Active; 'I' for Inactive)
REMARK    1  A    between atoms: C_9  and  C_10 
REMARK       I    between atoms: C_10  and  N_11 
REMARK    2  A    between atoms: N_11  and  C_12 
REMARK    3  A    between atoms: C_12  and  C_13 
REMARK    4  A    between atoms: C_13  and  O_14 
REMARK    5  A    between atoms: C_13  and  C_15 
REMARK    6  A    between atoms: C_18  and  O_19 
ROOT
HETATM    1  C   UNL     1      24.220  48.074  49.577  1.00  0.00     0.258 C 
HETATM    2  N   UNL     1      24.301  46.913  50.310  1.00  0.00    -0.350 N 
HETATM    3  O   UNL     1      25.152  48.868  49.486  1.00  0.00    -0.267 OA
HETATM    4  H   UNL     1      23.506  46.279  50.250  1.00  0.00     0.163 HD
ENDROOT
BRANCH   2   5
HETATM    5  C   UNL     1      25.510  46.445  50.983  1.00  0.00     0.114 C 
HETATM    6  C   UNL     1      26.365  45.597  50.036  1.00  0.00     0.035 C 
BRANCH   5   7
HETATM    7  C   UNL     1      25.233  45.718  52.334  1.00  0.00     0.173 C 
BRANCH   7   8
HETATM    8  O   UNL     1      25.038  44.313  52.119  1.00  0.00    -0.389 OA
HETATM    9  H   UNL     1      24.490  44.233  51.320  1.00  0.00     0.210 HD
ENDBRANCH   7   8
BRANCH   7  10
HETATM   10  C   UNL     1      26.374  45.895  53.321  1.00  0.00    -0.028 A 
HETATM   11  C   UNL     1      27.166  44.797  53.687  1.00  0.00     0.012 A 
HETATM   12  C   UNL     1      28.209  44.947  54.605  1.00  0.00     0.037 A 
HETATM   13  C   UNL     1      28.493  46.194  55.162  1.00  0.00     0.068 A 
HETATM   14  C   UNL     1      27.702  47.290  54.818  1.00  0.00     0.037 A 
HETATM   15  C   UNL     1      26.649  47.139  53.907  1.00  0.00     0.012 A 
BRANCH  13  16
HETATM   16  O   UNL     1      29.549  46.211  56.031  1.00  0.00    -0.356 OA
HETATM   17  C   UNL     1      30.297  45.005  56.136  1.00  0.00     0.210 C 
ENDBRANCH  13  16
ENDBRANCH   7  10
ENDBRANCH   5   7
ENDBRANCH   2   5
BRANCH   1  18
HETATM   18  C   UNL     1      22.958  48.280  48.886  1.00  0.00     0.105 A 
HETATM   19  C   UNL     1      22.269  47.376  48.096  1.00  0.00     0.169 A 
HETATM   20  N   UNL     1      22.549  46.078  47.748  1.00  0.00    -0.233 NA
HETATM   21  N   UNL     1      21.125  48.038  47.637  1.00  0.00    -0.219 N 
HETATM   22  C   UNL     1      21.689  45.487  46.969  1.00  0.00     0.035 A 
HETATM   23  C   UNL     1      21.956  44.063  46.554  1.00  0.00     0.070 C 
HETATM   24  C   UNL     1      20.446  46.120  46.426  1.00  0.00     0.053 A 
HETATM   25  C   UNL     1      20.212  47.392  46.792  1.00  0.00     0.036 A 
HETATM   26  C   UNL     1      19.014  48.161  46.328  1.00  0.00     0.070 C 
HETATM   27  N   UNL     1      21.061  49.306  48.112  1.00  0.00    -0.170 NA
HETATM   28  C   UNL     1      22.160  49.453  48.859  1.00  0.00     0.071 A 
HETATM   29  C   UNL     1      22.423  50.748  49.539  1.00  0.00     0.073 C 
ENDBRANCH   1  18
TORSDOF 6
ENDMDL
