MODEL 1
REMARK VINA RESULT:      -8.6      0.000      0.000
REMARK  8 active torsions:
REMARK  status: ('A' for Active; 'I' for Inactive)
REMARK    1  A    between atoms: O_2  and  C_3 
REMARK    2  A    between atoms: C_6  and  C_7 
REMARK    3  A    between atoms: C_7  and  N_8 
REMARK    4  A    between atoms: C_7  and  C_27 
REMARK    5  A    between atoms: N_8  and  C_11 
REMARK    6  A    between atoms: C_11  and  C_12 
REMARK       I    between atoms: C_12  and  N_13 
REMARK    7  A    between atoms: N_13  and  C_14 
REMARK    8  A    between atoms: C_17  and  N_18 
ROOT
HETATM    1  N   UNL     1      21.156  47.509  47.674  1.00  0.00    -0.055 N 
HETATM    2  H   UNL     1      20.298  47.850  47.207  1.00  0.00     0.278 HD
HETATM    3  H   UNL     1      21.844  47.481  46.915  1.00  0.00     0.278 HD
ENDROOT
BRANCH   1   4
HETATM    4  C   UNL     1      21.567  48.523  48.691  1.00  0.00     0.252 C 
BRANCH   4   5
HETATM    5  C   UNL     1      23.024  48.956  48.586  1.00  0.00    -0.023 A 
HETATM    6  C   UNL     1      23.449  50.032  47.783  1.00  0.00     0.012 A 
HETATM    7  C   UNL     1      24.801  50.395  47.720  1.00  0.00     0.037 A 
HETATM    8  C   UNL     1      25.751  49.701  48.464  1.00  0.00     0.068 A 
HETATM    9  C   UNL     1      25.339  48.639  49.268  1.00  0.00     0.037 A 
HETATM   10  C   UNL     1      23.992  48.272  49.337  1.00  0.00     0.012 A 
BRANCH   8  11
HETATM   11  O   UNL     1      27.092  49.952  48.492  1.00  0.00    -0.356 OA
HETATM   12  C   UNL     1      27.917  49.019  49.180  1.00  0.00     0.210 C 
ENDBRANCH   8  11
ENDBRANCH   4   5
BRANCH   4  13
HETATM   13  C   UNL     1      20.567  49.667  48.673  1.00  0.00    -0.023 A 
HETATM   14  C   UNL     1      19.841  49.933  47.497  1.00  0.00     0.009 A 
HETATM   15  C   UNL     1      18.967  51.020  47.428  1.00  0.00     0.001 A 
HETATM   16  C   UNL     1      18.807  51.860  48.526  1.00  0.00     0.000 A 
HETATM   17  C   UNL     1      19.519  51.615  49.696  1.00  0.00     0.001 A 
HETATM   18  C   UNL     1      20.396  50.531  49.770  1.00  0.00     0.009 A 
ENDBRANCH   4  13
ENDBRANCH   1   4
BRANCH   1  19
HETATM   19  C   UNL     1      20.841  46.125  48.171  1.00  0.00     0.336 C 
BRANCH  19  20
HETATM   20  C   UNL     1      22.156  45.384  48.405  1.00  0.00     0.248 C 
HETATM   21  N   UNL     1      22.394  45.039  49.719  1.00  0.00    -0.326 N 
HETATM   22  H   UNL     1      21.736  45.330  50.434  1.00  0.00     0.169 HD
HETATM   23  O   UNL     1      22.923  45.272  47.452  1.00  0.00    -0.271 OA
BRANCH  21  24
HETATM   24  C   UNL     1      23.521  44.349  50.215  1.00  0.00     0.034 A 
HETATM   25  C   UNL     1      23.694  42.972  50.126  1.00  0.00     0.032 A 
HETATM   26  C   UNL     1      24.823  42.359  50.694  1.00  0.00     0.032 A 
HETATM   27  C   UNL     1      25.809  43.102  51.351  1.00  0.00     0.037 A 
HETATM   28  C   UNL     1      25.639  44.492  51.404  1.00  0.00     0.032 A 
HETATM   29  C   UNL     1      24.504  45.106  50.859  1.00  0.00     0.032 A 
BRANCH  27  30
HETATM   30  N   UNL     1      26.937  42.487  51.956  1.00  0.00    -0.318 N 
HETATM   31  C   UNL     1      27.365  42.664  53.283  1.00  0.00     0.224 C 
HETATM   32  O   UNL     1      26.848  43.311  54.180  1.00  0.00    -0.273 OA
HETATM   33  C   UNL     1      28.697  41.968  53.434  1.00  0.00     0.105 C 
HETATM   34  C   UNL     1      28.716  41.002  52.267  1.00  0.00     0.029 C 
HETATM   35  C   UNL     1      27.910  41.723  51.206  1.00  0.00     0.133 C 
ENDBRANCH  27  30
ENDBRANCH  21  24
ENDBRANCH  19  20
ENDBRANCH   1  19
TORSDOF 8
ENDMDL
MODEL 2
REMARK VINA RESULT:      -8.5      4.833      7.102
REMARK  8 active torsions:
REMARK  status: ('A' for Active; 'I' for Inactive)
REMARK    1  A    between atoms: O_2  and  C_3 
REMARK    2  A    between atoms: C_6  and  C_7 
REMARK    3  A    between atoms: C_7  and  N_8 
REMARK    4  A    between atoms: C_7  and  C_27 
REMARK    5  A    between atoms: N_8  and  C_11 
REMARK    6  A    between atoms: C_11  and  C_12 
REMARK       I    between atoms: C_12  and  N_13 
REMARK    7  A    between atoms: N_13  and  C_14 
REMARK    8  A    between atoms: C_17  and  N_18 
ROOT
HETATM    1  N   UNL     1      26.861  42.228  49.219  1.00  0.00    -0.055 N 
HETATM    2  H   UNL     1      26.650  42.000  48.232  1.00  0.00     0.278 HD
HETATM    3  H   UNL     1      27.454  43.062  49.148  1.00  0.00     0.278 HD
ENDROOT
BRANCH   1   4
HETATM    4  C   UNL     1      25.579  42.578  49.900  1.00  0.00     0.252 C 
BRANCH   4   5
HETATM    5  C   UNL     1      25.596  43.929  50.604  1.00  0.00    -0.023 A 
HETATM    6  C   UNL     1      26.208  45.073  50.058  1.00  0.00     0.012 A 
HETATM    7  C   UNL     1      26.196  46.296  50.742  1.00  0.00     0.037 A 
HETATM    8  C   UNL     1      25.564  46.403  51.977  1.00  0.00     0.068 A 
HETATM    9  C   UNL     1      24.948  45.278  52.524  1.00  0.00     0.037 A 
HETATM   10  C   UNL     1      24.955  44.056  51.846  1.00  0.00     0.012 A 
BRANCH   8  11
HETATM   11  O   UNL     1      25.480  47.529  52.744  1.00  0.00    -0.356 OA
HETATM   12  C   UNL     1      26.007  47.462  54.063  1.00  0.00     0.210 C 
ENDBRANCH   8  11
ENDBRANCH   4   5
BRANCH   4  13
HETATM   13  C   UNL     1      24.436  42.395  48.915  1.00  0.00    -0.023 A 
HETATM   14  C   UNL     1      24.134  41.107  48.436  1.00  0.00     0.009 A 
HETATM   15  C   UNL     1      23.137  40.917  47.478  1.00  0.00     0.001 A 
HETATM   16  C   UNL     1      22.428  42.006  46.980  1.00  0.00     0.000 A 
HETATM   17  C   UNL     1      22.715  43.288  47.439  1.00  0.00     0.001 A 
HETATM   18  C   UNL     1      23.713  43.485  48.394  1.00  0.00     0.009 A 
ENDBRANCH   4  13
ENDBRANCH   1   4
BRANCH   1  19
HETATM   19  C   UNL     1      27.634  41.059  49.764  1.00  0.00     0.336 C 
BRANCH  19  20
HETATM   20  C   UNL     1      28.012  41.362  51.213  1.00  0.00     0.248 C 
HETATM   21  N   UNL     1      28.695  42.547  51.391  1.00  0.00    -0.326 N 
HETATM   22  H   UNL     1      28.942  43.103  50.580  1.00  0.00     0.169 HD
HETATM   23  O   UNL     1      27.792  40.492  52.052  1.00  0.00    -0.271 OA
BRANCH  21  24
HETATM   24  C   UNL     1      29.157  43.073  52.617  1.00  0.00     0.034 A 
HETATM   25  C   UNL     1      30.282  42.606  53.291  1.00  0.00     0.032 A 
HETATM   26  C   UNL     1      30.642  43.150  54.534  1.00  0.00     0.032 A 
HETATM   27  C   UNL     1      29.902  44.178  55.128  1.00  0.00     0.037 A 
HETATM   28  C   UNL     1      28.792  44.660  54.423  1.00  0.00     0.032 A 
HETATM   29  C   UNL     1      28.414  44.106  53.193  1.00  0.00     0.032 A 
BRANCH  27  30
HETATM   30  N   UNL     1      30.241  44.712  56.399  1.00  0.00    -0.318 N 
HETATM   31  C   UNL     1      31.167  44.168  57.306  1.00  0.00     0.224 C 
HETATM   32  O   UNL     1      31.892  43.193  57.176  1.00  0.00    -0.273 OA
HETATM   33  C   UNL     1      31.072  44.957  58.591  1.00  0.00     0.105 C 
HETATM   34  C   UNL     1      30.408  46.247  58.154  1.00  0.00     0.029 C 
HETATM   35  C   UNL     1      29.524  45.811  57.005  1.00  0.00     0.133 C 
ENDBRANCH  27  30
ENDBRANCH  21  24
ENDBRANCH  19  20
ENDBRANCH   1  19
TORSDOF 8
ENDMDL
MODEL 3
REMARK VINA RESULT:      -8.5      2.313      4.654
REMARK  8 active torsions:
REMARK  status: ('A' for Active; 'I' for Inactive)
REMARK    1  A    between atoms: O_2  and  C_3 
REMARK    2  A    between atoms: C_6  and  C_7 
REMARK    3  A    between atoms: C_7  and  N_8 
REMARK    4  A    between atoms: C_7  and  C_27 
REMARK    5  A    between atoms: N_8  and  C_11 
REMARK    6  A    between atoms: C_11  and  C_12 
REMARK       I    between atoms: C_12  and  N_13 
REMARK    7  A    between atoms: N_13  and  C_14 
REMARK    8  A    between atoms: C_17  and  N_18 
ROOT
HETATM    1  N   UNL     1      21.463  48.580  49.456  1.00  0.00    -0.055 N 
HETATM    2  H   UNL     1      21.241  49.239  50.222  1.00  0.00     0.278 HD
HETATM    3  H   UNL     1      21.276  47.662  49.871  1.00  0.00     0.278 HD
ENDROOT
BRANCH   1   4
HETATM    4  C   UNL     1      20.509  48.830  48.334  1.00  0.00     0.252 C 
BRANCH   4   5
HETATM    5  C   UNL     1      19.711  47.604  47.909  1.00  0.00    -0.023 A 
HETATM    6  C   UNL     1      19.725  46.393  48.626  1.00  0.00     0.012 A 
HETATM    7  C   UNL     1      18.972  45.291  48.198  1.00  0.00     0.037 A 
HETATM    8  C   UNL     1      18.183  45.382  47.055  1.00  0.00     0.068 A 
HETATM    9  C   UNL     1      18.156  46.580  46.342  1.00  0.00     0.037 A 
HETATM   10  C   UNL     1      18.903  47.682  46.765  1.00  0.00     0.012 A 
BRANCH   8  11
HETATM   11  O   UNL     1      17.405  44.389  46.532  1.00  0.00    -0.356 OA
HETATM   12  C   UNL     1      17.023  44.508  45.167  1.00  0.00     0.210 C 
ENDBRANCH   8  11
ENDBRANCH   4   5
BRANCH   4  13
HETATM   13  C   UNL     1      19.663  50.046  48.674  1.00  0.00    -0.023 A 
HETATM   14  C   UNL     1      19.982  51.292  48.104  1.00  0.00     0.009 A 
HETATM   15  C   UNL     1      19.268  52.441  48.450  1.00  0.00     0.001 A 
HETATM   16  C   UNL     1      18.228  52.366  49.372  1.00  0.00     0.000 A 
HETATM   17  C   UNL     1      17.900  51.143  49.950  1.00  0.00     0.001 A 
HETATM   18  C   UNL     1      18.614  49.992  49.609  1.00  0.00     0.009 A 
ENDBRANCH   4  13
ENDBRANCH   1   4
BRANCH   1  19
HETATM   19  C   UNL     1      22.928  48.754  49.165  1.00  0.00     0.336 C 
BRANCH  19  20
HETATM   20  C   UNL     1      23.646  47.446  49.493  1.00  0.00     0.248 C 
HETATM   21  N   UNL     1      24.831  47.599  50.182  1.00  0.00    -0.326 N 
HETATM   22  H   UNL     1      25.172  48.534  50.378  1.00  0.00     0.169 HD
HETATM   23  O   UNL     1      23.183  46.410  49.022  1.00  0.00    -0.271 OA
BRANCH  21  24
HETATM   24  C   UNL     1      25.690  46.566  50.614  1.00  0.00     0.034 A 
HETATM   25  C   UNL     1      26.482  45.802  49.762  1.00  0.00     0.032 A 
HETATM   26  C   UNL     1      27.268  44.755  50.270  1.00  0.00     0.032 A 
HETATM   27  C   UNL     1      27.296  44.455  51.637  1.00  0.00     0.037 A 
HETATM   28  C   UNL     1      26.520  45.254  52.487  1.00  0.00     0.032 A 
HETATM   29  C   UNL     1      25.716  46.284  51.982  1.00  0.00     0.032 A 
BRANCH  27  30
HETATM   30  N   UNL     1      28.064  43.379  52.155  1.00  0.00    -0.318 N 
HETATM   31  C   UNL     1      27.769  42.011  52.022  1.00  0.00     0.224 C 
HETATM   32  O   UNL     1      26.860  41.475  51.407  1.00  0.00    -0.273 OA
HETATM   33  C   UNL     1      28.749  41.243  52.878  1.00  0.00     0.105 C 
HETATM   34  C   UNL     1      29.879  42.232  53.080  1.00  0.00     0.029 C 
HETATM   35  C   UNL     1      29.176  43.573  53.059  1.00  0.00     0.133 C 
ENDBRANCH  27  30
ENDBRANCH  21  24
ENDBRANCH  19  20
ENDBRANCH   1  19
TORSDOF 8
ENDMDL
MODEL 4
REMARK VINA RESULT:      -8.4      1.945      4.119
REMARK  8 active torsions:
REMARK  status: ('A' for Active; 'I' for Inactive)
REMARK    1  A    between atoms: O_2  and  C_3 
REMARK    2  A    between atoms: C_6  and  C_7 
REMARK    3  A    between atoms: C_7  and  N_8 
REMARK    4  A    between atoms: C_7  and  C_27 
REMARK    5  A    between atoms: N_8  and  C_11 
REMARK    6  A    between atoms: C_11  and  C_12 
REMARK       I    between atoms: C_12  and  N_13 
REMARK    7  A    between atoms: N_13  and  C_14 
REMARK    8  A    between atoms: C_17  and  N_18 
ROOT
HETATM    1  N   UNL     1      22.723  48.869  49.199  1.00  0.00    -0.055 N 
HETATM    2  H   UNL     1      22.410  49.342  50.065  1.00  0.00     0.278 HD
HETATM    3  H   UNL     1      22.877  47.902  49.500  1.00  0.00     0.278 HD
ENDROOT
BRANCH   1   4
HETATM    4  C   UNL     1      21.603  48.917  48.213  1.00  0.00     0.252 C 
BRANCH   4   5
HETATM    5  C   UNL     1      21.051  47.550  47.829  1.00  0.00    -0.023 A 
HETATM    6  C   UNL     1      20.048  47.372  46.857  1.00  0.00     0.012 A 
HETATM    7  C   UNL     1      19.573  46.094  46.535  1.00  0.00     0.037 A 
HETATM    8  C   UNL     1      20.097  44.970  47.167  1.00  0.00     0.068 A 
HETATM    9  C   UNL     1      21.096  45.135  48.125  1.00  0.00     0.037 A 
HETATM   10  C   UNL     1      21.575  46.407  48.450  1.00  0.00     0.012 A 
BRANCH   8  11
HETATM   11  O   UNL     1      19.724  43.675  46.946  1.00  0.00    -0.356 OA
HETATM   12  C   UNL     1      20.416  42.961  45.929  1.00  0.00     0.210 C 
ENDBRANCH   8  11
ENDBRANCH   4   5
BRANCH   4  13
HETATM   13  C   UNL     1      20.556  49.903  48.708  1.00  0.00    -0.023 A 
HETATM   14  C   UNL     1      20.503  51.193  48.150  1.00  0.00     0.009 A 
HETATM   15  C   UNL     1      19.600  52.143  48.632  1.00  0.00     0.001 A 
HETATM   16  C   UNL     1      18.740  51.823  49.679  1.00  0.00     0.000 A 
HETATM   17  C   UNL     1      18.781  50.552  50.246  1.00  0.00     0.001 A 
HETATM   18  C   UNL     1      19.684  49.600  49.769  1.00  0.00     0.009 A 
ENDBRANCH   4  13
ENDBRANCH   1   4
BRANCH   1  19
HETATM   19  C   UNL     1      24.016  49.528  48.805  1.00  0.00     0.336 C 
BRANCH  19  20
HETATM   20  C   UNL     1      25.170  48.622  49.230  1.00  0.00     0.248 C 
HETATM   21  N   UNL     1      24.787  47.491  49.922  1.00  0.00    -0.326 N 
HETATM   22  H   UNL     1      23.807  47.356  50.145  1.00  0.00     0.169 HD
HETATM   23  O   UNL     1      26.313  49.028  49.034  1.00  0.00    -0.271 OA
BRANCH  21  24
HETATM   24  C   UNL     1      25.640  46.486  50.425  1.00  0.00     0.034 A 
HETATM   25  C   UNL     1      26.413  45.648  49.628  1.00  0.00     0.032 A 
HETATM   26  C   UNL     1      27.195  44.637  50.209  1.00  0.00     0.032 A 
HETATM   27  C   UNL     1      27.237  44.446  51.595  1.00  0.00     0.037 A 
HETATM   28  C   UNL     1      26.480  45.319  52.387  1.00  0.00     0.032 A 
HETATM   29  C   UNL     1      25.680  46.314  51.811  1.00  0.00     0.032 A 
BRANCH  27  30
HETATM   30  N   UNL     1      28.001  43.406  52.189  1.00  0.00    -0.318 N 
HETATM   31  C   UNL     1      27.726  42.030  52.112  1.00  0.00     0.224 C 
HETATM   32  O   UNL     1      26.845  41.453  51.496  1.00  0.00    -0.273 OA
HETATM   33  C   UNL     1      28.687  41.317  53.035  1.00  0.00     0.105 C 
HETATM   34  C   UNL     1      29.798  42.329  53.225  1.00  0.00     0.029 C 
HETATM   35  C   UNL     1      29.080  43.658  53.117  1.00  0.00     0.133 C 
ENDBRANCH  27  30
ENDBRANCH  21  24
ENDBRANCH  19  20
ENDBRANCH   1  19
TORSDOF 8
ENDMDL
MODEL 5
REMARK VINA RESULT:      -8.4      1.665      2.075
REMARK  8 active torsions:
REMARK  status: ('A' for Active; 'I' for Inactive)
REMARK    1  A    between atoms: O_2  and  C_3 
REMARK    2  A    between atoms: C_6  and  C_7 
REMARK    3  A    between atoms: C_7  and  N_8 
REMARK    4  A    between atoms: C_7  and  C_27 
REMARK    5  A    between atoms: N_8  and  C_11 
REMARK    6  A    between atoms: C_11  and  C_12 
REMARK       I    between atoms: C_12  and  N_13 
REMARK    7  A    between atoms: N_13  and  C_14 
REMARK    8  A    between atoms: C_17  and  N_18 
ROOT
HETATM    1  N   UNL     1      20.714  47.920  47.653  1.00  0.00    -0.055 N 
HETATM    2  H   UNL     1      19.835  48.287  47.248  1.00  0.00     0.278 HD
HETATM    3  H   UNL     1      21.351  47.890  46.850  1.00  0.00     0.278 HD
ENDROOT
BRANCH   1   4
HETATM    4  C   UNL     1      21.213  48.909  48.654  1.00  0.00     0.252 C 
BRANCH   4   5
HETATM    5  C   UNL     1      22.703  49.207  48.548  1.00  0.00    -0.023 A 
HETATM    6  C   UNL     1      23.222  50.259  47.770  1.00  0.00     0.012 A 
HETATM    7  C   UNL     1      24.601  50.497  47.704  1.00  0.00     0.037 A 
HETATM    8  C   UNL     1      25.487  49.698  48.422  1.00  0.00     0.068 A 
HETATM    9  C   UNL     1      24.982  48.658  49.202  1.00  0.00     0.037 A 
HETATM   10  C   UNL     1      23.608  48.417  49.273  1.00  0.00     0.012 A 
BRANCH   8  11
HETATM   11  O   UNL     1      26.846  49.822  48.445  1.00  0.00    -0.356 OA
HETATM   12  C   UNL     1      27.584  48.800  49.103  1.00  0.00     0.210 C 
ENDBRANCH   8  11
ENDBRANCH   4   5
BRANCH   4  13
HETATM   13  C   UNL     1      20.320  50.138  48.615  1.00  0.00    -0.023 A 
HETATM   14  C   UNL     1      20.122  50.888  49.789  1.00  0.00     0.009 A 
HETATM   15  C   UNL     1      19.253  51.981  49.801  1.00  0.00     0.001 A 
HETATM   16  C   UNL     1      18.565  52.340  48.645  1.00  0.00     0.000 A 
HETATM   17  C   UNL     1      18.745  51.608  47.476  1.00  0.00     0.001 A 
HETATM   18  C   UNL     1      19.611  50.513  47.459  1.00  0.00     0.009 A 
ENDBRANCH   4  13
ENDBRANCH   1   4
BRANCH   1  19
HETATM   19  C   UNL     1      20.401  46.535  48.149  1.00  0.00     0.336 C 
BRANCH  19  20
HETATM   20  C   UNL     1      21.642  45.664  47.967  1.00  0.00     0.248 C 
HETATM   21  N   UNL     1      22.043  44.992  49.102  1.00  0.00    -0.326 N 
HETATM   22  H   UNL     1      21.544  45.147  49.971  1.00  0.00     0.169 HD
HETATM   23  O   UNL     1      22.231  45.732  46.890  1.00  0.00    -0.271 OA
BRANCH  21  24
HETATM   24  C   UNL     1      23.148  44.120  49.216  1.00  0.00     0.034 A 
HETATM   25  C   UNL     1      23.111  42.768  48.888  1.00  0.00     0.032 A 
HETATM   26  C   UNL     1      24.242  41.959  49.082  1.00  0.00     0.032 A 
HETATM   27  C   UNL     1      25.437  42.478  49.593  1.00  0.00     0.037 A 
HETATM   28  C   UNL     1      25.470  43.847  49.887  1.00  0.00     0.032 A 
HETATM   29  C   UNL     1      24.337  44.654  49.717  1.00  0.00     0.032 A 
BRANCH  27  30
HETATM   30  N   UNL     1      26.576  41.661  49.822  1.00  0.00    -0.318 N 
HETATM   31  C   UNL     1      27.531  41.285  48.862  1.00  0.00     0.224 C 
HETATM   32  O   UNL     1      27.618  41.614  47.690  1.00  0.00    -0.273 OA
HETATM   33  C   UNL     1      28.453  40.273  49.503  1.00  0.00     0.105 C 
HETATM   34  C   UNL     1      28.239  40.502  50.985  1.00  0.00     0.029 C 
HETATM   35  C   UNL     1      26.795  40.952  51.063  1.00  0.00     0.133 C 
ENDBRANCH  27  30
ENDBRANCH  21  24
ENDBRANCH  19  20
ENDBRANCH   1  19
TORSDOF 8
ENDMDL
MODEL 6
REMARK VINA RESULT:      -8.3      2.653      8.749
REMARK  8 active torsions:
REMARK  status: ('A' for Active; 'I' for Inactive)
REMARK    1  A    between atoms: O_2  and  C_3 
REMARK    2  A    between atoms: C_6  and  C_7 
REMARK    3  A    between atoms: C_7  and  N_8 
REMARK    4  A    between atoms: C_7  and  C_27 
REMARK    5  A    between atoms: N_8  and  C_11 
REMARK    6  A    between atoms: C_11  and  C_12 
REMARK       I    between atoms: C_12  and  N_13 
REMARK    7  A    between atoms: N_13  and  C_14 
REMARK    8  A    between atoms: C_17  and  N_18 
ROOT
HETATM    1  N   UNL     1      24.571  45.658  49.171  1.00  0.00    -0.055 N 
HETATM    2  H   UNL     1      24.853  46.068  48.263  1.00  0.00     0.278 HD
HETATM    3  H   UNL     1      25.243  44.896  49.307  1.00  0.00     0.278 HD
ENDROOT
BRANCH   1   4
HETATM    4  C   UNL     1      24.763  46.694  50.229  1.00  0.00     0.252 C 
BRANCH   4   5
HETATM    5  C   UNL     1      25.469  46.185  51.479  1.00  0.00    -0.023 A 
HETATM    6  C   UNL     1      26.152  44.955  51.528  1.00  0.00     0.012 A 
HETATM    7  C   UNL     1      26.789  44.528  52.701  1.00  0.00     0.037 A 
HETATM    8  C   UNL     1      26.768  45.326  53.842  1.00  0.00     0.068 A 
HETATM    9  C   UNL     1      26.102  46.550  53.801  1.00  0.00     0.037 A 
HETATM   10  C   UNL     1      25.465  46.982  52.634  1.00  0.00     0.012 A 
BRANCH   8  11
HETATM   11  O   UNL     1      27.346  45.029  55.042  1.00  0.00    -0.356 OA
HETATM   12  C   UNL     1      28.248  45.985  55.586  1.00  0.00     0.210 C 
ENDBRANCH   8  11
ENDBRANCH   4   5
BRANCH   4  13
HETATM   13  C   UNL     1      25.402  47.922  49.601  1.00  0.00    -0.023 A 
HETATM   14  C   UNL     1      24.587  48.875  48.962  1.00  0.00     0.009 A 
HETATM   15  C   UNL     1      25.150  49.977  48.315  1.00  0.00     0.001 A 
HETATM   16  C   UNL     1      26.532  50.144  48.292  1.00  0.00     0.000 A 
HETATM   17  C   UNL     1      27.354  49.211  48.916  1.00  0.00     0.001 A 
HETATM   18  C   UNL     1      26.796  48.105  49.561  1.00  0.00     0.009 A 
ENDBRANCH   4  13
ENDBRANCH   1   4
BRANCH   1  19
HETATM   19  C   UNL     1      23.178  45.124  48.975  1.00  0.00     0.336 C 
BRANCH  19  20
HETATM   20  C   UNL     1      22.328  46.216  48.328  1.00  0.00     0.248 C 
HETATM   21  N   UNL     1      21.344  46.735  49.143  1.00  0.00    -0.326 N 
HETATM   22  H   UNL     1      21.211  46.344  50.069  1.00  0.00     0.169 HD
HETATM   23  O   UNL     1      22.508  46.443  47.134  1.00  0.00    -0.271 OA
BRANCH  21  24
HETATM   24  C   UNL     1      20.423  47.750  48.805  1.00  0.00     0.034 A 
HETATM   25  C   UNL     1      20.782  49.064  48.520  1.00  0.00     0.032 A 
HETATM   26  C   UNL     1      19.796  50.026  48.245  1.00  0.00     0.032 A 
HETATM   27  C   UNL     1      18.436  49.700  48.234  1.00  0.00     0.037 A 
HETATM   28  C   UNL     1      18.092  48.366  48.490  1.00  0.00     0.032 A 
HETATM   29  C   UNL     1      19.069  47.408  48.787  1.00  0.00     0.032 A 
BRANCH  27  30
HETATM   30  N   UNL     1      17.431  50.673  47.988  1.00  0.00    -0.318 N 
HETATM   31  C   UNL     1      16.839  51.513  48.947  1.00  0.00     0.224 C 
HETATM   32  O   UNL     1      17.092  51.624  50.136  1.00  0.00    -0.273 OA
HETATM   33  C   UNL     1      15.703  52.249  48.275  1.00  0.00     0.105 C 
HETATM   34  C   UNL     1      16.036  52.127  46.803  1.00  0.00     0.029 C 
HETATM   35  C   UNL     1      16.752  50.795  46.717  1.00  0.00     0.133 C 
ENDBRANCH  27  30
ENDBRANCH  21  24
ENDBRANCH  19  20
ENDBRANCH   1  19
TORSDOF 8
ENDMDL
MODEL 7
REMARK VINA RESULT:      -8.3      2.941      9.645
REMARK  8 active torsions:
REMARK  status: ('A' for Active; 'I' for Inactive)
REMARK    1  A    between atoms: O_2  and  C_3 
REMARK    2  A    between atoms: C_6  and  C_7 
REMARK    3  A    between atoms: C_7  and  N_8 
REMARK    4  A    between atoms: C_7  and  C_27 
REMARK    5  A    between atoms: N_8  and  C_11 
REMARK    6  A    between atoms: C_11  and  C_12 
REMARK       I    between atoms: C_12  and  N_13 
REMARK    7  A    between atoms: N_13  and  C_14 
REMARK    8  A    between atoms: C_17  and  N_18 
ROOT
HETATM    1  N   UNL     1      24.131  47.061  50.265  1.00  0.00    -0.055 N 
HETATM    2  H   UNL     1      23.274  46.605  49.905  1.00  0.00     0.278 HD
HETATM    3  H   UNL     1      23.853  47.385  51.197  1.00  0.00     0.278 HD
ENDROOT
BRANCH   1   4
HETATM    4  C   UNL     1      25.194  46.020  50.389  1.00  0.00     0.252 C 
BRANCH   4   5
HETATM    5  C   UNL     1      25.868  45.976  51.755  1.00  0.00    -0.023 A 
HETATM    6  C   UNL     1      26.662  44.896  52.186  1.00  0.00     0.012 A 
HETATM    7  C   UNL     1      27.264  44.901  53.451  1.00  0.00     0.037 A 
HETATM    8  C   UNL     1      27.095  45.988  54.305  1.00  0.00     0.068 A 
HETATM    9  C   UNL     1      26.317  47.066  53.884  1.00  0.00     0.037 A 
HETATM   10  C   UNL     1      25.715  47.068  52.624  1.00  0.00     0.012 A 
BRANCH   8  11
HETATM   11  O   UNL     1      27.624  46.118  55.556  1.00  0.00    -0.356 OA
HETATM   12  C   UNL     1      29.042  46.133  55.667  1.00  0.00     0.210 C 
ENDBRANCH   8  11
ENDBRANCH   4   5
BRANCH   4  13
HETATM   13  C   UNL     1      24.632  44.687  49.921  1.00  0.00    -0.023 A 
HETATM   14  C   UNL     1      23.375  44.264  50.390  1.00  0.00     0.009 A 
HETATM   15  C   UNL     1      22.863  43.015  50.034  1.00  0.00     0.001 A 
HETATM   16  C   UNL     1      23.597  42.168  49.209  1.00  0.00     0.000 A 
HETATM   17  C   UNL     1      24.844  42.567  48.739  1.00  0.00     0.001 A 
HETATM   18  C   UNL     1      25.362  43.814  49.094  1.00  0.00     0.009 A 
ENDBRANCH   4  13
ENDBRANCH   1   4
BRANCH   1  19
HETATM   19  C   UNL     1      24.407  48.221  49.348  1.00  0.00     0.336 C 
BRANCH  19  20
HETATM   20  C   UNL     1      23.077  48.726  48.794  1.00  0.00     0.248 C 
HETATM   21  N   UNL     1      22.357  49.519  49.663  1.00  0.00    -0.326 N 
HETATM   22  H   UNL     1      22.711  49.673  50.600  1.00  0.00     0.169 HD
HETATM   23  O   UNL     1      22.716  48.295  47.701  1.00  0.00    -0.271 OA
BRANCH  21  24
HETATM   24  C   UNL     1      21.105  50.121  49.409  1.00  0.00     0.034 A 
HETATM   25  C   UNL     1      20.941  51.324  48.731  1.00  0.00     0.032 A 
HETATM   26  C   UNL     1      19.662  51.880  48.569  1.00  0.00     0.032 A 
HETATM   27  C   UNL     1      18.518  51.246  49.064  1.00  0.00     0.037 A 
HETATM   28  C   UNL     1      18.694  50.018  49.716  1.00  0.00     0.032 A 
HETATM   29  C   UNL     1      19.970  49.471  49.901  1.00  0.00     0.032 A 
BRANCH  27  30
HETATM   30  N   UNL     1      17.224  51.816  48.932  1.00  0.00    -0.318 N 
HETATM   31  C   UNL     1      16.466  51.885  47.751  1.00  0.00     0.224 C 
HETATM   32  O   UNL     1      16.721  51.437  46.644  1.00  0.00    -0.273 OA
HETATM   33  C   UNL     1      15.246  52.730  48.035  1.00  0.00     0.105 C 
HETATM   34  C   UNL     1      15.146  52.692  49.546  1.00  0.00     0.029 C 
HETATM   35  C   UNL     1      16.589  52.573  49.988  1.00  0.00     0.133 C 
ENDBRANCH  27  30
ENDBRANCH  21  24
ENDBRANCH  19  20
ENDBRANCH   1  19
TORSDOF 8
ENDMDL
MODEL 8
REMARK VINA RESULT:      -8.2      3.738      8.757
REMARK  8 active torsions:
REMARK  status: ('A' for Active; 'I' for Inactive)
REMARK    1  A    between atoms: O_2  and  C_3 
REMARK    2  A    between atoms: C_6  and  C_7 
REMARK    3  A    between atoms: C_7  and  N_8 
REMARK    4  A    between atoms: C_7  and  C_27 
REMARK    5  A    between atoms: N_8  and  C_11 
REMARK    6  A    between atoms: C_11  and  C_12 
REMARK       I    between atoms: C_12  and  N_13 
REMARK    7  A    between atoms: N_13  and  C_14 
REMARK    8  A    between atoms: C_17  and  N_18 
ROOT
HETATM    1  N   UNL     1      27.549  42.200  53.649  1.00  0.00    -0.055 N 
HETATM    2  H   UNL     1      27.788  41.944  54.623  1.00  0.00     0.278 HD
HETATM    3  H   UNL     1      26.534  42.340  53.683  1.00  0.00     0.278 HD
ENDROOT
BRANCH   1   4
HETATM    4  C   UNL     1      28.226  43.492  53.328  1.00  0.00     0.252 C 
BRANCH   4   5
HETATM    5  C   UNL     1      27.281  44.591  52.861  1.00  0.00    -0.023 A 
HETATM    6  C   UNL     1      26.533  45.389  53.748  1.00  0.00     0.012 A 
HETATM    7  C   UNL     1      25.677  46.392  53.272  1.00  0.00     0.037 A 
HETATM    8  C   UNL     1      25.562  46.625  51.905  1.00  0.00     0.068 A 
HETATM    9  C   UNL     1      26.305  45.846  51.019  1.00  0.00     0.037 A 
HETATM   10  C   UNL     1      27.160  44.846  51.487  1.00  0.00     0.012 A 
BRANCH   8  11
HETATM   11  O   UNL     1      24.769  47.566  51.313  1.00  0.00    -0.356 OA
HETATM   12  C   UNL     1      24.813  47.658  49.894  1.00  0.00     0.210 C 
ENDBRANCH   8  11
ENDBRANCH   4   5
BRANCH   4  13
HETATM   13  C   UNL     1      29.117  43.881  54.496  1.00  0.00    -0.023 A 
HETATM   14  C   UNL     1      28.999  45.164  55.060  1.00  0.00     0.009 A 
HETATM   15  C   UNL     1      29.851  45.575  56.087  1.00  0.00     0.001 A 
HETATM   16  C   UNL     1      30.835  44.715  56.564  1.00  0.00     0.000 A 
HETATM   17  C   UNL     1      30.971  43.443  56.017  1.00  0.00     0.001 A 
HETATM   18  C   UNL     1      30.123  43.029  54.988  1.00  0.00     0.009 A 
ENDBRANCH   4  13
ENDBRANCH   1   4
BRANCH   1  19
HETATM   19  C   UNL     1      27.903  41.008  52.803  1.00  0.00     0.336 C 
BRANCH  19  20
HETATM   20  C   UNL     1      27.313  41.212  51.409  1.00  0.00     0.248 C 
HETATM   21  N   UNL     1      25.960  41.479  51.392  1.00  0.00    -0.326 N 
HETATM   22  H   UNL     1      25.444  41.474  52.265  1.00  0.00     0.169 HD
HETATM   23  O   UNL     1      28.047  41.004  50.446  1.00  0.00    -0.271 OA
BRANCH  21  24
HETATM   24  C   UNL     1      25.165  41.712  50.249  1.00  0.00     0.034 A 
HETATM   25  C   UNL     1      25.228  40.951  49.086  1.00  0.00     0.032 A 
HETATM   26  C   UNL     1      24.439  41.285  47.974  1.00  0.00     0.032 A 
HETATM   27  C   UNL     1      23.561  42.374  47.998  1.00  0.00     0.037 A 
HETATM   28  C   UNL     1      23.483  43.112  49.187  1.00  0.00     0.032 A 
HETATM   29  C   UNL     1      24.285  42.797  50.291  1.00  0.00     0.032 A 
BRANCH  27  30
HETATM   30  N   UNL     1      22.782  42.738  46.867  1.00  0.00    -0.318 N 
HETATM   31  C   UNL     1      21.658  42.051  46.380  1.00  0.00     0.224 C 
HETATM   32  O   UNL     1      21.096  41.068  46.838  1.00  0.00    -0.273 OA
HETATM   33  C   UNL     1      21.264  42.686  45.067  1.00  0.00     0.105 C 
HETATM   34  C   UNL     1      21.927  44.046  45.129  1.00  0.00     0.029 C 
HETATM   35  C   UNL     1      23.171  43.788  45.953  1.00  0.00     0.133 C 
ENDBRANCH  27  30
ENDBRANCH  21  24
ENDBRANCH  19  20
ENDBRANCH   1  19
TORSDOF 8
ENDMDL
MODEL 9
REMARK VINA RESULT:      -8.1      2.063      4.421
REMARK  8 active torsions:
REMARK  status: ('A' for Active; 'I' for Inactive)
REMARK    1  A    between atoms: O_2  and  C_3 
REMARK    2  A    between atoms: C_6  and  C_7 
REMARK    3  A    between atoms: C_7  and  N_8 
REMARK    4  A    between atoms: C_7  and  C_27 
REMARK    5  A    between atoms: N_8  and  C_11 
REMARK    6  A    between atoms: C_11  and  C_12 
REMARK       I    between atoms: C_12  and  N_13 
REMARK    7  A    between atoms: N_13  and  C_14 
REMARK    8  A    between atoms: C_17  and  N_18 
ROOT
HETATM    1  N   UNL     1      21.738  47.236  49.199  1.00  0.00    -0.055 N 
HETATM    2  H   UNL     1      22.507  47.199  49.891  1.00  0.00     0.278 HD
HETATM    3  H   UNL     1      20.894  47.225  49.781  1.00  0.00     0.278 HD
ENDROOT
BRANCH   1   4
HETATM    4  C   UNL     1      21.830  48.536  48.470  1.00  0.00     0.252 C 
BRANCH   4   5
HETATM    5  C   UNL     1      20.811  49.576  48.917  1.00  0.00    -0.023 A 
HETATM    6  C   UNL     1      20.784  50.891  48.415  1.00  0.00     0.012 A 
HETATM    7  C   UNL     1      19.825  51.813  48.855  1.00  0.00     0.037 A 
HETATM    8  C   UNL     1      18.869  51.437  49.794  1.00  0.00     0.068 A 
HETATM    9  C   UNL     1      18.881  50.135  50.291  1.00  0.00     0.037 A 
HETATM   10  C   UNL     1      19.834  49.210  49.856  1.00  0.00     0.012 A 
BRANCH   8  11
HETATM   11  O   UNL     1      17.884  52.234  50.303  1.00  0.00    -0.356 OA
HETATM   12  C   UNL     1      16.635  52.246  49.621  1.00  0.00     0.210 C 
ENDBRANCH   8  11
ENDBRANCH   4   5
BRANCH   4  13
HETATM   13  C   UNL     1      23.273  49.014  48.502  1.00  0.00    -0.023 A 
HETATM   14  C   UNL     1      23.687  50.025  47.616  1.00  0.00     0.009 A 
HETATM   15  C   UNL     1      25.021  50.435  47.573  1.00  0.00     0.001 A 
HETATM   16  C   UNL     1      25.962  49.842  48.410  1.00  0.00     0.000 A 
HETATM   17  C   UNL     1      25.573  48.838  49.291  1.00  0.00     0.001 A 
HETATM   18  C   UNL     1      24.241  48.422  49.335  1.00  0.00     0.009 A 
ENDBRANCH   4  13
ENDBRANCH   1   4
BRANCH   1  19
HETATM   19  C   UNL     1      21.849  45.979  48.382  1.00  0.00     0.336 C 
BRANCH  19  20
HETATM   20  C   UNL     1      22.918  45.086  49.008  1.00  0.00     0.248 C 
HETATM   21  N   UNL     1      23.702  45.709  49.957  1.00  0.00    -0.326 N 
HETATM   22  H   UNL     1      23.565  46.697  50.141  1.00  0.00     0.169 HD
HETATM   23  O   UNL     1      23.065  43.960  48.539  1.00  0.00    -0.271 OA
BRANCH  21  24
HETATM   24  C   UNL     1      24.754  45.123  50.693  1.00  0.00     0.034 A 
HETATM   25  C   UNL     1      24.600  44.543  51.948  1.00  0.00     0.032 A 
HETATM   26  C   UNL     1      25.712  44.030  52.635  1.00  0.00     0.032 A 
HETATM   27  C   UNL     1      26.997  44.069  52.084  1.00  0.00     0.037 A 
HETATM   28  C   UNL     1      27.132  44.626  50.806  1.00  0.00     0.032 A 
HETATM   29  C   UNL     1      26.031  45.160  50.126  1.00  0.00     0.032 A 
BRANCH  27  30
HETATM   30  N   UNL     1      28.132  43.581  52.786  1.00  0.00    -0.318 N 
HETATM   31  C   UNL     1      28.624  44.072  54.007  1.00  0.00     0.224 C 
HETATM   32  O   UNL     1      28.169  44.947  54.727  1.00  0.00    -0.273 OA
HETATM   33  C   UNL     1      29.939  43.381  54.284  1.00  0.00     0.105 C 
HETATM   34  C   UNL     1      29.874  42.150  53.403  1.00  0.00     0.029 C 
HETATM   35  C   UNL     1      29.044  42.612  52.223  1.00  0.00     0.133 C 
ENDBRANCH  27  30
ENDBRANCH  21  24
ENDBRANCH  19  20
ENDBRANCH   1  19
TORSDOF 8
ENDMDL
MODEL 10
REMARK VINA RESULT:      -8.0      5.602      9.245
REMARK  8 active torsions:
REMARK  status: ('A' for Active; 'I' for Inactive)
REMARK    1  A    between atoms: O_2  and  C_3 
REMARK    2  A    between atoms: C_6  and  C_7 
REMARK    3  A    between atoms: C_7  and  N_8 
REMARK    4  A    between atoms: C_7  and  C_27 
REMARK    5  A    between atoms: N_8  and  C_11 
REMARK    6  A    between atoms: C_11  and  C_12 
REMARK       I    between atoms: C_12  and  N_13 
REMARK    7  A    between atoms: N_13  and  C_14 
REMARK    8  A    between atoms: C_17  and  N_18 
ROOT
HETATM    1  N   UNL     1      28.961  42.071  52.083  1.00  0.00    -0.055 N 
HETATM    2  H   UNL     1      28.929  42.429  51.113  1.00  0.00     0.278 HD
HETATM    3  H   UNL     1      29.921  42.276  52.380  1.00  0.00     0.278 HD
ENDROOT
BRANCH   1   4
HETATM    4  C   UNL     1      28.000  42.865  52.905  1.00  0.00     0.252 C 
BRANCH   4   5
HETATM    5  C   UNL     1      28.655  43.711  53.988  1.00  0.00    -0.023 A 
HETATM    6  C   UNL     1      28.103  44.917  54.461  1.00  0.00     0.012 A 
HETATM    7  C   UNL     1      28.741  45.661  55.462  1.00  0.00     0.037 A 
HETATM    8  C   UNL     1      29.935  45.210  56.019  1.00  0.00     0.068 A 
HETATM    9  C   UNL     1      30.486  44.013  55.563  1.00  0.00     0.037 A 
HETATM   10  C   UNL     1      29.854  43.266  54.566  1.00  0.00     0.012 A 
BRANCH   8  11
HETATM   11  O   UNL     1      30.655  45.836  56.995  1.00  0.00    -0.356 OA
HETATM   12  C   UNL     1      30.284  45.581  58.345  1.00  0.00     0.210 C 
ENDBRANCH   8  11
ENDBRANCH   4   5
BRANCH   4  13
HETATM   13  C   UNL     1      27.081  43.638  51.972  1.00  0.00    -0.023 A 
HETATM   14  C   UNL     1      27.616  44.243  50.820  1.00  0.00     0.009 A 
HETATM   15  C   UNL     1      26.812  45.018  49.982  1.00  0.00     0.001 A 
HETATM   16  C   UNL     1      25.465  45.204  50.280  1.00  0.00     0.000 A 
HETATM   17  C   UNL     1      24.919  44.616  51.417  1.00  0.00     0.001 A 
HETATM   18  C   UNL     1      25.720  43.843  52.260  1.00  0.00     0.009 A 
ENDBRANCH   4  13
ENDBRANCH   1   4
BRANCH   1  19
HETATM   19  C   UNL     1      28.728  40.588  51.991  1.00  0.00     0.336 C 
BRANCH  19  20
HETATM   20  C   UNL     1      28.053  40.287  50.655  1.00  0.00     0.248 C 
HETATM   21  N   UNL     1      28.925  40.108  49.600  1.00  0.00    -0.326 N 
HETATM   22  H   UNL     1      29.919  40.233  49.754  1.00  0.00     0.169 HD
HETATM   23  O   UNL     1      26.827  40.350  50.609  1.00  0.00    -0.271 OA
BRANCH  21  24
HETATM   24  C   UNL     1      28.576  39.815  48.264  1.00  0.00     0.034 A 
HETATM   25  C   UNL     1      28.496  38.527  47.743  1.00  0.00     0.032 A 
HETATM   26  C   UNL     1      28.194  38.327  46.386  1.00  0.00     0.032 A 
HETATM   27  C   UNL     1      27.952  39.400  45.522  1.00  0.00     0.037 A 
HETATM   28  C   UNL     1      28.003  40.689  46.068  1.00  0.00     0.032 A 
HETATM   29  C   UNL     1      28.326  40.896  47.415  1.00  0.00     0.032 A 
BRANCH  27  30
HETATM   30  N   UNL     1      27.677  39.208  44.142  1.00  0.00    -0.318 N 
HETATM   31  C   UNL     1      28.548  39.493  43.077  1.00  0.00     0.224 C 
HETATM   32  O   UNL     1      29.701  39.895  43.109  1.00  0.00    -0.273 OA
HETATM   33  C   UNL     1      27.778  39.307  41.790  1.00  0.00     0.105 C 
HETATM   34  C   UNL     1      26.611  38.437  42.210  1.00  0.00     0.029 C 
HETATM   35  C   UNL     1      26.367  38.852  43.646  1.00  0.00     0.133 C 
ENDBRANCH  27  30
ENDBRANCH  21  24
ENDBRANCH  19  20
ENDBRANCH   1  19
TORSDOF 8
ENDMDL
