MODEL 1
REMARK VINA RESULT:      -9.5      0.000      0.000
REMARK  7 active torsions:
REMARK  status: ('A' for Active; 'I' for Inactive)
REMARK    1  A    between atoms: C_2  and  O_3 
REMARK    2  A    between atoms: O_3  and  C_4 
REMARK    3  A    between atoms: C_7  and  N_8 
REMARK    4  A    between atoms: C_9  and  C_11 
REMARK    5  A    between atoms: C_9  and  O_10 
REMARK       I    between atoms: C_11  and  N_12 
REMARK    6  A    between atoms: N_12  and  C_13 
REMARK    7  A    between atoms: C_13  and  C_14 
ROOT
HETATM    1  N   UNL     1      26.198  42.657  51.368  1.00  0.00    -0.254 N 
HETATM    2  C   UNL     1      27.295  41.715  51.664  1.00  0.00     0.256 C 
HETATM    3  C   UNL     1      27.509  40.680  50.576  1.00  0.00     0.034 A 
HETATM    4  C   UNL     1      26.456  40.409  49.709  1.00  0.00     0.048 A 
HETATM    5  N   UNL     1      25.279  41.134  49.833  1.00  0.00    -0.308 N 
HETATM    6  C   UNL     1      25.107  42.232  50.623  1.00  0.00     0.330 C 
HETATM    7  O   UNL     1      24.019  42.809  50.570  1.00  0.00    -0.246 OA
HETATM    8  C   UNL     1      28.683  39.912  50.455  1.00  0.00     0.015 A 
HETATM    9  C   UNL     1      28.797  38.933  49.465  1.00  0.00     0.001 A 
HETATM   10  C   UNL     1      27.733  38.688  48.600  1.00  0.00     0.002 A 
HETATM   11  C   UNL     1      26.554  39.421  48.728  1.00  0.00     0.030 A 
HETATM   12  H   UNL     1      24.488  40.920  49.240  1.00  0.00     0.170 HD
ENDROOT
BRANCH   2  13
HETATM   13  C   UNL     1      28.671  42.433  51.996  1.00  0.00     0.279 C 
HETATM   14  N   UNL     1      29.227  42.042  53.205  1.00  0.00    -0.352 N 
HETATM   15  H   UNL     1      28.878  41.175  53.602  1.00  0.00     0.162 HD
HETATM   16  O   UNL     1      29.194  43.290  51.283  1.00  0.00    -0.268 OA
BRANCH  14  17
HETATM   17  C   UNL     1      30.501  42.550  53.643  1.00  0.00     0.161 C 
BRANCH  17  18
HETATM   18  C   UNL     1      30.325  43.516  54.783  1.00  0.00    -0.038 A 
HETATM   19  C   UNL     1      31.127  43.414  55.931  1.00  0.00     0.048 A 
HETATM   20  C   UNL     1      30.918  44.318  56.952  1.00  0.00     0.105 A 
HETATM   21  C   UNL     1      29.952  45.292  56.872  1.00  0.00     0.105 A 
HETATM   22  O   UNL     1      31.608  44.365  58.123  1.00  0.00    -0.323 OA
HETATM   23  O   UNL     1      29.915  46.078  57.982  1.00  0.00    -0.323 OA
HETATM   24  C   UNL     1      29.136  45.416  55.770  1.00  0.00     0.040 A 
HETATM   25  C   UNL     1      30.975  45.490  58.766  1.00  0.00     0.352 A 
HETATM   26  C   UNL     1      29.324  44.514  54.718  1.00  0.00     0.012 A 
ENDBRANCH  17  18
ENDBRANCH  14  17
ENDBRANCH   2  13
BRANCH   2  27
HETATM   27  O   UNL     1      26.887  40.962  52.823  1.00  0.00    -0.359 OA
HETATM   28  H   UNL     1      27.720  40.642  53.202  1.00  0.00     0.213 HD
ENDBRANCH   2  27
BRANCH   1  29
HETATM   29  C   UNL     1      26.049  43.820  52.189  1.00  0.00     0.043 A 
HETATM   30  C   UNL     1      26.327  45.097  51.691  1.00  0.00     0.032 A 
HETATM   31  C   UNL     1      26.159  46.224  52.501  1.00  0.00     0.039 A 
HETATM   32  C   UNL     1      25.736  46.093  53.826  1.00  0.00     0.068 A 
HETATM   33  C   UNL     1      25.490  44.821  54.336  1.00  0.00     0.039 A 
HETATM   34  C   UNL     1      25.655  43.693  53.525  1.00  0.00     0.032 A 
BRANCH  32  35
HETATM   35  O   UNL     1      25.614  47.271  54.509  1.00  0.00    -0.352 OA
BRANCH  35  36
HETATM   36  C   UNL     1      26.814  47.851  55.017  1.00  0.00     0.171 C 
HETATM   37  C   UNL     1      26.436  48.843  56.103  1.00  0.00     0.034 C 
ENDBRANCH  35  36
ENDBRANCH  32  35
ENDBRANCH   1  29
TORSDOF 7
ENDMDL
MODEL 2
REMARK VINA RESULT:      -9.4      2.216      3.621
REMARK  7 active torsions:
REMARK  status: ('A' for Active; 'I' for Inactive)
REMARK    1  A    between atoms: C_2  and  O_3 
REMARK    2  A    between atoms: O_3  and  C_4 
REMARK    3  A    between atoms: C_7  and  N_8 
REMARK    4  A    between atoms: C_9  and  C_11 
REMARK    5  A    between atoms: C_9  and  O_10 
REMARK       I    between atoms: C_11  and  N_12 
REMARK    6  A    between atoms: N_12  and  C_13 
REMARK    7  A    between atoms: C_13  and  C_14 
ROOT
HETATM    1  N   UNL     1      26.964  41.786  49.701  1.00  0.00    -0.254 N 
HETATM    2  C   UNL     1      27.431  40.972  50.841  1.00  0.00     0.256 C 
HETATM    3  C   UNL     1      28.372  39.853  50.436  1.00  0.00     0.034 A 
HETATM    4  C   UNL     1      28.337  39.410  49.119  1.00  0.00     0.048 A 
HETATM    5  N   UNL     1      27.494  40.044  48.217  1.00  0.00    -0.308 N 
HETATM    6  C   UNL     1      26.808  41.198  48.454  1.00  0.00     0.330 C 
HETATM    7  O   UNL     1      26.155  41.675  47.524  1.00  0.00    -0.246 OA
HETATM    8  C   UNL     1      29.209  39.177  51.343  1.00  0.00     0.015 A 
HETATM    9  C   UNL     1      30.012  38.115  50.918  1.00  0.00     0.001 A 
HETATM   10  C   UNL     1      29.969  37.696  49.591  1.00  0.00     0.002 A 
HETATM   11  C   UNL     1      29.123  38.338  48.689  1.00  0.00     0.030 A 
HETATM   12  H   UNL     1      27.424  39.706  47.266  1.00  0.00     0.170 HD
ENDROOT
BRANCH   2  13
HETATM   13  C   UNL     1      28.091  41.832  52.000  1.00  0.00     0.279 C 
HETATM   14  N   UNL     1      27.350  41.851  53.172  1.00  0.00    -0.352 N 
HETATM   15  H   UNL     1      26.648  41.124  53.273  1.00  0.00     0.162 HD
HETATM   16  O   UNL     1      29.141  42.464  51.881  1.00  0.00    -0.268 OA
BRANCH  14  17
HETATM   17  C   UNL     1      27.823  42.536  54.347  1.00  0.00     0.161 C 
BRANCH  17  18
HETATM   18  C   UNL     1      27.248  43.924  54.420  1.00  0.00    -0.038 A 
HETATM   19  C   UNL     1      28.009  44.983  54.941  1.00  0.00     0.048 A 
HETATM   20  C   UNL     1      27.430  46.234  54.995  1.00  0.00     0.105 A 
HETATM   21  C   UNL     1      26.144  46.458  54.565  1.00  0.00     0.105 A 
HETATM   22  O   UNL     1      28.027  47.364  55.460  1.00  0.00    -0.323 OA
HETATM   23  O   UNL     1      25.771  47.759  54.702  1.00  0.00    -0.323 OA
HETATM   24  C   UNL     1      25.360  45.444  54.062  1.00  0.00     0.040 A 
HETATM   25  C   UNL     1      26.973  48.329  55.261  1.00  0.00     0.352 A 
HETATM   26  C   UNL     1      25.920  44.164  53.994  1.00  0.00     0.012 A 
ENDBRANCH  17  18
ENDBRANCH  14  17
ENDBRANCH   2  13
BRANCH   2  27
HETATM   27  O   UNL     1      26.268  40.310  51.375  1.00  0.00    -0.359 OA
HETATM   28  H   UNL     1      25.537  40.641  50.830  1.00  0.00     0.213 HD
ENDBRANCH   2  27
BRANCH   1  29
HETATM   29  C   UNL     1      26.271  43.009  49.967  1.00  0.00     0.043 A 
HETATM   30  C   UNL     1      26.910  44.246  49.831  1.00  0.00     0.032 A 
HETATM   31  C   UNL     1      26.214  45.433  50.078  1.00  0.00     0.039 A 
HETATM   32  C   UNL     1      24.879  45.405  50.487  1.00  0.00     0.068 A 
HETATM   33  C   UNL     1      24.248  44.174  50.656  1.00  0.00     0.039 A 
HETATM   34  C   UNL     1      24.944  42.986  50.406  1.00  0.00     0.032 A 
BRANCH  32  35
HETATM   35  O   UNL     1      24.315  46.632  50.696  1.00  0.00    -0.352 OA
BRANCH  35  36
HETATM   36  C   UNL     1      24.251  47.513  49.576  1.00  0.00     0.171 C 
HETATM   37  C   UNL     1      22.965  47.225  48.822  1.00  0.00     0.034 C 
ENDBRANCH  35  36
ENDBRANCH  32  35
ENDBRANCH   1  29
TORSDOF 7
ENDMDL
MODEL 3
REMARK VINA RESULT:      -9.3      3.544      7.119
REMARK  7 active torsions:
REMARK  status: ('A' for Active; 'I' for Inactive)
REMARK    1  A    between atoms: C_2  and  O_3 
REMARK    2  A    between atoms: O_3  and  C_4 
REMARK    3  A    between atoms: C_7  and  N_8 
REMARK    4  A    between atoms: C_9  and  C_11 
REMARK    5  A    between atoms: C_9  and  O_10 
REMARK       I    between atoms: C_11  and  N_12 
REMARK    6  A    between atoms: N_12  and  C_13 
REMARK    7  A    between atoms: C_13  and  C_14 
ROOT
HETATM    1  N   UNL     1      26.377  42.626  51.132  1.00  0.00    -0.254 N 
HETATM    2  C   UNL     1      25.964  43.654  50.156  1.00  0.00     0.256 C 
HETATM    3  C   UNL     1      24.826  43.208  49.258  1.00  0.00     0.034 A 
HETATM    4  C   UNL     1      24.611  41.844  49.098  1.00  0.00     0.048 A 
HETATM    5  N   UNL     1      25.400  40.950  49.807  1.00  0.00    -0.308 N 
HETATM    6  C   UNL     1      26.270  41.282  50.803  1.00  0.00     0.330 C 
HETATM    7  O   UNL     1      26.848  40.363  51.387  1.00  0.00    -0.246 OA
HETATM    8  C   UNL     1      24.037  44.098  48.506  1.00  0.00     0.015 A 
HETATM    9  C   UNL     1      23.039  43.621  47.652  1.00  0.00     0.001 A 
HETATM   10  C   UNL     1      22.834  42.250  47.516  1.00  0.00     0.002 A 
HETATM   11  C   UNL     1      23.628  41.357  48.233  1.00  0.00     0.030 A 
HETATM   12  H   UNL     1      25.287  39.954  49.669  1.00  0.00     0.170 HD
ENDROOT
BRANCH   2  13
HETATM   13  C   UNL     1      25.603  45.048  50.824  1.00  0.00     0.279 C 
HETATM   14  N   UNL     1      26.508  46.058  50.532  1.00  0.00    -0.352 N 
HETATM   15  H   UNL     1      27.115  45.901  49.734  1.00  0.00     0.162 HD
HETATM   16  O   UNL     1      24.639  45.230  51.568  1.00  0.00    -0.268 OA
BRANCH  14  17
HETATM   17  C   UNL     1      26.309  47.402  51.008  1.00  0.00     0.161 C 
BRANCH  17  18
HETATM   18  C   UNL     1      25.627  48.241  49.962  1.00  0.00    -0.038 A 
HETATM   19  C   UNL     1      24.227  48.257  49.866  1.00  0.00     0.048 A 
HETATM   20  C   UNL     1      23.652  49.035  48.882  1.00  0.00     0.105 A 
HETATM   21  C   UNL     1      24.410  49.775  48.006  1.00  0.00     0.105 A 
HETATM   22  O   UNL     1      22.318  49.170  48.656  1.00  0.00    -0.323 OA
HETATM   23  O   UNL     1      23.648  50.471  47.121  1.00  0.00    -0.323 OA
HETATM   24  C   UNL     1      25.786  49.774  48.058  1.00  0.00     0.040 A 
HETATM   25  C   UNL     1      22.322  50.091  47.545  1.00  0.00     0.352 A 
HETATM   26  C   UNL     1      26.398  48.995  49.046  1.00  0.00     0.012 A 
ENDBRANCH  17  18
ENDBRANCH  14  17
ENDBRANCH   2  13
BRANCH   2  27
HETATM   27  O   UNL     1      27.084  43.854  49.272  1.00  0.00    -0.359 OA
HETATM   28  H   UNL     1      27.432  42.960  49.127  1.00  0.00     0.213 HD
ENDBRANCH   2  27
BRANCH   1  29
HETATM   29  C   UNL     1      27.268  42.998  52.188  1.00  0.00     0.043 A 
HETATM   30  C   UNL     1      26.781  43.376  53.444  1.00  0.00     0.032 A 
HETATM   31  C   UNL     1      27.666  43.720  54.471  1.00  0.00     0.039 A 
HETATM   32  C   UNL     1      29.046  43.717  54.255  1.00  0.00     0.068 A 
HETATM   33  C   UNL     1      29.534  43.374  52.996  1.00  0.00     0.039 A 
HETATM   34  C   UNL     1      28.648  43.027  51.969  1.00  0.00     0.032 A 
BRANCH  32  35
HETATM   35  O   UNL     1      29.799  44.074  55.338  1.00  0.00    -0.352 OA
BRANCH  35  36
HETATM   36  C   UNL     1      30.981  43.313  55.583  1.00  0.00     0.171 C 
HETATM   37  C   UNL     1      31.382  43.518  57.033  1.00  0.00     0.034 C 
ENDBRANCH  35  36
ENDBRANCH  32  35
ENDBRANCH   1  29
TORSDOF 7
ENDMDL
MODEL 4
REMARK VINA RESULT:      -9.1      2.297      7.541
REMARK  7 active torsions:
REMARK  status: ('A' for Active; 'I' for Inactive)
REMARK    1  A    between atoms: C_2  and  O_3 
REMARK    2  A    between atoms: O_3  and  C_4 
REMARK    3  A    between atoms: C_7  and  N_8 
REMARK    4  A    between atoms: C_9  and  C_11 
REMARK    5  A    between atoms: C_9  and  O_10 
REMARK       I    between atoms: C_11  and  N_12 
REMARK    6  A    between atoms: N_12  and  C_13 
REMARK    7  A    between atoms: C_13  and  C_14 
ROOT
HETATM    1  N   UNL     1      27.513  44.308  53.005  1.00  0.00    -0.254 N 
HETATM    2  C   UNL     1      28.710  43.469  53.212  1.00  0.00     0.256 C 
HETATM    3  C   UNL     1      29.410  43.735  54.531  1.00  0.00     0.034 A 
HETATM    4  C   UNL     1      29.194  44.959  55.155  1.00  0.00     0.048 A 
HETATM    5  N   UNL     1      28.304  45.858  54.584  1.00  0.00    -0.308 N 
HETATM    6  C   UNL     1      27.468  45.588  53.541  1.00  0.00     0.330 C 
HETATM    7  O   UNL     1      26.685  46.473  53.193  1.00  0.00    -0.246 OA
HETATM    8  C   UNL     1      30.340  42.850  55.108  1.00  0.00     0.015 A 
HETATM    9  C   UNL     1      30.996  43.179  56.297  1.00  0.00     0.001 A 
HETATM   10  C   UNL     1      30.754  44.406  56.911  1.00  0.00     0.002 A 
HETATM   11  C   UNL     1      29.858  45.304  56.334  1.00  0.00     0.030 A 
HETATM   12  H   UNL     1      28.169  46.770  55.000  1.00  0.00     0.170 HD
ENDROOT
BRANCH   2  13
HETATM   13  C   UNL     1      28.422  41.915  53.064  1.00  0.00     0.279 C 
HETATM   14  N   UNL     1      29.038  41.336  51.965  1.00  0.00    -0.352 N 
HETATM   15  H   UNL     1      29.803  41.858  51.550  1.00  0.00     0.162 HD
HETATM   16  O   UNL     1      27.692  41.271  53.818  1.00  0.00    -0.268 OA
BRANCH  14  17
HETATM   17  C   UNL     1      28.932  39.923  51.705  1.00  0.00     0.161 C 
BRANCH  17  18
HETATM   18  C   UNL     1      28.681  39.670  50.244  1.00  0.00    -0.038 A 
HETATM   19  C   UNL     1      28.417  40.738  49.372  1.00  0.00     0.048 A 
HETATM   20  C   UNL     1      28.183  40.450  48.043  1.00  0.00     0.105 A 
HETATM   21  C   UNL     1      28.196  39.160  47.567  1.00  0.00     0.105 A 
HETATM   22  O   UNL     1      27.920  41.361  47.068  1.00  0.00    -0.323 OA
HETATM   23  O   UNL     1      27.946  39.098  46.231  1.00  0.00    -0.323 OA
HETATM   24  C   UNL     1      28.437  38.084  48.392  1.00  0.00     0.040 A 
HETATM   25  C   UNL     1      27.782  40.498  45.920  1.00  0.00     0.352 A 
HETATM   26  C   UNL     1      28.677  38.345  49.745  1.00  0.00     0.012 A 
ENDBRANCH  17  18
ENDBRANCH  14  17
ENDBRANCH   2  13
BRANCH   2  27
HETATM   27  O   UNL     1      29.658  43.851  52.198  1.00  0.00    -0.359 OA
HETATM   28  H   UNL     1      30.467  44.054  52.695  1.00  0.00     0.213 HD
ENDBRANCH   2  27
BRANCH   1  29
HETATM   29  C   UNL     1      26.630  43.994  51.923  1.00  0.00     0.043 A 
HETATM   30  C   UNL     1      27.023  44.176  50.594  1.00  0.00     0.032 A 
HETATM   31  C   UNL     1      26.155  43.848  49.548  1.00  0.00     0.039 A 
HETATM   32  C   UNL     1      24.874  43.357  49.812  1.00  0.00     0.068 A 
HETATM   33  C   UNL     1      24.466  43.206  51.135  1.00  0.00     0.039 A 
HETATM   34  C   UNL     1      25.336  43.531  52.182  1.00  0.00     0.032 A 
BRANCH  32  35
HETATM   35  O   UNL     1      24.126  43.077  48.703  1.00  0.00    -0.352 OA
BRANCH  35  36
HETATM   36  C   UNL     1      23.502  41.795  48.651  1.00  0.00     0.171 C 
HETATM   37  C   UNL     1      24.524  40.793  48.146  1.00  0.00     0.034 C 
ENDBRANCH  35  36
ENDBRANCH  32  35
ENDBRANCH   1  29
TORSDOF 7
ENDMDL
MODEL 5
REMARK VINA RESULT:      -9.0     13.709     15.304
REMARK  7 active torsions:
REMARK  status: ('A' for Active; 'I' for Inactive)
REMARK    1  A    between atoms: C_2  and  O_3 
REMARK    2  A    between atoms: O_3  and  C_4 
REMARK    3  A    between atoms: C_7  and  N_8 
REMARK    4  A    between atoms: C_9  and  C_11 
REMARK    5  A    between atoms: C_9  and  O_10 
REMARK       I    between atoms: C_11  and  N_12 
REMARK    6  A    between atoms: N_12  and  C_13 
REMARK    7  A    between atoms: C_13  and  C_14 
ROOT
HETATM    1  N   UNL     1      28.394  50.837  39.336  1.00  0.00    -0.254 N 
HETATM    2  C   UNL     1      27.840  49.948  40.376  1.00  0.00     0.256 C 
HETATM    3  C   UNL     1      26.636  49.152  39.909  1.00  0.00     0.034 A 
HETATM    4  C   UNL     1      25.914  49.631  38.821  1.00  0.00     0.048 A 
HETATM    5  N   UNL     1      26.354  50.775  38.171  1.00  0.00    -0.308 N 
HETATM    6  C   UNL     1      27.549  51.395  38.387  1.00  0.00     0.330 C 
HETATM    7  O   UNL     1      27.826  52.365  37.677  1.00  0.00    -0.246 OA
HETATM    8  C   UNL     1      26.156  48.009  40.574  1.00  0.00     0.015 A 
HETATM    9  C   UNL     1      25.006  47.352  40.126  1.00  0.00     0.001 A 
HETATM   10  C   UNL     1      24.306  47.843  39.027  1.00  0.00     0.002 A 
HETATM   11  C   UNL     1      24.754  48.991  38.377  1.00  0.00     0.030 A 
HETATM   12  H   UNL     1      25.816  51.162  37.406  1.00  0.00     0.170 HD
ENDROOT
BRANCH   2  13
HETATM   13  C   UNL     1      28.918  48.967  41.005  1.00  0.00     0.279 C 
HETATM   14  N   UNL     1      29.654  49.533  42.034  1.00  0.00    -0.352 N 
HETATM   15  H   UNL     1      29.265  50.368  42.461  1.00  0.00     0.162 HD
HETATM   16  O   UNL     1      29.126  47.820  40.607  1.00  0.00    -0.268 OA
BRANCH  14  17
HETATM   17  C   UNL     1      30.639  48.771  42.757  1.00  0.00     0.161 C 
BRANCH  17  18
HETATM   18  C   UNL     1      32.020  49.313  42.505  1.00  0.00    -0.038 A 
HETATM   19  C   UNL     1      32.459  50.474  43.161  1.00  0.00     0.048 A 
HETATM   20  C   UNL     1      33.730  50.934  42.886  1.00  0.00     0.105 A 
HETATM   21  C   UNL     1      34.557  50.294  41.994  1.00  0.00     0.105 A 
HETATM   22  O   UNL     1      34.312  52.033  43.436  1.00  0.00    -0.323 OA
HETATM   23  O   UNL     1      35.765  50.908  41.873  1.00  0.00    -0.323 OA
HETATM   24  C   UNL     1      34.158  49.161  41.320  1.00  0.00     0.040 A 
HETATM   25  C   UNL     1      35.605  52.004  42.798  1.00  0.00     0.352 A 
HETATM   26  C   UNL     1      32.874  48.670  41.578  1.00  0.00     0.012 A 
ENDBRANCH  17  18
ENDBRANCH  14  17
ENDBRANCH   2  13
BRANCH   2  27
HETATM   27  O   UNL     1      27.342  50.803  41.423  1.00  0.00    -0.359 OA
HETATM   28  H   UNL     1      26.638  50.281  41.840  1.00  0.00     0.213 HD
ENDBRANCH   2  27
BRANCH   1  29
HETATM   29  C   UNL     1      29.663  51.458  39.565  1.00  0.00     0.043 A 
HETATM   30  C   UNL     1      30.828  50.957  38.976  1.00  0.00     0.032 A 
HETATM   31  C   UNL     1      32.058  51.585  39.197  1.00  0.00     0.039 A 
HETATM   32  C   UNL     1      32.148  52.706  40.025  1.00  0.00     0.068 A 
HETATM   33  C   UNL     1      30.995  53.188  40.641  1.00  0.00     0.039 A 
HETATM   34  C   UNL     1      29.764  52.561  40.418  1.00  0.00     0.032 A 
BRANCH  32  35
HETATM   35  O   UNL     1      33.406  53.223  40.158  1.00  0.00    -0.352 OA
BRANCH  35  36
HETATM   36  C   UNL     1      34.395  52.761  39.240  1.00  0.00     0.171 C 
HETATM   37  C   UNL     1      35.622  53.644  39.384  1.00  0.00     0.034 C 
ENDBRANCH  35  36
ENDBRANCH  32  35
ENDBRANCH   1  29
TORSDOF 7
ENDMDL
MODEL 6
REMARK VINA RESULT:      -8.8     12.831     14.195
REMARK  7 active torsions:
REMARK  status: ('A' for Active; 'I' for Inactive)
REMARK    1  A    between atoms: C_2  and  O_3 
REMARK    2  A    between atoms: O_3  and  C_4 
REMARK    3  A    between atoms: C_7  and  N_8 
REMARK    4  A    between atoms: C_9  and  C_11 
REMARK    5  A    between atoms: C_9  and  O_10 
REMARK       I    between atoms: C_11  and  N_12 
REMARK    6  A    between atoms: N_12  and  C_13 
REMARK    7  A    between atoms: C_13  and  C_14 
ROOT
HETATM    1  N   UNL     1      27.209  48.864  39.656  1.00  0.00    -0.254 N 
HETATM    2  C   UNL     1      27.955  47.706  40.187  1.00  0.00     0.256 C 
HETATM    3  C   UNL     1      27.332  46.371  39.822  1.00  0.00     0.034 A 
HETATM    4  C   UNL     1      25.985  46.346  39.480  1.00  0.00     0.048 A 
HETATM    5  N   UNL     1      25.281  47.541  39.425  1.00  0.00    -0.308 N 
HETATM    6  C   UNL     1      25.832  48.786  39.506  1.00  0.00     0.330 C 
HETATM    7  O   UNL     1      25.080  49.753  39.370  1.00  0.00    -0.246 OA
HETATM    8  C   UNL     1      28.020  45.146  39.903  1.00  0.00     0.015 A 
HETATM    9  C   UNL     1      27.373  43.943  39.607  1.00  0.00     0.001 A 
HETATM   10  C   UNL     1      26.026  43.944  39.255  1.00  0.00     0.002 A 
HETATM   11  C   UNL     1      25.325  45.147  39.200  1.00  0.00     0.030 A 
HETATM   12  H   UNL     1      24.290  47.537  39.222  1.00  0.00     0.170 HD
ENDROOT
BRANCH   2  13
HETATM   13  C   UNL     1      29.490  47.707  39.785  1.00  0.00     0.279 C 
HETATM   14  N   UNL     1      30.349  47.848  40.865  1.00  0.00    -0.352 N 
HETATM   15  H   UNL     1      29.957  47.655  41.781  1.00  0.00     0.162 HD
HETATM   16  O   UNL     1      29.902  47.631  38.628  1.00  0.00    -0.268 OA
BRANCH  14  17
HETATM   17  C   UNL     1      31.779  47.815  40.694  1.00  0.00     0.161 C 
BRANCH  17  18
HETATM   18  C   UNL     1      32.432  48.927  41.469  1.00  0.00    -0.038 A 
HETATM   19  C   UNL     1      31.787  49.494  42.580  1.00  0.00     0.048 A 
HETATM   20  C   UNL     1      32.425  50.517  43.249  1.00  0.00     0.105 A 
HETATM   21  C   UNL     1      33.653  50.989  42.853  1.00  0.00     0.105 A 
HETATM   22  O   UNL     1      31.947  51.168  44.343  1.00  0.00    -0.323 OA
HETATM   23  O   UNL     1      34.105  51.995  43.650  1.00  0.00    -0.323 OA
HETATM   24  C   UNL     1      34.312  50.470  41.760  1.00  0.00     0.040 A 
HETATM   25  C   UNL     1      33.022  52.096  44.598  1.00  0.00     0.352 A 
HETATM   26  C   UNL     1      33.690  49.430  41.061  1.00  0.00     0.012 A 
ENDBRANCH  17  18
ENDBRANCH  14  17
ENDBRANCH   2  13
BRANCH   2  27
HETATM   27  O   UNL     1      27.863  47.782  41.623  1.00  0.00    -0.359 OA
HETATM   28  H   UNL     1      28.499  47.120  41.936  1.00  0.00     0.213 HD
ENDBRANCH   2  27
BRANCH   1  29
HETATM   29  C   UNL     1      27.813  50.160  39.722  1.00  0.00     0.043 A 
HETATM   30  C   UNL     1      27.969  50.823  40.944  1.00  0.00     0.032 A 
HETATM   31  C   UNL     1      28.577  52.081  40.992  1.00  0.00     0.039 A 
HETATM   32  C   UNL     1      29.015  52.708  39.823  1.00  0.00     0.068 A 
HETATM   33  C   UNL     1      28.832  52.066  38.601  1.00  0.00     0.039 A 
HETATM   34  C   UNL     1      28.226  50.805  38.552  1.00  0.00     0.032 A 
BRANCH  32  35
HETATM   35  O   UNL     1      29.590  53.934  40.009  1.00  0.00    -0.352 OA
BRANCH  35  36
HETATM   36  C   UNL     1      30.749  53.986  40.839  1.00  0.00     0.171 C 
HETATM   37  C   UNL     1      31.784  53.036  40.263  1.00  0.00     0.034 C 
ENDBRANCH  35  36
ENDBRANCH  32  35
ENDBRANCH   1  29
TORSDOF 7
ENDMDL
MODEL 7
REMARK VINA RESULT:      -8.6      2.085      3.023
REMARK  7 active torsions:
REMARK  status: ('A' for Active; 'I' for Inactive)
REMARK    1  A    between atoms: C_2  and  O_3 
REMARK    2  A    between atoms: O_3  and  C_4 
REMARK    3  A    between atoms: C_7  and  N_8 
REMARK    4  A    between atoms: C_9  and  C_11 
REMARK    5  A    between atoms: C_9  and  O_10 
REMARK       I    between atoms: C_11  and  N_12 
REMARK    6  A    between atoms: N_12  and  C_13 
REMARK    7  A    between atoms: C_13  and  C_14 
ROOT
HETATM    1  N   UNL     1      24.500  43.886  49.569  1.00  0.00    -0.254 N 
HETATM    2  C   UNL     1      25.051  42.526  49.727  1.00  0.00     0.256 C 
HETATM    3  C   UNL     1      24.679  41.590  48.592  1.00  0.00     0.034 A 
HETATM    4  C   UNL     1      23.561  41.899  47.826  1.00  0.00     0.048 A 
HETATM    5  N   UNL     1      22.869  43.073  48.086  1.00  0.00    -0.308 N 
HETATM    6  C   UNL     1      23.285  44.066  48.923  1.00  0.00     0.330 C 
HETATM    7  O   UNL     1      22.590  45.081  48.994  1.00  0.00    -0.246 OA
HETATM    8  C   UNL     1      25.349  40.380  48.334  1.00  0.00     0.015 A 
HETATM    9  C   UNL     1      24.922  39.532  47.308  1.00  0.00     0.001 A 
HETATM   10  C   UNL     1      23.807  39.868  46.545  1.00  0.00     0.002 A 
HETATM   11  C   UNL     1      23.117  41.050  46.810  1.00  0.00     0.030 A 
HETATM   12  H   UNL     1      22.028  43.290  47.568  1.00  0.00     0.170 HD
ENDROOT
BRANCH   2  13
HETATM   13  C   UNL     1      26.624  42.504  49.944  1.00  0.00     0.279 C 
HETATM   14  N   UNL     1      27.009  42.021  51.186  1.00  0.00    -0.352 N 
HETATM   15  H   UNL     1      26.313  41.486  51.696  1.00  0.00     0.162 HD
HETATM   16  O   UNL     1      27.442  42.911  49.119  1.00  0.00    -0.268 OA
BRANCH  14  17
HETATM   17  C   UNL     1      28.398  41.879  51.536  1.00  0.00     0.161 C 
BRANCH  17  18
HETATM   18  C   UNL     1      28.743  42.756  52.709  1.00  0.00    -0.038 A 
HETATM   19  C   UNL     1      29.816  42.427  53.552  1.00  0.00     0.048 A 
HETATM   20  C   UNL     1      30.084  43.259  54.619  1.00  0.00     0.105 A 
HETATM   21  C   UNL     1      29.329  44.379  54.872  1.00  0.00     0.105 A 
HETATM   22  O   UNL     1      31.085  43.091  55.523  1.00  0.00    -0.323 OA
HETATM   23  O   UNL     1      29.763  45.060  55.967  1.00  0.00    -0.323 OA
HETATM   24  C   UNL     1      28.260  44.729  54.078  1.00  0.00     0.040 A 
HETATM   25  C   UNL     1      30.883  44.243  56.368  1.00  0.00     0.352 A 
HETATM   26  C   UNL     1      27.964  43.904  52.988  1.00  0.00     0.012 A 
ENDBRANCH  17  18
ENDBRANCH  14  17
ENDBRANCH   2  13
BRANCH   2  27
HETATM   27  O   UNL     1      24.426  41.964  50.897  1.00  0.00    -0.359 OA
HETATM   28  H   UNL     1      24.874  42.403  51.638  1.00  0.00     0.213 HD
ENDBRANCH   2  27
BRANCH   1  29
HETATM   29  C   UNL     1      24.969  44.924  50.436  1.00  0.00     0.043 A 
HETATM   30  C   UNL     1      24.626  44.942  51.792  1.00  0.00     0.032 A 
HETATM   31  C   UNL     1      25.106  45.954  52.629  1.00  0.00     0.039 A 
HETATM   32  C   UNL     1      25.914  46.975  52.123  1.00  0.00     0.068 A 
HETATM   33  C   UNL     1      26.230  46.980  50.767  1.00  0.00     0.039 A 
HETATM   34  C   UNL     1      25.752  45.965  49.929  1.00  0.00     0.032 A 
BRANCH  32  35
HETATM   35  O   UNL     1      26.314  47.902  53.045  1.00  0.00    -0.352 OA
BRANCH  35  36
HETATM   36  C   UNL     1      26.056  47.602  54.416  1.00  0.00     0.171 C 
HETATM   37  C   UNL     1      27.303  47.939  55.214  1.00  0.00     0.034 C 
ENDBRANCH  35  36
ENDBRANCH  32  35
ENDBRANCH   1  29
TORSDOF 7
ENDMDL
MODEL 8
REMARK VINA RESULT:      -8.5      2.900      5.902
REMARK  7 active torsions:
REMARK  status: ('A' for Active; 'I' for Inactive)
REMARK    1  A    between atoms: C_2  and  O_3 
REMARK    2  A    between atoms: O_3  and  C_4 
REMARK    3  A    between atoms: C_7  and  N_8 
REMARK    4  A    between atoms: C_9  and  C_11 
REMARK    5  A    between atoms: C_9  and  O_10 
REMARK       I    between atoms: C_11  and  N_12 
REMARK    6  A    between atoms: N_12  and  C_13 
REMARK    7  A    between atoms: C_13  and  C_14 
ROOT
HETATM    1  N   UNL     1      27.254  41.959  51.804  1.00  0.00    -0.254 N 
HETATM    2  C   UNL     1      26.560  42.334  50.556  1.00  0.00     0.256 C 
HETATM    3  C   UNL     1      26.249  41.149  49.661  1.00  0.00     0.034 A 
HETATM    4  C   UNL     1      26.996  39.988  49.824  1.00  0.00     0.048 A 
HETATM    5  N   UNL     1      27.949  39.936  50.831  1.00  0.00    -0.308 N 
HETATM    6  C   UNL     1      28.111  40.868  51.814  1.00  0.00     0.330 C 
HETATM    7  O   UNL     1      28.959  40.643  52.680  1.00  0.00    -0.246 OA
HETATM    8  C   UNL     1      25.309  41.193  48.614  1.00  0.00     0.015 A 
HETATM    9  C   UNL     1      25.108  40.084  47.788  1.00  0.00     0.001 A 
HETATM   10  C   UNL     1      25.861  38.928  47.977  1.00  0.00     0.002 A 
HETATM   11  C   UNL     1      26.815  38.881  48.992  1.00  0.00     0.030 A 
HETATM   12  H   UNL     1      28.533  39.116  50.935  1.00  0.00     0.170 HD
ENDROOT
BRANCH   2  13
HETATM   13  C   UNL     1      25.241  43.182  50.799  1.00  0.00     0.279 C 
HETATM   14  N   UNL     1      25.371  44.523  50.471  1.00  0.00    -0.352 N 
HETATM   15  H   UNL     1      26.152  44.766  49.870  1.00  0.00     0.162 HD
HETATM   16  O   UNL     1      24.200  42.723  51.270  1.00  0.00    -0.268 OA
BRANCH  14  17
HETATM   17  C   UNL     1      24.258  45.431  50.575  1.00  0.00     0.161 C 
BRANCH  17  18
HETATM   18  C   UNL     1      24.588  46.751  49.932  1.00  0.00    -0.038 A 
HETATM   19  C   UNL     1      25.914  47.210  49.890  1.00  0.00     0.048 A 
HETATM   20  C   UNL     1      26.160  48.431  49.298  1.00  0.00     0.105 A 
HETATM   21  C   UNL     1      25.151  49.196  48.765  1.00  0.00     0.105 A 
HETATM   22  O   UNL     1      27.381  49.017  49.166  1.00  0.00    -0.323 OA
HETATM   23  O   UNL     1      25.609  50.359  48.228  1.00  0.00    -0.323 OA
HETATM   24  C   UNL     1      23.836  48.788  48.800  1.00  0.00     0.040 A 
HETATM   25  C   UNL     1      27.025  50.234  48.477  1.00  0.00     0.352 A 
HETATM   26  C   UNL     1      23.554  47.554  49.394  1.00  0.00     0.012 A 
ENDBRANCH  17  18
ENDBRANCH  14  17
ENDBRANCH   2  13
BRANCH   2  27
HETATM   27  O   UNL     1      27.484  43.142  49.801  1.00  0.00    -0.359 OA
HETATM   28  H   UNL     1      28.004  43.603  50.479  1.00  0.00     0.213 HD
ENDBRANCH   2  27
BRANCH   1  29
HETATM   29  C   UNL     1      27.390  42.940  52.837  1.00  0.00     0.043 A 
HETATM   30  C   UNL     1      28.462  43.839  52.842  1.00  0.00     0.032 A 
HETATM   31  C   UNL     1      28.571  44.802  53.850  1.00  0.00     0.039 A 
HETATM   32  C   UNL     1      27.629  44.869  54.879  1.00  0.00     0.068 A 
HETATM   33  C   UNL     1      26.579  43.953  54.896  1.00  0.00     0.039 A 
HETATM   34  C   UNL     1      26.467  42.991  53.886  1.00  0.00     0.032 A 
BRANCH  32  35
HETATM   35  O   UNL     1      27.852  45.854  55.800  1.00  0.00    -0.352 OA
BRANCH  35  36
HETATM   36  C   UNL     1      27.854  47.197  55.321  1.00  0.00     0.171 C 
HETATM   37  C   UNL     1      26.439  47.550  54.899  1.00  0.00     0.034 C 
ENDBRANCH  35  36
ENDBRANCH  32  35
ENDBRANCH   1  29
TORSDOF 7
ENDMDL
MODEL 9
REMARK VINA RESULT:      -8.3      2.892      8.270
REMARK  7 active torsions:
REMARK  status: ('A' for Active; 'I' for Inactive)
REMARK    1  A    between atoms: C_2  and  O_3 
REMARK    2  A    between atoms: O_3  and  C_4 
REMARK    3  A    between atoms: C_7  and  N_8 
REMARK    4  A    between atoms: C_9  and  C_11 
REMARK    5  A    between atoms: C_9  and  O_10 
REMARK       I    between atoms: C_11  and  N_12 
REMARK    6  A    between atoms: N_12  and  C_13 
REMARK    7  A    between atoms: C_13  and  C_14 
ROOT
HETATM    1  N   UNL     1      28.268  43.391  53.195  1.00  0.00    -0.254 N 
HETATM    2  C   UNL     1      26.945  43.992  53.455  1.00  0.00     0.256 C 
HETATM    3  C   UNL     1      27.025  45.374  54.077  1.00  0.00     0.034 A 
HETATM    4  C   UNL     1      28.192  45.728  54.744  1.00  0.00     0.048 A 
HETATM    5  N   UNL     1      29.254  44.836  54.764  1.00  0.00    -0.308 N 
HETATM    6  C   UNL     1      29.337  43.690  54.029  1.00  0.00     0.330 C 
HETATM    7  O   UNL     1      30.380  43.038  54.103  1.00  0.00    -0.246 OA
HETATM    8  C   UNL     1      25.948  46.279  54.096  1.00  0.00     0.015 A 
HETATM    9  C   UNL     1      26.065  47.516  54.736  1.00  0.00     0.001 A 
HETATM   10  C   UNL     1      27.248  47.854  55.388  1.00  0.00     0.002 A 
HETATM   11  C   UNL     1      28.313  46.955  55.402  1.00  0.00     0.030 A 
HETATM   12  H   UNL     1      30.094  45.059  55.282  1.00  0.00     0.170 HD
ENDROOT
BRANCH   2  13
HETATM   13  C   UNL     1      26.011  44.037  52.173  1.00  0.00     0.279 C 
HETATM   14  N   UNL     1      26.479  44.872  51.170  1.00  0.00    -0.352 N 
HETATM   15  H   UNL     1      27.459  45.134  51.222  1.00  0.00     0.162 HD
HETATM   16  O   UNL     1      24.946  43.427  52.071  1.00  0.00    -0.268 OA
BRANCH  14  17
HETATM   17  C   UNL     1      25.788  44.993  49.913  1.00  0.00     0.161 C 
BRANCH  17  18
HETATM   18  C   UNL     1      25.354  46.415  49.680  1.00  0.00    -0.038 A 
HETATM   19  C   UNL     1      23.990  46.735  49.578  1.00  0.00     0.048 A 
HETATM   20  C   UNL     1      23.647  48.052  49.354  1.00  0.00     0.105 A 
HETATM   21  C   UNL     1      24.596  49.037  49.224  1.00  0.00     0.105 A 
HETATM   22  O   UNL     1      22.380  48.532  49.238  1.00  0.00    -0.323 OA
HETATM   23  O   UNL     1      24.045  50.263  49.012  1.00  0.00    -0.323 OA
HETATM   24  C   UNL     1      25.943  48.762  49.302  1.00  0.00     0.040 A 
HETATM   25  C   UNL     1      22.640  49.937  49.033  1.00  0.00     0.352 A 
HETATM   26  C   UNL     1      26.323  47.435  49.529  1.00  0.00     0.012 A 
ENDBRANCH  17  18
ENDBRANCH  14  17
ENDBRANCH   2  13
BRANCH   2  27
HETATM   27  O   UNL     1      26.309  43.168  54.450  1.00  0.00    -0.359 OA
HETATM   28  H   UNL     1      26.655  43.505  55.292  1.00  0.00     0.213 HD
ENDBRANCH   2  27
BRANCH   1  29
HETATM   29  C   UNL     1      28.340  42.205  52.397  1.00  0.00     0.043 A 
HETATM   30  C   UNL     1      28.043  42.234  51.031  1.00  0.00     0.032 A 
HETATM   31  C   UNL     1      28.135  41.070  50.262  1.00  0.00     0.039 A 
HETATM   32  C   UNL     1      28.500  39.855  50.848  1.00  0.00     0.068 A 
HETATM   33  C   UNL     1      28.764  39.815  52.215  1.00  0.00     0.039 A 
HETATM   34  C   UNL     1      28.675  40.981  52.984  1.00  0.00     0.032 A 
BRANCH  32  35
HETATM   35  O   UNL     1      28.551  38.794  49.988  1.00  0.00    -0.352 OA
BRANCH  35  36
HETATM   36  C   UNL     1      29.014  39.057  48.664  1.00  0.00     0.171 C 
HETATM   37  C   UNL     1      28.514  37.944  47.760  1.00  0.00     0.034 C 
ENDBRANCH  35  36
ENDBRANCH  32  35
ENDBRANCH   1  29
TORSDOF 7
ENDMDL
MODEL 10
REMARK VINA RESULT:      -8.3      3.305      8.546
REMARK  7 active torsions:
REMARK  status: ('A' for Active; 'I' for Inactive)
REMARK    1  A    between atoms: C_2  and  O_3 
REMARK    2  A    between atoms: O_3  and  C_4 
REMARK    3  A    between atoms: C_7  and  N_8 
REMARK    4  A    between atoms: C_9  and  C_11 
REMARK    5  A    between atoms: C_9  and  O_10 
REMARK       I    between atoms: C_11  and  N_12 
REMARK    6  A    between atoms: N_12  and  C_13 
REMARK    7  A    between atoms: C_13  and  C_14 
ROOT
HETATM    1  N   UNL     1      27.273  42.680  52.017  1.00  0.00    -0.254 N 
HETATM    2  C   UNL     1      26.246  43.731  51.874  1.00  0.00     0.256 C 
HETATM    3  C   UNL     1      26.522  44.960  52.718  1.00  0.00     0.034 A 
HETATM    4  C   UNL     1      27.357  44.826  53.822  1.00  0.00     0.048 A 
HETATM    5  N   UNL     1      27.951  43.597  54.071  1.00  0.00    -0.308 N 
HETATM    6  C   UNL     1      27.938  42.527  53.226  1.00  0.00     0.330 C 
HETATM    7  O   UNL     1      28.574  41.526  53.562  1.00  0.00    -0.246 OA
HETATM    8  C   UNL     1      25.904  46.206  52.500  1.00  0.00     0.015 A 
HETATM    9  C   UNL     1      26.157  47.287  53.349  1.00  0.00     0.001 A 
HETATM   10  C   UNL     1      27.006  47.132  54.442  1.00  0.00     0.002 A 
HETATM   11  C   UNL     1      27.602  45.895  54.686  1.00  0.00     0.030 A 
HETATM   12  H   UNL     1      28.526  43.470  54.894  1.00  0.00     0.170 HD
ENDROOT
BRANCH   2  13
HETATM   13  C   UNL     1      25.994  44.163  50.367  1.00  0.00     0.279 C 
HETATM   14  N   UNL     1      24.669  44.058  49.972  1.00  0.00    -0.352 N 
HETATM   15  H   UNL     1      23.980  44.000  50.715  1.00  0.00     0.162 HD
HETATM   16  O   UNL     1      26.881  44.522  49.592  1.00  0.00    -0.268 OA
BRANCH  14  17
HETATM   17  C   UNL     1      24.246  44.460  48.655  1.00  0.00     0.161 C 
BRANCH  17  18
HETATM   18  C   UNL     1      23.437  45.726  48.720  1.00  0.00    -0.038 A 
HETATM   19  C   UNL     1      23.986  46.893  49.275  1.00  0.00     0.048 A 
HETATM   20  C   UNL     1      23.198  48.024  49.320  1.00  0.00     0.105 A 
HETATM   21  C   UNL     1      21.907  48.029  48.848  1.00  0.00     0.105 A 
HETATM   22  O   UNL     1      23.574  49.234  49.816  1.00  0.00    -0.323 OA
HETATM   23  O   UNL     1      21.310  49.244  48.983  1.00  0.00    -0.323 OA
HETATM   24  C   UNL     1      21.328  46.902  48.309  1.00  0.00     0.040 A 
HETATM   25  C   UNL     1      22.376  50.005  49.588  1.00  0.00     0.352 A 
HETATM   26  C   UNL     1      22.103  45.739  48.250  1.00  0.00     0.012 A 
ENDBRANCH  17  18
ENDBRANCH  14  17
ENDBRANCH   2  13
BRANCH   2  27
HETATM   27  O   UNL     1      25.022  43.181  52.398  1.00  0.00    -0.359 OA
HETATM   28  H   UNL     1      25.309  42.408  52.908  1.00  0.00     0.213 HD
ENDBRANCH   2  27
BRANCH   1  29
HETATM   29  C   UNL     1      27.263  41.578  51.104  1.00  0.00     0.043 A 
HETATM   30  C   UNL     1      28.312  41.381  50.199  1.00  0.00     0.032 A 
HETATM   31  C   UNL     1      28.295  40.290  49.325  1.00  0.00     0.039 A 
HETATM   32  C   UNL     1      27.224  39.394  49.322  1.00  0.00     0.068 A 
HETATM   33  C   UNL     1      26.161  39.606  50.198  1.00  0.00     0.039 A 
HETATM   34  C   UNL     1      26.179  40.696  51.075  1.00  0.00     0.032 A 
BRANCH  32  35
HETATM   35  O   UNL     1      27.329  38.373  48.419  1.00  0.00    -0.352 OA
BRANCH  35  36
HETATM   36  C   UNL     1      28.640  37.870  48.164  1.00  0.00     0.171 C 
HETATM   37  C   UNL     1      28.727  37.508  46.692  1.00  0.00     0.034 C 
ENDBRANCH  35  36
ENDBRANCH  32  35
ENDBRANCH   1  29
TORSDOF 7
ENDMDL
