MODEL 1
REMARK VINA RESULT:      -8.0      0.000      0.000
REMARK  4 active torsions:
REMARK  status: ('A' for Active; 'I' for Inactive)
REMARK    1  A    between atoms: C_9  and  C_10 
REMARK    2  A    between atoms: C_17  and  C_18 
REMARK       I    between atoms: C_18  and  N_19 
REMARK    3  A    between atoms: N_19  and  C_20 
REMARK    4  A    between atoms: C_23  and  O_24 
ROOT
HETATM    1  C   UNL     1      17.513  46.018  48.074  1.00  0.00     0.070 C 
HETATM    2  C   UNL     1      17.062  47.375  47.592  1.00  0.00     0.037 C 
HETATM    3  N   UNL     1      15.930  47.370  46.782  1.00  0.00    -0.192 N 
HETATM    4  C   UNL     1      15.528  48.438  46.066  1.00  0.00     0.725 A 
HETATM    5  N   UNL     1      16.149  49.643  46.256  1.00  0.00    -0.084 N 
HETATM    6  N   UNL     1      15.695  50.571  45.385  1.00  0.00    -0.149 NA
HETATM    7  C   UNL     1      14.758  49.865  44.742  1.00  0.00     0.275 A 
HETATM    8  N   UNL     1      14.623  48.556  45.129  1.00  0.00    -0.054 NA
HETATM    9  C   UNL     1      17.271  49.851  47.180  1.00  0.00     0.204 C 
HETATM   10  C   UNL     1      17.721  48.541  47.822  1.00  0.00     0.062 C 
HETATM   11  H   UNL     1      15.505  46.470  46.569  1.00  0.00     0.184 HD
ENDROOT
BRANCH  10  12
HETATM   12  C   UNL     1      19.030  48.636  48.522  1.00  0.00     0.256 C 
HETATM   13  N   UNL     1      20.129  48.525  47.698  1.00  0.00    -0.323 N 
HETATM   14  H   UNL     1      19.957  48.301  46.726  1.00  0.00     0.169 HD
HETATM   15  O   UNL     1      19.027  48.769  49.739  1.00  0.00    -0.267 OA
BRANCH  13  16
HETATM   16  C   UNL     1      21.477  48.759  48.054  1.00  0.00     0.035 A 
HETATM   17  C   UNL     1      22.256  47.862  48.784  1.00  0.00     0.032 A 
HETATM   18  C   UNL     1      23.570  48.187  49.138  1.00  0.00     0.039 A 
HETATM   19  C   UNL     1      24.130  49.409  48.769  1.00  0.00     0.068 A 
HETATM   20  C   UNL     1      23.359  50.311  48.038  1.00  0.00     0.039 A 
HETATM   21  C   UNL     1      22.042  49.986  47.682  1.00  0.00     0.032 A 
BRANCH  19  22
HETATM   22  O   UNL     1      25.417  49.596  49.187  1.00  0.00    -0.356 OA
HETATM   23  C   UNL     1      26.396  49.824  48.181  1.00  0.00     0.210 C 
ENDBRANCH  19  22
ENDBRANCH  13  16
ENDBRANCH  10  12
BRANCH   9  24
HETATM   24  C   UNL     1      16.963  50.972  48.172  1.00  0.00    -0.006 A 
HETATM   25  C   UNL     1      17.888  51.941  48.601  1.00  0.00     0.042 A 
HETATM   26 CL   UNL     1      19.495  52.049  47.978  1.00  0.00    -0.084 Cl
HETATM   27  C   UNL     1      17.529  52.897  49.561  1.00  0.00     0.024 A 
HETATM   28  C   UNL     1      16.243  52.917  50.095  1.00  0.00     0.002 A 
HETATM   29  C   UNL     1      15.306  51.985  49.665  1.00  0.00     0.001 A 
HETATM   30  C   UNL     1      15.662  51.026  48.715  1.00  0.00     0.011 A 
ENDBRANCH   9  24
TORSDOF 4
ENDMDL
MODEL 2
REMARK VINA RESULT:      -7.9      5.773      9.417
REMARK  4 active torsions:
REMARK  status: ('A' for Active; 'I' for Inactive)
REMARK    1  A    between atoms: C_9  and  C_10 
REMARK    2  A    between atoms: C_17  and  C_18 
REMARK       I    between atoms: C_18  and  N_19 
REMARK    3  A    between atoms: N_19  and  C_20 
REMARK    4  A    between atoms: C_23  and  O_24 
ROOT
HETATM    1  C   UNL     1      25.608  42.751  50.786  1.00  0.00     0.070 C 
HETATM    2  C   UNL     1      25.617  44.205  51.189  1.00  0.00     0.037 C 
HETATM    3  N   UNL     1      26.287  44.487  52.377  1.00  0.00    -0.192 N 
HETATM    4  C   UNL     1      26.192  45.670  53.016  1.00  0.00     0.725 A 
HETATM    5  N   UNL     1      25.548  46.712  52.405  1.00  0.00    -0.084 N 
HETATM    6  N   UNL     1      25.454  47.779  53.227  1.00  0.00    -0.149 NA
HETATM    7  C   UNL     1      26.119  47.325  54.295  1.00  0.00     0.275 A 
HETATM    8  N   UNL     1      26.587  46.039  54.207  1.00  0.00    -0.054 NA
HETATM    9  C   UNL     1      24.908  46.620  51.087  1.00  0.00     0.204 C 
HETATM   10  C   UNL     1      24.962  45.198  50.533  1.00  0.00     0.062 C 
HETATM   11  H   UNL     1      26.702  43.708  52.882  1.00  0.00     0.184 HD
ENDROOT
BRANCH  10  12
HETATM   12  C   UNL     1      24.074  44.979  49.359  1.00  0.00     0.256 C 
HETATM   13  N   UNL     1      22.776  45.402  49.537  1.00  0.00    -0.323 N 
HETATM   14  H   UNL     1      22.518  45.733  50.458  1.00  0.00     0.169 HD
HETATM   15  O   UNL     1      24.546  44.428  48.372  1.00  0.00    -0.267 OA
BRANCH  13  16
HETATM   16  C   UNL     1      21.773  45.489  48.544  1.00  0.00     0.035 A 
HETATM   17  C   UNL     1      20.491  44.961  48.685  1.00  0.00     0.032 A 
HETATM   18  C   UNL     1      19.568  45.046  47.636  1.00  0.00     0.039 A 
HETATM   19  C   UNL     1      19.907  45.660  46.431  1.00  0.00     0.068 A 
HETATM   20  C   UNL     1      21.187  46.191  46.281  1.00  0.00     0.039 A 
HETATM   21  C   UNL     1      22.112  46.108  47.333  1.00  0.00     0.032 A 
BRANCH  19  22
HETATM   22  O   UNL     1      18.913  45.665  45.494  1.00  0.00    -0.356 OA
HETATM   23  C   UNL     1      17.771  44.863  45.760  1.00  0.00     0.210 C 
ENDBRANCH  19  22
ENDBRANCH  13  16
ENDBRANCH  10  12
BRANCH   9  24
HETATM   24  C   UNL     1      25.447  47.692  50.140  1.00  0.00    -0.006 A 
HETATM   25  C   UNL     1      24.652  48.613  49.435  1.00  0.00     0.042 A 
HETATM   26 CL   UNL     1      22.939  48.717  49.623  1.00  0.00    -0.084 Cl
HETATM   27  C   UNL     1      25.234  49.523  48.541  1.00  0.00     0.024 A 
HETATM   28  C   UNL     1      26.613  49.544  48.349  1.00  0.00     0.002 A 
HETATM   29  C   UNL     1      27.419  48.661  49.057  1.00  0.00     0.001 A 
HETATM   30  C   UNL     1      26.843  47.746  49.942  1.00  0.00     0.011 A 
ENDBRANCH   9  24
TORSDOF 4
ENDMDL
MODEL 3
REMARK VINA RESULT:      -7.8     10.146     12.643
REMARK  4 active torsions:
REMARK  status: ('A' for Active; 'I' for Inactive)
REMARK    1  A    between atoms: C_9  and  C_10 
REMARK    2  A    between atoms: C_17  and  C_18 
REMARK       I    between atoms: C_18  and  N_19 
REMARK    3  A    between atoms: N_19  and  C_20 
REMARK    4  A    between atoms: C_23  and  O_24 
ROOT
HETATM    1  C   UNL     1      28.869  38.175  50.574  1.00  0.00     0.070 C 
HETATM    2  C   UNL     1      28.316  39.143  49.557  1.00  0.00     0.037 C 
HETATM    3  N   UNL     1      28.397  38.722  48.232  1.00  0.00    -0.192 N 
HETATM    4  C   UNL     1      28.185  39.540  47.182  1.00  0.00     0.725 A 
HETATM    5  N   UNL     1      27.705  40.803  47.403  1.00  0.00    -0.084 N 
HETATM    6  N   UNL     1      27.655  41.515  46.256  1.00  0.00    -0.149 NA
HETATM    7  C   UNL     1      28.064  40.593  45.377  1.00  0.00     0.275 A 
HETATM    8  N   UNL     1      28.397  39.371  45.903  1.00  0.00    -0.054 NA
HETATM    9  C   UNL     1      27.432  41.354  48.736  1.00  0.00     0.204 C 
HETATM   10  C   UNL     1      27.844  40.385  49.841  1.00  0.00     0.062 C 
HETATM   11  H   UNL     1      28.824  37.817  48.048  1.00  0.00     0.184 HD
ENDROOT
BRANCH  10  12
HETATM   12  C   UNL     1      27.877  41.001  51.195  1.00  0.00     0.256 C 
HETATM   13  N   UNL     1      28.981  41.788  51.440  1.00  0.00    -0.323 N 
HETATM   14  H   UNL     1      29.703  41.805  50.730  1.00  0.00     0.169 HD
HETATM   15  O   UNL     1      26.965  40.742  51.970  1.00  0.00    -0.267 OA
BRANCH  13  16
HETATM   16  C   UNL     1      29.184  42.633  52.554  1.00  0.00     0.035 A 
HETATM   17  C   UNL     1      30.227  42.480  53.466  1.00  0.00     0.032 A 
HETATM   18  C   UNL     1      30.335  43.331  54.573  1.00  0.00     0.039 A 
HETATM   19  C   UNL     1      29.406  44.348  54.787  1.00  0.00     0.068 A 
HETATM   20  C   UNL     1      28.360  44.508  53.880  1.00  0.00     0.039 A 
HETATM   21  C   UNL     1      28.253  43.657  52.770  1.00  0.00     0.032 A 
BRANCH  19  22
HETATM   22  O   UNL     1      29.627  45.096  55.908  1.00  0.00    -0.356 OA
HETATM   23  C   UNL     1      28.600  45.999  56.295  1.00  0.00     0.210 C 
ENDBRANCH  19  22
ENDBRANCH  13  16
ENDBRANCH  10  12
BRANCH   9  24
HETATM   24  C   UNL     1      25.992  41.857  48.836  1.00  0.00    -0.006 A 
HETATM   25  C   UNL     1      25.619  43.143  49.268  1.00  0.00     0.042 A 
HETATM   26 CL   UNL     1      26.764  44.374  49.658  1.00  0.00    -0.084 Cl
HETATM   27  C   UNL     1      24.267  43.494  49.383  1.00  0.00     0.024 A 
HETATM   28  C   UNL     1      23.267  42.582  49.054  1.00  0.00     0.002 A 
HETATM   29  C   UNL     1      23.614  41.316  48.599  1.00  0.00     0.001 A 
HETATM   30  C   UNL     1      24.960  40.959  48.491  1.00  0.00     0.011 A 
ENDBRANCH   9  24
TORSDOF 4
ENDMDL
MODEL 4
REMARK VINA RESULT:      -7.7      7.075     11.446
REMARK  4 active torsions:
REMARK  status: ('A' for Active; 'I' for Inactive)
REMARK    1  A    between atoms: C_9  and  C_10 
REMARK    2  A    between atoms: C_17  and  C_18 
REMARK       I    between atoms: C_18  and  N_19 
REMARK    3  A    between atoms: N_19  and  C_20 
REMARK    4  A    between atoms: C_23  and  O_24 
ROOT
HETATM    1  C   UNL     1      26.815  45.804  53.334  1.00  0.00     0.070 C 
HETATM    2  C   UNL     1      27.016  44.476  52.645  1.00  0.00     0.037 C 
HETATM    3  N   UNL     1      27.409  43.430  53.477  1.00  0.00    -0.192 N 
HETATM    4  C   UNL     1      27.868  42.251  53.014  1.00  0.00     0.725 A 
HETATM    5  N   UNL     1      27.799  41.984  51.673  1.00  0.00    -0.084 N 
HETATM    6  N   UNL     1      28.398  40.811  51.376  1.00  0.00    -0.149 NA
HETATM    7  C   UNL     1      28.751  40.399  52.599  1.00  0.00     0.275 A 
HETATM    8  N   UNL     1      28.445  41.251  53.629  1.00  0.00    -0.054 NA
HETATM    9  C   UNL     1      27.280  42.928  50.676  1.00  0.00     0.204 C 
HETATM   10  C   UNL     1      26.925  44.273  51.305  1.00  0.00     0.062 C 
HETATM   11  H   UNL     1      27.540  43.635  54.464  1.00  0.00     0.184 HD
ENDROOT
BRANCH  10  12
HETATM   12  C   UNL     1      26.687  45.354  50.311  1.00  0.00     0.256 C 
HETATM   13  N   UNL     1      25.537  46.083  50.523  1.00  0.00    -0.323 N 
HETATM   14  H   UNL     1      24.920  45.770  51.262  1.00  0.00     0.169 HD
HETATM   15  O   UNL     1      27.490  45.486  49.396  1.00  0.00    -0.267 OA
BRANCH  13  16
HETATM   16  C   UNL     1      25.156  47.271  49.857  1.00  0.00     0.035 A 
HETATM   17  C   UNL     1      23.847  47.565  49.478  1.00  0.00     0.032 A 
HETATM   18  C   UNL     1      23.557  48.742  48.779  1.00  0.00     0.039 A 
HETATM   19  C   UNL     1      24.566  49.646  48.449  1.00  0.00     0.068 A 
HETATM   20  C   UNL     1      25.877  49.361  48.825  1.00  0.00     0.039 A 
HETATM   21  C   UNL     1      26.168  48.182  49.527  1.00  0.00     0.032 A 
BRANCH  19  22
HETATM   22  O   UNL     1      24.142  50.748  47.762  1.00  0.00    -0.356 OA
HETATM   23  C   UNL     1      22.854  51.254  48.084  1.00  0.00     0.210 C 
ENDBRANCH  19  22
ENDBRANCH  13  16
ENDBRANCH  10  12
BRANCH   9  24
HETATM   24  C   UNL     1      26.157  42.294  49.854  1.00  0.00    -0.006 A 
HETATM   25  C   UNL     1      26.348  41.537  48.685  1.00  0.00     0.042 A 
HETATM   26 CL   UNL     1      27.910  41.136  48.067  1.00  0.00    -0.084 Cl
HETATM   27  C   UNL     1      25.251  41.045  47.964  1.00  0.00     0.024 A 
HETATM   28  C   UNL     1      23.951  41.281  48.404  1.00  0.00     0.002 A 
HETATM   29  C   UNL     1      23.741  42.005  49.572  1.00  0.00     0.001 A 
HETATM   30  C   UNL     1      24.831  42.504  50.288  1.00  0.00     0.011 A 
ENDBRANCH   9  24
TORSDOF 4
ENDMDL
MODEL 5
REMARK VINA RESULT:      -7.5      3.098      5.590
REMARK  4 active torsions:
REMARK  status: ('A' for Active; 'I' for Inactive)
REMARK    1  A    between atoms: C_9  and  C_10 
REMARK    2  A    between atoms: C_17  and  C_18 
REMARK       I    between atoms: C_18  and  N_19 
REMARK    3  A    between atoms: N_19  and  C_20 
REMARK    4  A    between atoms: C_23  and  O_24 
ROOT
HETATM    1  C   UNL     1      23.408  50.888  48.008  1.00  0.00     0.070 C 
HETATM    2  C   UNL     1      22.018  50.414  48.357  1.00  0.00     0.037 C 
HETATM    3  N   UNL     1      21.075  51.423  48.537  1.00  0.00    -0.192 N 
HETATM    4  C   UNL     1      19.862  51.212  49.084  1.00  0.00     0.725 A 
HETATM    5  N   UNL     1      19.452  49.930  49.331  1.00  0.00    -0.084 N 
HETATM    6  N   UNL     1      18.266  49.910  49.976  1.00  0.00    -0.149 NA
HETATM    7  C   UNL     1      17.994  51.219  50.029  1.00  0.00     0.275 A 
HETATM    8  N   UNL     1      18.945  52.050  49.494  1.00  0.00    -0.054 NA
HETATM    9  C   UNL     1      20.274  48.742  49.066  1.00  0.00     0.204 C 
HETATM   10  C   UNL     1      21.671  49.120  48.582  1.00  0.00     0.062 C 
HETATM   11  H   UNL     1      21.387  52.386  48.434  1.00  0.00     0.184 HD
ENDROOT
BRANCH  10  12
HETATM   12  C   UNL     1      22.635  47.987  48.591  1.00  0.00     0.256 C 
HETATM   13  N   UNL     1      23.338  47.844  49.767  1.00  0.00    -0.323 N 
HETATM   14  H   UNL     1      23.211  48.558  50.472  1.00  0.00     0.169 HD
HETATM   15  O   UNL     1      22.746  47.314  47.574  1.00  0.00    -0.267 OA
BRANCH  13  16
HETATM   16  C   UNL     1      24.174  46.761  50.123  1.00  0.00     0.035 A 
HETATM   17  C   UNL     1      23.928  45.436  49.763  1.00  0.00     0.032 A 
HETATM   18  C   UNL     1      24.779  44.412  50.195  1.00  0.00     0.039 A 
HETATM   19  C   UNL     1      25.889  44.691  50.990  1.00  0.00     0.068 A 
HETATM   20  C   UNL     1      26.143  46.012  51.355  1.00  0.00     0.039 A 
HETATM   21  C   UNL     1      25.292  47.039  50.921  1.00  0.00     0.032 A 
BRANCH  19  22
HETATM   22  O   UNL     1      26.626  43.597  51.344  1.00  0.00    -0.356 OA
HETATM   23  C   UNL     1      27.828  43.834  52.065  1.00  0.00     0.210 C 
ENDBRANCH  19  22
ENDBRANCH  13  16
ENDBRANCH  10  12
BRANCH   9  24
HETATM   24  C   UNL     1      19.534  47.754  48.164  1.00  0.00    -0.006 A 
HETATM   25  C   UNL     1      18.977  48.071  46.913  1.00  0.00     0.042 A 
HETATM   26 CL   UNL     1      19.142  49.623  46.175  1.00  0.00    -0.084 Cl
HETATM   27  C   UNL     1      18.263  47.110  46.183  1.00  0.00     0.024 A 
HETATM   28  C   UNL     1      18.109  45.816  46.676  1.00  0.00     0.002 A 
HETATM   29  C   UNL     1      18.675  45.475  47.899  1.00  0.00     0.001 A 
HETATM   30  C   UNL     1      19.379  46.432  48.633  1.00  0.00     0.011 A 
ENDBRANCH   9  24
TORSDOF 4
ENDMDL
MODEL 6
REMARK VINA RESULT:      -7.4      1.670      2.011
REMARK  4 active torsions:
REMARK  status: ('A' for Active; 'I' for Inactive)
REMARK    1  A    between atoms: C_9  and  C_10 
REMARK    2  A    between atoms: C_17  and  C_18 
REMARK       I    between atoms: C_18  and  N_19 
REMARK    3  A    between atoms: N_19  and  C_20 
REMARK    4  A    between atoms: C_23  and  O_24 
ROOT
HETATM    1  C   UNL     1      18.218  45.435  47.092  1.00  0.00     0.070 C 
HETATM    2  C   UNL     1      18.039  46.881  46.701  1.00  0.00     0.037 C 
HETATM    3  N   UNL     1      17.086  47.114  45.713  1.00  0.00    -0.192 N 
HETATM    4  C   UNL     1      16.962  48.291  45.068  1.00  0.00     0.725 A 
HETATM    5  N   UNL     1      17.683  49.371  45.501  1.00  0.00    -0.084 N 
HETATM    6  N   UNL     1      17.519  50.430  44.679  1.00  0.00    -0.149 NA
HETATM    7  C   UNL     1      16.637  49.929  43.807  1.00  0.00     0.275 A 
HETATM    8  N   UNL     1      16.269  48.623  44.010  1.00  0.00    -0.054 NA
HETATM    9  C   UNL     1      18.629  49.328  46.622  1.00  0.00     0.204 C 
HETATM   10  C   UNL     1      18.784  47.914  47.174  1.00  0.00     0.062 C 
HETATM   11  H   UNL     1      16.598  46.309  45.326  1.00  0.00     0.184 HD
ENDROOT
BRANCH  10  12
HETATM   12  C   UNL     1      19.941  47.754  48.096  1.00  0.00     0.256 C 
HETATM   13  N   UNL     1      21.174  47.861  47.490  1.00  0.00    -0.323 N 
HETATM   14  H   UNL     1      21.188  47.945  46.481  1.00  0.00     0.169 HD
HETATM   15  O   UNL     1      19.713  47.516  49.275  1.00  0.00    -0.267 OA
BRANCH  13  16
HETATM   16  C   UNL     1      22.429  47.936  48.137  1.00  0.00     0.035 A 
HETATM   17  C   UNL     1      22.995  46.887  48.860  1.00  0.00     0.032 A 
HETATM   18  C   UNL     1      24.222  47.055  49.512  1.00  0.00     0.039 A 
HETATM   19  C   UNL     1      24.904  48.268  49.454  1.00  0.00     0.068 A 
HETATM   20  C   UNL     1      24.346  49.323  48.734  1.00  0.00     0.039 A 
HETATM   21  C   UNL     1      23.117  49.155  48.078  1.00  0.00     0.032 A 
BRANCH  19  22
HETATM   22  O   UNL     1      26.084  48.293  50.143  1.00  0.00    -0.356 OA
HETATM   23  C   UNL     1      27.248  48.662  49.416  1.00  0.00     0.210 C 
ENDBRANCH  19  22
ENDBRANCH  13  16
ENDBRANCH  10  12
BRANCH   9  24
HETATM   24  C   UNL     1      18.286  50.387  47.670  1.00  0.00    -0.006 A 
HETATM   25  C   UNL     1      17.062  50.468  48.358  1.00  0.00     0.042 A 
HETATM   26 CL   UNL     1      15.799  49.304  48.174  1.00  0.00    -0.084 Cl
HETATM   27  C   UNL     1      16.816  51.512  49.260  1.00  0.00     0.024 A 
HETATM   28  C   UNL     1      17.788  52.478  49.507  1.00  0.00     0.002 A 
HETATM   29  C   UNL     1      19.014  52.401  48.858  1.00  0.00     0.001 A 
HETATM   30  C   UNL     1      19.260  51.368  47.952  1.00  0.00     0.011 A 
ENDBRANCH   9  24
TORSDOF 4
ENDMDL
MODEL 7
REMARK VINA RESULT:      -7.4      7.420     12.019
REMARK  4 active torsions:
REMARK  status: ('A' for Active; 'I' for Inactive)
REMARK    1  A    between atoms: C_9  and  C_10 
REMARK    2  A    between atoms: C_17  and  C_18 
REMARK       I    between atoms: C_18  and  N_19 
REMARK    3  A    between atoms: N_19  and  C_20 
REMARK    4  A    between atoms: C_23  and  O_24 
ROOT
HETATM    1  C   UNL     1      26.035  46.140  54.774  1.00  0.00     0.070 C 
HETATM    2  C   UNL     1      26.909  45.193  53.988  1.00  0.00     0.037 C 
HETATM    3  N   UNL     1      27.919  44.574  54.720  1.00  0.00    -0.192 N 
HETATM    4  C   UNL     1      28.936  43.898  54.150  1.00  0.00     0.725 A 
HETATM    5  N   UNL     1      28.907  43.652  52.804  1.00  0.00    -0.084 N 
HETATM    6  N   UNL     1      30.048  43.062  52.389  1.00  0.00    -0.149 NA
HETATM    7  C   UNL     1      30.693  42.929  53.553  1.00  0.00     0.275 A 
HETATM    8  N   UNL     1      30.047  43.427  54.656  1.00  0.00    -0.054 NA
HETATM    9  C   UNL     1      27.838  44.115  51.910  1.00  0.00     0.204 C 
HETATM   10  C   UNL     1      26.824  44.985  52.649  1.00  0.00     0.062 C 
HETATM   11  H   UNL     1      28.001  44.809  55.706  1.00  0.00     0.184 HD
ENDROOT
BRANCH  10  12
HETATM   12  C   UNL     1      25.901  45.726  51.746  1.00  0.00     0.256 C 
HETATM   13  N   UNL     1      26.412  46.902  51.245  1.00  0.00    -0.323 N 
HETATM   14  H   UNL     1      27.313  47.202  51.596  1.00  0.00     0.169 HD
HETATM   15  O   UNL     1      24.785  45.261  51.553  1.00  0.00    -0.267 OA
BRANCH  13  16
HETATM   16  C   UNL     1      25.840  47.707  50.233  1.00  0.00     0.035 A 
HETATM   17  C   UNL     1      26.562  48.616  49.461  1.00  0.00     0.032 A 
HETATM   18  C   UNL     1      25.915  49.412  48.509  1.00  0.00     0.039 A 
HETATM   19  C   UNL     1      24.539  49.315  48.311  1.00  0.00     0.068 A 
HETATM   20  C   UNL     1      23.809  48.409  49.078  1.00  0.00     0.039 A 
HETATM   21  C   UNL     1      24.457  47.609  50.030  1.00  0.00     0.032 A 
BRANCH  19  22
HETATM   22  O   UNL     1      24.039  50.156  47.357  1.00  0.00    -0.356 OA
HETATM   23  C   UNL     1      22.751  50.708  47.594  1.00  0.00     0.210 C 
ENDBRANCH  19  22
ENDBRANCH  13  16
ENDBRANCH  10  12
BRANCH   9  24
HETATM   24  C   UNL     1      27.229  42.948  51.134  1.00  0.00    -0.006 A 
HETATM   25  C   UNL     1      26.993  41.667  51.665  1.00  0.00     0.042 A 
HETATM   26 CL   UNL     1      27.280  41.266  53.320  1.00  0.00    -0.084 Cl
HETATM   27  C   UNL     1      26.484  40.640  50.857  1.00  0.00     0.024 A 
HETATM   28  C   UNL     1      26.184  40.875  49.518  1.00  0.00     0.002 A 
HETATM   29  C   UNL     1      26.383  42.142  48.981  1.00  0.00     0.001 A 
HETATM   30  C   UNL     1      26.899  43.165  49.780  1.00  0.00     0.011 A 
ENDBRANCH   9  24
TORSDOF 4
ENDMDL
MODEL 8
REMARK VINA RESULT:      -7.3      5.134      8.379
REMARK  4 active torsions:
REMARK  status: ('A' for Active; 'I' for Inactive)
REMARK    1  A    between atoms: C_9  and  C_10 
REMARK    2  A    between atoms: C_17  and  C_18 
REMARK       I    between atoms: C_18  and  N_19 
REMARK    3  A    between atoms: N_19  and  C_20 
REMARK    4  A    between atoms: C_23  and  O_24 
ROOT
HETATM    1  C   UNL     1      23.924  48.972  48.786  1.00  0.00     0.070 C 
HETATM    2  C   UNL     1      23.117  47.702  48.668  1.00  0.00     0.037 C 
HETATM    3  N   UNL     1      21.851  47.853  48.108  1.00  0.00    -0.192 N 
HETATM    4  C   UNL     1      20.906  46.894  48.147  1.00  0.00     0.725 A 
HETATM    5  N   UNL     1      21.235  45.647  48.605  1.00  0.00    -0.084 N 
HETATM    6  N   UNL     1      20.149  44.848  48.676  1.00  0.00    -0.149 NA
HETATM    7  C   UNL     1      19.211  45.667  48.186  1.00  0.00     0.275 A 
HETATM    8  N   UNL     1      19.633  46.928  47.849  1.00  0.00    -0.054 NA
HETATM    9  C   UNL     1      22.568  45.282  49.101  1.00  0.00     0.204 C 
HETATM   10  C   UNL     1      23.504  46.487  49.138  1.00  0.00     0.062 C 
HETATM   11  H   UNL     1      21.563  48.790  47.835  1.00  0.00     0.184 HD
ENDROOT
BRANCH  10  12
HETATM   12  C   UNL     1      24.755  46.251  49.908  1.00  0.00     0.256 C 
HETATM   13  N   UNL     1      24.629  46.416  51.269  1.00  0.00    -0.323 N 
HETATM   14  H   UNL     1      23.744  46.766  51.613  1.00  0.00     0.169 HD
HETATM   15  O   UNL     1      25.772  45.968  49.286  1.00  0.00    -0.267 OA
BRANCH  13  16
HETATM   16  C   UNL     1      25.589  46.083  52.252  1.00  0.00     0.035 A 
HETATM   17  C   UNL     1      26.094  44.798  52.442  1.00  0.00     0.032 A 
HETATM   18  C   UNL     1      27.008  44.538  53.470  1.00  0.00     0.039 A 
HETATM   19  C   UNL     1      27.435  45.554  54.322  1.00  0.00     0.068 A 
HETATM   20  C   UNL     1      26.936  46.842  54.140  1.00  0.00     0.039 A 
HETATM   21  C   UNL     1      26.021  47.104  53.109  1.00  0.00     0.032 A 
BRANCH  19  22
HETATM   22  O   UNL     1      28.322  45.158  55.283  1.00  0.00    -0.356 OA
HETATM   23  C   UNL     1      28.604  46.085  56.323  1.00  0.00     0.210 C 
ENDBRANCH  19  22
ENDBRANCH  13  16
ENDBRANCH  10  12
BRANCH   9  24
HETATM   24  C   UNL     1      23.120  44.070  48.350  1.00  0.00    -0.006 A 
HETATM   25  C   UNL     1      23.719  42.954  48.959  1.00  0.00     0.042 A 
HETATM   26 CL   UNL     1      23.828  42.759  50.671  1.00  0.00    -0.084 Cl
HETATM   27  C   UNL     1      24.251  41.915  48.182  1.00  0.00     0.024 A 
HETATM   28  C   UNL     1      24.177  41.960  46.792  1.00  0.00     0.002 A 
HETATM   29  C   UNL     1      23.564  43.042  46.172  1.00  0.00     0.001 A 
HETATM   30  C   UNL     1      23.041  44.084  46.942  1.00  0.00     0.011 A 
ENDBRANCH   9  24
TORSDOF 4
ENDMDL
MODEL 9
REMARK VINA RESULT:      -7.3     11.156     14.413
REMARK  4 active torsions:
REMARK  status: ('A' for Active; 'I' for Inactive)
REMARK    1  A    between atoms: C_9  and  C_10 
REMARK    2  A    between atoms: C_17  and  C_18 
REMARK       I    between atoms: C_18  and  N_19 
REMARK    3  A    between atoms: N_19  and  C_20 
REMARK    4  A    between atoms: C_23  and  O_24 
ROOT
HETATM    1  C   UNL     1      29.114  45.589  39.335  1.00  0.00     0.070 C 
HETATM    2  C   UNL     1      29.729  46.903  39.750  1.00  0.00     0.037 C 
HETATM    3  N   UNL     1      31.101  46.867  39.985  1.00  0.00    -0.192 N 
HETATM    4  C   UNL     1      31.773  47.865  40.592  1.00  0.00     0.725 A 
HETATM    5  N   UNL     1      31.132  49.046  40.849  1.00  0.00    -0.084 N 
HETATM    6  N   UNL     1      31.918  49.888  41.553  1.00  0.00    -0.149 NA
HETATM    7  C   UNL     1      33.042  49.166  41.629  1.00  0.00     0.275 A 
HETATM    8  N   UNL     1      32.996  47.922  41.053  1.00  0.00    -0.054 NA
HETATM    9  C   UNL     1      29.720  49.296  40.535  1.00  0.00     0.204 C 
HETATM   10  C   UNL     1      29.036  48.048  39.983  1.00  0.00     0.062 C 
HETATM   11  H   UNL     1      31.577  45.975  39.873  1.00  0.00     0.184 HD
ENDROOT
BRANCH  10  12
HETATM   12  C   UNL     1      27.552  48.149  39.935  1.00  0.00     0.256 C 
HETATM   13  N   UNL     1      27.044  48.532  38.713  1.00  0.00    -0.323 N 
HETATM   14  H   UNL     1      27.709  48.795  37.997  1.00  0.00     0.169 HD
HETATM   15  O   UNL     1      26.924  47.923  40.961  1.00  0.00    -0.267 OA
BRANCH  13  16
HETATM   16  C   UNL     1      25.684  48.533  38.328  1.00  0.00     0.035 A 
HETATM   17  C   UNL     1      25.067  47.481  37.652  1.00  0.00     0.032 A 
HETATM   18  C   UNL     1      23.726  47.576  37.262  1.00  0.00     0.039 A 
HETATM   19  C   UNL     1      22.978  48.719  37.541  1.00  0.00     0.068 A 
HETATM   20  C   UNL     1      23.587  49.775  38.216  1.00  0.00     0.039 A 
HETATM   21  C   UNL     1      24.930  49.680  38.609  1.00  0.00     0.032 A 
BRANCH  19  22
HETATM   22  O   UNL     1      21.687  48.679  37.097  1.00  0.00    -0.356 OA
HETATM   23  C   UNL     1      20.704  49.301  37.913  1.00  0.00     0.210 C 
ENDBRANCH  19  22
ENDBRANCH  13  16
ENDBRANCH  10  12
BRANCH   9  24
HETATM   24  C   UNL     1      29.564  50.543  39.664  1.00  0.00    -0.006 A 
HETATM   25  C   UNL     1      28.665  51.593  39.920  1.00  0.00     0.042 A 
HETATM   26 CL   UNL     1      27.667  51.658  41.327  1.00  0.00    -0.084 Cl
HETATM   27  C   UNL     1      28.552  52.671  39.030  1.00  0.00     0.024 A 
HETATM   28  C   UNL     1      29.343  52.730  37.885  1.00  0.00     0.002 A 
HETATM   29  C   UNL     1      30.257  51.716  37.629  1.00  0.00     0.001 A 
HETATM   30  C   UNL     1      30.367  50.636  38.508  1.00  0.00     0.011 A 
ENDBRANCH   9  24
TORSDOF 4
ENDMDL
MODEL 10
REMARK VINA RESULT:      -7.3     11.181     13.555
REMARK  4 active torsions:
REMARK  status: ('A' for Active; 'I' for Inactive)
REMARK    1  A    between atoms: C_9  and  C_10 
REMARK    2  A    between atoms: C_17  and  C_18 
REMARK       I    between atoms: C_18  and  N_19 
REMARK    3  A    between atoms: N_19  and  C_20 
REMARK    4  A    between atoms: C_23  and  O_24 
ROOT
HETATM    1  C   UNL     1      28.111  51.993  38.619  1.00  0.00     0.070 C 
HETATM    2  C   UNL     1      27.365  50.690  38.769  1.00  0.00     0.037 C 
HETATM    3  N   UNL     1      26.150  50.621  38.092  1.00  0.00    -0.192 N 
HETATM    4  C   UNL     1      25.241  49.649  38.303  1.00  0.00     0.725 A 
HETATM    5  N   UNL     1      25.573  48.579  39.090  1.00  0.00    -0.084 N 
HETATM    6  N   UNL     1      24.515  47.762  39.279  1.00  0.00    -0.149 NA
HETATM    7  C   UNL     1      23.595  48.374  38.523  1.00  0.00     0.275 A 
HETATM    8  N   UNL     1      23.999  49.531  37.908  1.00  0.00    -0.054 NA
HETATM    9  C   UNL     1      26.868  48.431  39.765  1.00  0.00     0.204 C 
HETATM   10  C   UNL     1      27.753  49.658  39.564  1.00  0.00     0.062 C 
HETATM   11  H   UNL     1      25.854  51.440  37.567  1.00  0.00     0.184 HD
ENDROOT
BRANCH  10  12
HETATM   12  C   UNL     1      28.937  49.697  40.464  1.00  0.00     0.256 C 
HETATM   13  N   UNL     1      30.143  49.486  39.832  1.00  0.00    -0.323 N 
HETATM   14  H   UNL     1      30.114  49.237  38.851  1.00  0.00     0.169 HD
HETATM   15  O   UNL     1      28.748  49.877  41.660  1.00  0.00    -0.267 OA
BRANCH  13  16
HETATM   16  C   UNL     1      31.429  49.648  40.395  1.00  0.00     0.035 A 
HETATM   17  C   UNL     1      32.092  50.872  40.481  1.00  0.00     0.032 A 
HETATM   18  C   UNL     1      33.386  50.943  41.010  1.00  0.00     0.039 A 
HETATM   19  C   UNL     1      34.040  49.798  41.462  1.00  0.00     0.068 A 
HETATM   20  C   UNL     1      33.385  48.571  41.380  1.00  0.00     0.039 A 
HETATM   21  C   UNL     1      32.087  48.498  40.852  1.00  0.00     0.032 A 
BRANCH  19  22
HETATM   22  O   UNL     1      35.299  50.013  41.945  1.00  0.00    -0.356 OA
HETATM   23  C   UNL     1      35.541  51.258  42.586  1.00  0.00     0.210 C 
ENDBRANCH  19  22
ENDBRANCH  13  16
ENDBRANCH  10  12
BRANCH   9  24
HETATM   24  C   UNL     1      27.529  47.103  39.396  1.00  0.00    -0.006 A 
HETATM   25  C   UNL     1      27.521  45.950  40.201  1.00  0.00     0.042 A 
HETATM   26 CL   UNL     1      26.666  45.854  41.698  1.00  0.00    -0.084 Cl
HETATM   27  C   UNL     1      28.207  44.794  39.804  1.00  0.00     0.024 A 
HETATM   28  C   UNL     1      28.895  44.760  38.593  1.00  0.00     0.002 A 
HETATM   29  C   UNL     1      28.893  45.879  37.770  1.00  0.00     0.001 A 
HETATM   30  C   UNL     1      28.218  47.036  38.166  1.00  0.00     0.011 A 
ENDBRANCH   9  24
TORSDOF 4
ENDMDL
