MODEL 1
REMARK VINA RESULT:      -8.2      0.000      0.000
REMARK  7 active torsions:
REMARK  status: ('A' for Active; 'I' for Inactive)
REMARK    1  A    between atoms: O_2  and  C_3 
REMARK    2  A    between atoms: C_6  and  C_7 
REMARK       I    between atoms: C_7  and  N_8 
REMARK    3  A    between atoms: C_14  and  C_15 
REMARK       I    between atoms: C_15  and  N_16 
REMARK    4  A    between atoms: N_16  and  C_17 
REMARK    5  A    between atoms: C_17  and  C_18 
REMARK       I    between atoms: N_25  and  C_26 
REMARK    6  A    between atoms: C_26  and  C_27 
REMARK    7  A    between atoms: C_30  and  O_31 
ROOT
HETATM    1  C   UNL     1      25.448  48.410  49.147  1.00  0.00     0.253 C 
HETATM    2  N   UNL     1      24.180  48.991  48.987  1.00  0.00    -0.348 N 
HETATM    3  C   UNL     1      23.011  48.586  49.760  1.00  0.00     0.131 C 
HETATM    4  C   UNL     1      21.965  49.681  49.864  1.00  0.00     0.081 C 
HETATM    5  C   UNL     1      21.564  50.294  48.514  1.00  0.00     0.142 C 
HETATM    6  O   UNL     1      20.963  51.576  48.846  1.00  0.00    -0.358 OA
HETATM    7  C   UNL     1      19.538  51.474  48.804  1.00  0.00     0.206 C 
HETATM    8  C   UNL     1      19.200  50.089  48.291  1.00  0.00     0.206 C 
HETATM    9  N   UNL     1      20.485  49.576  47.824  1.00  0.00    -0.300 N 
HETATM   10  C   UNL     1      20.676  48.323  47.264  1.00  0.00     0.257 C 
HETATM   11  O   UNL     1      21.771  47.801  47.094  1.00  0.00    -0.267 OA
HETATM   12  C   UNL     1      22.803  50.654  47.686  1.00  0.00     0.081 C 
HETATM   13  C   UNL     1      23.940  49.641  47.701  1.00  0.00     0.131 C 
HETATM   14  O   UNL     1      26.436  48.758  48.500  1.00  0.00    -0.267 OA
ENDROOT
BRANCH   8  15
HETATM   15  C   UNL     1      18.029  50.228  47.315  1.00  0.00     0.243 C 
HETATM   16  N   UNL     1      18.216  51.055  46.233  1.00  0.00    -0.355 N 
HETATM   17  H   UNL     1      19.160  51.336  45.994  1.00  0.00     0.162 HD
HETATM   18  O   UNL     1      16.939  49.719  47.580  1.00  0.00    -0.271 OA
BRANCH  16  19
HETATM   19  C   UNL     1      17.204  51.105  45.200  1.00  0.00     0.161 C 
BRANCH  19  20
HETATM   20  C   UNL     1      17.762  51.496  43.861  1.00  0.00    -0.041 A 
HETATM   21  C   UNL     1      18.733  50.702  43.234  1.00  0.00     0.009 A 
HETATM   22  C   UNL     1      19.196  51.026  41.958  1.00  0.00     0.001 A 
HETATM   23  C   UNL     1      18.694  52.145  41.295  1.00  0.00     0.000 A 
HETATM   24  C   UNL     1      17.730  52.942  41.909  1.00  0.00     0.001 A 
HETATM   25  C   UNL     1      17.265  52.620  43.184  1.00  0.00     0.009 A 
ENDBRANCH  19  20
ENDBRANCH  16  19
ENDBRANCH   8  15
BRANCH  10  26
HETATM   26  C   UNL     1      19.530  47.559  46.733  1.00  0.00     0.032 A 
HETATM   27  C   UNL     1      19.247  47.684  45.369  1.00  0.00     0.020 A 
HETATM   28  C   UNL     1      18.202  46.949  44.811  1.00  0.00     0.038 A 
HETATM   29  C   UNL     1      17.446  46.078  45.600  1.00  0.00     0.068 A 
HETATM   30  C   UNL     1      17.750  45.941  46.957  1.00  0.00     0.038 A 
HETATM   31  C   UNL     1      18.803  46.668  47.523  1.00  0.00     0.020 A 
BRANCH  29  32
HETATM   32  O   UNL     1      16.456  45.421  44.925  1.00  0.00    -0.356 OA
HETATM   33  C   UNL     1      16.646  44.030  44.696  1.00  0.00     0.210 C 
ENDBRANCH  29  32
ENDBRANCH  10  26
BRANCH   1  34
HETATM   34  C   UNL     1      25.648  47.317  50.128  1.00  0.00     0.032 A 
HETATM   35  C   UNL     1      25.966  47.593  51.460  1.00  0.00     0.020 A 
HETATM   36  C   UNL     1      26.085  46.545  52.376  1.00  0.00     0.038 A 
HETATM   37  C   UNL     1      25.843  45.226  51.984  1.00  0.00     0.068 A 
HETATM   38  C   UNL     1      25.506  44.954  50.657  1.00  0.00     0.038 A 
HETATM   39  C   UNL     1      25.400  45.999  49.731  1.00  0.00     0.020 A 
BRANCH  37  40
HETATM   40  O   UNL     1      25.973  44.297  52.980  1.00  0.00    -0.356 OA
HETATM   41  C   UNL     1      25.361  44.621  54.224  1.00  0.00     0.210 C 
ENDBRANCH  37  40
ENDBRANCH   1  34
TORSDOF 7
ENDMDL
MODEL 2
REMARK VINA RESULT:      -8.1      7.334     12.913
REMARK  7 active torsions:
REMARK  status: ('A' for Active; 'I' for Inactive)
REMARK    1  A    between atoms: O_2  and  C_3 
REMARK    2  A    between atoms: C_6  and  C_7 
REMARK       I    between atoms: C_7  and  N_8 
REMARK    3  A    between atoms: C_14  and  C_15 
REMARK       I    between atoms: C_15  and  N_16 
REMARK    4  A    between atoms: N_16  and  C_17 
REMARK    5  A    between atoms: C_17  and  C_18 
REMARK       I    between atoms: N_25  and  C_26 
REMARK    6  A    between atoms: C_26  and  C_27 
REMARK    7  A    between atoms: C_30  and  O_31 
ROOT
HETATM    1  C   UNL     1      26.638  37.550  46.784  1.00  0.00     0.253 C 
HETATM    2  N   UNL     1      27.095  38.290  47.886  1.00  0.00    -0.348 N 
HETATM    3  C   UNL     1      26.307  38.489  49.098  1.00  0.00     0.131 C 
HETATM    4  C   UNL     1      27.165  38.772  50.318  1.00  0.00     0.081 C 
HETATM    5  C   UNL     1      28.186  39.902  50.117  1.00  0.00     0.142 C 
HETATM    6  O   UNL     1      29.180  39.701  51.159  1.00  0.00    -0.358 OA
HETATM    7  C   UNL     1      28.947  40.606  52.240  1.00  0.00     0.206 C 
HETATM    8  C   UNL     1      27.822  41.529  51.820  1.00  0.00     0.206 C 
HETATM    9  N   UNL     1      27.662  41.244  50.396  1.00  0.00    -0.300 N 
HETATM   10  C   UNL     1      26.733  41.858  49.570  1.00  0.00     0.257 C 
HETATM   11  O   UNL     1      26.435  41.460  48.450  1.00  0.00    -0.267 OA
HETATM   12  C   UNL     1      28.960  39.714  48.807  1.00  0.00     0.081 C 
HETATM   13  C   UNL     1      28.144  39.266  47.602  1.00  0.00     0.131 C 
HETATM   14  O   UNL     1      27.307  37.375  45.765  1.00  0.00    -0.267 OA
ENDROOT
BRANCH   8  15
HETATM   15  C   UNL     1      28.183  42.943  52.283  1.00  0.00     0.243 C 
HETATM   16  N   UNL     1      27.494  43.437  53.366  1.00  0.00    -0.355 N 
HETATM   17  H   UNL     1      26.973  42.790  53.946  1.00  0.00     0.162 HD
HETATM   18  O   UNL     1      28.960  43.632  51.621  1.00  0.00    -0.271 OA
BRANCH  16  19
HETATM   19  C   UNL     1      27.898  44.701  53.941  1.00  0.00     0.161 C 
BRANCH  19  20
HETATM   20  C   UNL     1      28.993  44.551  54.959  1.00  0.00    -0.041 A 
HETATM   21  C   UNL     1      29.787  43.395  54.987  1.00  0.00     0.009 A 
HETATM   22  C   UNL     1      30.851  43.288  55.885  1.00  0.00     0.001 A 
HETATM   23  C   UNL     1      31.132  44.334  56.763  1.00  0.00     0.000 A 
HETATM   24  C   UNL     1      30.349  45.487  56.745  1.00  0.00     0.001 A 
HETATM   25  C   UNL     1      29.287  45.596  55.848  1.00  0.00     0.009 A 
ENDBRANCH  19  20
ENDBRANCH  16  19
ENDBRANCH   8  15
BRANCH  10  26
HETATM   26  C   UNL     1      26.101  43.129  49.971  1.00  0.00     0.032 A 
HETATM   27  C   UNL     1      26.636  44.311  49.449  1.00  0.00     0.020 A 
HETATM   28  C   UNL     1      26.046  45.534  49.763  1.00  0.00     0.038 A 
HETATM   29  C   UNL     1      24.916  45.587  50.584  1.00  0.00     0.068 A 
HETATM   30  C   UNL     1      24.372  44.401  51.082  1.00  0.00     0.038 A 
HETATM   31  C   UNL     1      24.953  43.168  50.764  1.00  0.00     0.020 A 
BRANCH  29  32
HETATM   32  O   UNL     1      24.440  46.848  50.808  1.00  0.00    -0.356 OA
HETATM   33  C   UNL     1      25.009  47.899  50.037  1.00  0.00     0.210 C 
ENDBRANCH  29  32
ENDBRANCH  10  26
BRANCH   1  34
HETATM   34  C   UNL     1      25.288  36.938  46.805  1.00  0.00     0.032 A 
HETATM   35  C   UNL     1      25.082  35.667  47.349  1.00  0.00     0.020 A 
HETATM   36  C   UNL     1      23.789  35.142  47.414  1.00  0.00     0.038 A 
HETATM   37  C   UNL     1      22.693  35.895  46.985  1.00  0.00     0.068 A 
HETATM   38  C   UNL     1      22.899  37.172  46.460  1.00  0.00     0.038 A 
HETATM   39  C   UNL     1      24.195  37.697  46.378  1.00  0.00     0.020 A 
BRANCH  37  40
HETATM   40  O   UNL     1      21.481  35.276  47.121  1.00  0.00    -0.356 OA
HETATM   41  C   UNL     1      20.950  35.219  48.440  1.00  0.00     0.210 C 
ENDBRANCH  37  40
ENDBRANCH   1  34
TORSDOF 7
ENDMDL
MODEL 3
REMARK VINA RESULT:      -7.7      2.176      2.897
REMARK  7 active torsions:
REMARK  status: ('A' for Active; 'I' for Inactive)
REMARK    1  A    between atoms: O_2  and  C_3 
REMARK    2  A    between atoms: C_6  and  C_7 
REMARK       I    between atoms: C_7  and  N_8 
REMARK    3  A    between atoms: C_14  and  C_15 
REMARK       I    between atoms: C_15  and  N_16 
REMARK    4  A    between atoms: N_16  and  C_17 
REMARK    5  A    between atoms: C_17  and  C_18 
REMARK       I    between atoms: N_25  and  C_26 
REMARK    6  A    between atoms: C_26  and  C_27 
REMARK    7  A    between atoms: C_30  and  O_31 
ROOT
HETATM    1  C   UNL     1      23.348  49.092  49.034  1.00  0.00     0.253 C 
HETATM    2  N   UNL     1      22.049  49.623  49.052  1.00  0.00    -0.348 N 
HETATM    3  C   UNL     1      20.881  48.863  49.485  1.00  0.00     0.131 C 
HETATM    4  C   UNL     1      19.753  49.750  49.980  1.00  0.00     0.081 C 
HETATM    5  C   UNL     1      19.366  50.874  49.006  1.00  0.00     0.142 C 
HETATM    6  O   UNL     1      18.657  51.849  49.820  1.00  0.00    -0.358 OA
HETATM    7  C   UNL     1      17.246  51.708  49.635  1.00  0.00     0.206 C 
HETATM    8  C   UNL     1      17.036  50.675  48.547  1.00  0.00     0.206 C 
HETATM    9  N   UNL     1      18.375  50.482  47.998  1.00  0.00    -0.300 N 
HETATM   10  C   UNL     1      18.683  49.612  46.962  1.00  0.00     0.257 C 
HETATM   11  O   UNL     1      19.821  49.272  46.662  1.00  0.00    -0.267 OA
HETATM   12  C   UNL     1      20.609  51.620  48.510  1.00  0.00     0.081 C 
HETATM   13  C   UNL     1      21.818  50.759  48.164  1.00  0.00     0.131 C 
HETATM   14  O   UNL     1      24.335  49.736  48.676  1.00  0.00    -0.267 OA
ENDROOT
BRANCH   8  15
HETATM   15  C   UNL     1      15.902  51.172  47.648  1.00  0.00     0.243 C 
HETATM   16  N   UNL     1      15.912  52.506  47.315  1.00  0.00    -0.355 N 
HETATM   17  H   UNL     1      16.762  53.037  47.462  1.00  0.00     0.162 HD
HETATM   18  O   UNL     1      14.966  50.424  47.361  1.00  0.00    -0.271 OA
BRANCH  16  19
HETATM   19  C   UNL     1      14.955  52.998  46.347  1.00  0.00     0.161 C 
BRANCH  19  20
HETATM   20  C   UNL     1      15.488  52.973  44.942  1.00  0.00    -0.041 A 
HETATM   21  C   UNL     1      16.828  53.296  44.682  1.00  0.00     0.009 A 
HETATM   22  C   UNL     1      17.341  53.201  43.387  1.00  0.00     0.001 A 
HETATM   23  C   UNL     1      16.521  52.782  42.340  1.00  0.00     0.000 A 
HETATM   24  C   UNL     1      15.188  52.461  42.586  1.00  0.00     0.001 A 
HETATM   25  C   UNL     1      14.674  52.554  43.880  1.00  0.00     0.009 A 
ENDBRANCH  19  20
ENDBRANCH  16  19
ENDBRANCH   8  15
BRANCH  10  26
HETATM   26  C   UNL     1      17.623  49.106  46.070  1.00  0.00     0.032 A 
HETATM   27  C   UNL     1      17.423  49.775  44.859  1.00  0.00     0.020 A 
HETATM   28  C   UNL     1      16.463  49.308  43.962  1.00  0.00     0.038 A 
HETATM   29  C   UNL     1      15.708  48.169  44.259  1.00  0.00     0.068 A 
HETATM   30  C   UNL     1      15.929  47.493  45.462  1.00  0.00     0.038 A 
HETATM   31  C   UNL     1      16.898  47.950  46.363  1.00  0.00     0.020 A 
BRANCH  29  32
HETATM   32  O   UNL     1      14.806  47.823  43.294  1.00  0.00    -0.356 OA
HETATM   33  C   UNL     1      13.833  48.798  42.942  1.00  0.00     0.210 C 
ENDBRANCH  29  32
ENDBRANCH  10  26
BRANCH   1  34
HETATM   34  C   UNL     1      23.587  47.690  49.452  1.00  0.00     0.032 A 
HETATM   35  C   UNL     1      23.038  46.622  48.738  1.00  0.00     0.020 A 
HETATM   36  C   UNL     1      23.333  45.310  49.116  1.00  0.00     0.038 A 
HETATM   37  C   UNL     1      24.211  45.055  50.173  1.00  0.00     0.068 A 
HETATM   38  C   UNL     1      24.774  46.123  50.873  1.00  0.00     0.038 A 
HETATM   39  C   UNL     1      24.470  47.441  50.507  1.00  0.00     0.020 A 
BRANCH  37  40
HETATM   40  O   UNL     1      24.432  43.730  50.430  1.00  0.00    -0.356 OA
HETATM   41  C   UNL     1      23.349  42.848  50.155  1.00  0.00     0.210 C 
ENDBRANCH  37  40
ENDBRANCH   1  34
TORSDOF 7
ENDMDL
MODEL 4
REMARK VINA RESULT:      -7.6     23.695     27.978
REMARK  7 active torsions:
REMARK  status: ('A' for Active; 'I' for Inactive)
REMARK    1  A    between atoms: O_2  and  C_3 
REMARK    2  A    between atoms: C_6  and  C_7 
REMARK       I    between atoms: C_7  and  N_8 
REMARK    3  A    between atoms: C_14  and  C_15 
REMARK       I    between atoms: C_15  and  N_16 
REMARK    4  A    between atoms: N_16  and  C_17 
REMARK    5  A    between atoms: C_17  and  C_18 
REMARK       I    between atoms: N_25  and  C_26 
REMARK    6  A    between atoms: C_26  and  C_27 
REMARK    7  A    between atoms: C_30  and  O_31 
ROOT
HETATM    1  C   UNL     1      41.372  36.455  66.234  1.00  0.00     0.253 C 
HETATM    2  N   UNL     1      41.697  37.820  66.269  1.00  0.00    -0.348 N 
HETATM    3  C   UNL     1      40.983  38.791  67.093  1.00  0.00     0.131 C 
HETATM    4  C   UNL     1      41.825  40.007  67.433  1.00  0.00     0.081 C 
HETATM    5  C   UNL     1      42.482  40.674  66.214  1.00  0.00     0.142 C 
HETATM    6  O   UNL     1      43.573  41.466  66.761  1.00  0.00    -0.358 OA
HETATM    7  C   UNL     1      43.188  42.840  66.842  1.00  0.00     0.206 C 
HETATM    8  C   UNL     1      41.825  42.966  66.193  1.00  0.00     0.206 C 
HETATM    9  N   UNL     1      41.636  41.670  65.546  1.00  0.00    -0.300 N 
HETATM   10  C   UNL     1      40.513  41.311  64.816  1.00  0.00     0.257 C 
HETATM   11  O   UNL     1      40.246  40.164  64.479  1.00  0.00    -0.267 OA
HETATM   12  C   UNL     1      43.171  39.634  65.325  1.00  0.00     0.081 C 
HETATM   13  C   UNL     1      42.415  38.330  65.104  1.00  0.00     0.131 C 
HETATM   14  O   UNL     1      41.980  35.635  65.545  1.00  0.00    -0.267 OA
ENDROOT
BRANCH   8  15
HETATM   15  C   UNL     1      41.824  44.248  65.358  1.00  0.00     0.243 C 
HETATM   16  N   UNL     1      40.883  45.198  65.679  1.00  0.00    -0.355 N 
HETATM   17  H   UNL     1      40.408  45.129  66.571  1.00  0.00     0.162 HD
HETATM   18  O   UNL     1      42.552  44.344  64.369  1.00  0.00    -0.271 OA
BRANCH  16  19
HETATM   19  C   UNL     1      40.933  46.489  65.028  1.00  0.00     0.161 C 
BRANCH  19  20
HETATM   20  C   UNL     1      39.765  47.364  65.384  1.00  0.00    -0.041 A 
HETATM   21  C   UNL     1      38.964  47.065  66.496  1.00  0.00     0.009 A 
HETATM   22  C   UNL     1      37.924  47.919  66.869  1.00  0.00     0.001 A 
HETATM   23  C   UNL     1      37.675  49.079  66.136  1.00  0.00     0.000 A 
HETATM   24  C   UNL     1      38.464  49.385  65.029  1.00  0.00     0.001 A 
HETATM   25  C   UNL     1      39.503  48.533  64.655  1.00  0.00     0.009 A 
ENDBRANCH  19  20
ENDBRANCH  16  19
ENDBRANCH   8  15
BRANCH  10  26
HETATM   26  C   UNL     1      39.593  42.344  64.304  1.00  0.00     0.032 A 
HETATM   27  C   UNL     1      38.547  42.749  65.139  1.00  0.00     0.020 A 
HETATM   28  C   UNL     1      37.677  43.753  64.717  1.00  0.00     0.038 A 
HETATM   29  C   UNL     1      37.850  44.368  63.474  1.00  0.00     0.068 A 
HETATM   30  C   UNL     1      38.911  43.974  62.655  1.00  0.00     0.038 A 
HETATM   31  C   UNL     1      39.795  42.973  63.075  1.00  0.00     0.020 A 
BRANCH  29  32
HETATM   32  O   UNL     1      36.928  45.336  63.189  1.00  0.00    -0.356 OA
HETATM   33  C   UNL     1      36.269  45.942  64.293  1.00  0.00     0.210 C 
ENDBRANCH  29  32
ENDBRANCH  10  26
BRANCH   1  34
HETATM   34  C   UNL     1      40.246  35.935  67.046  1.00  0.00     0.032 A 
HETATM   35  C   UNL     1      39.187  35.245  66.450  1.00  0.00     0.020 A 
HETATM   36  C   UNL     1      38.172  34.710  67.247  1.00  0.00     0.038 A 
HETATM   37  C   UNL     1      38.230  34.816  68.639  1.00  0.00     0.068 A 
HETATM   38  C   UNL     1      39.299  35.490  69.234  1.00  0.00     0.038 A 
HETATM   39  C   UNL     1      40.311  36.042  68.438  1.00  0.00     0.020 A 
BRANCH  37  40
HETATM   40  O   UNL     1      37.187  34.233  69.304  1.00  0.00    -0.356 OA
HETATM   41  C   UNL     1      37.405  32.908  69.775  1.00  0.00     0.210 C 
ENDBRANCH  37  40
ENDBRANCH   1  34
TORSDOF 7
ENDMDL
MODEL 5
REMARK VINA RESULT:      -7.6     10.640     12.556
REMARK  7 active torsions:
REMARK  status: ('A' for Active; 'I' for Inactive)
REMARK    1  A    between atoms: O_2  and  C_3 
REMARK    2  A    between atoms: C_6  and  C_7 
REMARK       I    between atoms: C_7  and  N_8 
REMARK    3  A    between atoms: C_14  and  C_15 
REMARK       I    between atoms: C_15  and  N_16 
REMARK    4  A    between atoms: N_16  and  C_17 
REMARK    5  A    between atoms: C_17  and  C_18 
REMARK       I    between atoms: N_25  and  C_26 
REMARK    6  A    between atoms: C_26  and  C_27 
REMARK    7  A    between atoms: C_30  and  O_31 
ROOT
HETATM    1  C   UNL     1      33.755  52.229  39.684  1.00  0.00     0.253 C 
HETATM    2  N   UNL     1      32.398  51.976  39.941  1.00  0.00    -0.348 N 
HETATM    3  C   UNL     1      31.937  51.137  41.043  1.00  0.00     0.131 C 
HETATM    4  C   UNL     1      30.524  51.471  41.485  1.00  0.00     0.081 C 
HETATM    5  C   UNL     1      29.502  51.510  40.339  1.00  0.00     0.142 C 
HETATM    6  O   UNL     1      28.383  52.282  40.858  1.00  0.00    -0.358 OA
HETATM    7  C   UNL     1      27.333  51.405  41.271  1.00  0.00     0.206 C 
HETATM    8  C   UNL     1      27.739  49.999  40.880  1.00  0.00     0.206 C 
HETATM    9  N   UNL     1      28.903  50.207  40.023  1.00  0.00    -0.300 N 
HETATM   10  C   UNL     1      29.628  49.191  39.419  1.00  0.00     0.257 C 
HETATM   11  O   UNL     1      30.729  49.341  38.904  1.00  0.00    -0.267 OA
HETATM   12  C   UNL     1      30.028  52.339  39.163  1.00  0.00     0.081 C 
HETATM   13  C   UNL     1      31.496  52.144  38.805  1.00  0.00     0.131 C 
HETATM   14  O   UNL     1      34.143  52.943  38.759  1.00  0.00    -0.267 OA
ENDROOT
BRANCH   8  15
HETATM   15  C   UNL     1      26.497  49.293  40.330  1.00  0.00     0.243 C 
HETATM   16  N   UNL     1      26.068  48.175  41.005  1.00  0.00    -0.355 N 
HETATM   17  H   UNL     1      26.420  48.007  41.940  1.00  0.00     0.162 HD
HETATM   18  O   UNL     1      26.005  49.651  39.259  1.00  0.00    -0.271 OA
BRANCH  16  19
HETATM   19  C   UNL     1      24.816  47.558  40.623  1.00  0.00     0.161 C 
BRANCH  19  20
HETATM   20  C   UNL     1      24.835  46.064  40.781  1.00  0.00    -0.041 A 
HETATM   21  C   UNL     1      24.186  45.241  39.849  1.00  0.00     0.009 A 
HETATM   22  C   UNL     1      24.267  43.851  39.956  1.00  0.00     0.001 A 
HETATM   23  C   UNL     1      24.997  43.270  40.992  1.00  0.00     0.000 A 
HETATM   24  C   UNL     1      25.645  44.079  41.924  1.00  0.00     0.001 A 
HETATM   25  C   UNL     1      25.566  45.467  41.819  1.00  0.00     0.009 A 
ENDBRANCH  19  20
ENDBRANCH  16  19
ENDBRANCH   8  15
BRANCH  10  26
HETATM   26  C   UNL     1      29.047  47.843  39.274  1.00  0.00     0.032 A 
HETATM   27  C   UNL     1      28.360  47.560  38.089  1.00  0.00     0.020 A 
HETATM   28  C   UNL     1      27.831  46.286  37.886  1.00  0.00     0.038 A 
HETATM   29  C   UNL     1      27.994  45.287  38.850  1.00  0.00     0.068 A 
HETATM   30  C   UNL     1      28.701  45.571  40.020  1.00  0.00     0.038 A 
HETATM   31  C   UNL     1      29.243  46.844  40.229  1.00  0.00     0.020 A 
BRANCH  29  32
HETATM   32  O   UNL     1      27.427  44.088  38.521  1.00  0.00    -0.356 OA
HETATM   33  C   UNL     1      28.089  42.915  38.978  1.00  0.00     0.210 C 
ENDBRANCH  29  32
ENDBRANCH  10  26
BRANCH   1  34
HETATM   34  C   UNL     1      34.802  51.623  40.539  1.00  0.00     0.032 A 
HETATM   35  C   UNL     1      35.934  51.026  39.978  1.00  0.00     0.020 A 
HETATM   36  C   UNL     1      36.936  50.521  40.810  1.00  0.00     0.038 A 
HETATM   37  C   UNL     1      36.841  50.650  42.198  1.00  0.00     0.068 A 
HETATM   38  C   UNL     1      35.718  51.264  42.756  1.00  0.00     0.038 A 
HETATM   39  C   UNL     1      34.703  51.758  41.927  1.00  0.00     0.020 A 
BRANCH  37  40
HETATM   40  O   UNL     1      37.896  50.132  42.897  1.00  0.00    -0.356 OA
HETATM   41  C   UNL     1      39.189  50.572  42.498  1.00  0.00     0.210 C 
ENDBRANCH  37  40
ENDBRANCH   1  34
TORSDOF 7
ENDMDL
MODEL 6
REMARK VINA RESULT:      -7.6     14.729     19.894
REMARK  7 active torsions:
REMARK  status: ('A' for Active; 'I' for Inactive)
REMARK    1  A    between atoms: O_2  and  C_3 
REMARK    2  A    between atoms: C_6  and  C_7 
REMARK       I    between atoms: C_7  and  N_8 
REMARK    3  A    between atoms: C_14  and  C_15 
REMARK       I    between atoms: C_15  and  N_16 
REMARK    4  A    between atoms: N_16  and  C_17 
REMARK    5  A    between atoms: C_17  and  C_18 
REMARK       I    between atoms: N_25  and  C_26 
REMARK    6  A    between atoms: C_26  and  C_27 
REMARK    7  A    between atoms: C_30  and  O_31 
ROOT
HETATM    1  C   UNL     1      33.868  51.627  39.687  1.00  0.00     0.253 C 
HETATM    2  N   UNL     1      35.043  51.452  40.436  1.00  0.00    -0.348 N 
HETATM    3  C   UNL     1      35.047  51.258  41.882  1.00  0.00     0.131 C 
HETATM    4  C   UNL     1      36.281  50.524  42.374  1.00  0.00     0.081 C 
HETATM    5  C   UNL     1      37.606  51.127  41.881  1.00  0.00     0.142 C 
HETATM    6  O   UNL     1      38.586  50.063  42.039  1.00  0.00    -0.358 OA
HETATM    7  C   UNL     1      39.356  50.279  43.224  1.00  0.00     0.206 C 
HETATM    8  C   UNL     1      38.941  51.620  43.793  1.00  0.00     0.206 C 
HETATM    9  N   UNL     1      38.129  52.204  42.729  1.00  0.00    -0.300 N 
HETATM   10  C   UNL     1      37.521  53.449  42.796  1.00  0.00     0.257 C 
HETATM   11  O   UNL     1      36.656  53.837  42.021  1.00  0.00    -0.267 OA
HETATM   12  C   UNL     1      37.562  51.386  40.371  1.00  0.00     0.081 C 
HETATM   13  C   UNL     1      36.265  51.970  39.826  1.00  0.00     0.131 C 
HETATM   14  O   UNL     1      33.865  51.783  38.466  1.00  0.00    -0.267 OA
ENDROOT
BRANCH   8  15
HETATM   15  C   UNL     1      40.208  52.333  44.271  1.00  0.00     0.243 C 
HETATM   16  N   UNL     1      40.425  52.373  45.628  1.00  0.00    -0.355 N 
HETATM   17  H   UNL     1      39.896  51.745  46.223  1.00  0.00     0.162 HD
HETATM   18  O   UNL     1      40.912  52.948  43.469  1.00  0.00    -0.271 OA
BRANCH  16  19
HETATM   19  C   UNL     1      41.678  52.897  46.127  1.00  0.00     0.161 C 
BRANCH  19  20
HETATM   20  C   UNL     1      42.697  51.821  46.376  1.00  0.00    -0.041 A 
HETATM   21  C   UNL     1      43.755  52.035  47.271  1.00  0.00     0.009 A 
HETATM   22  C   UNL     1      44.658  51.009  47.558  1.00  0.00     0.001 A 
HETATM   23  C   UNL     1      44.514  49.762  46.953  1.00  0.00     0.000 A 
HETATM   24  C   UNL     1      43.467  49.538  46.060  1.00  0.00     0.001 A 
HETATM   25  C   UNL     1      42.563  50.561  45.774  1.00  0.00     0.009 A 
ENDBRANCH  19  20
ENDBRANCH  16  19
ENDBRANCH   8  15
BRANCH  10  26
HETATM   26  C   UNL     1      37.970  54.448  43.785  1.00  0.00     0.032 A 
HETATM   27  C   UNL     1      38.780  55.492  43.327  1.00  0.00     0.020 A 
HETATM   28  C   UNL     1      39.193  56.485  44.214  1.00  0.00     0.038 A 
HETATM   29  C   UNL     1      38.793  56.453  45.553  1.00  0.00     0.068 A 
HETATM   30  C   UNL     1      37.965  55.419  45.997  1.00  0.00     0.038 A 
HETATM   31  C   UNL     1      37.538  54.423  45.111  1.00  0.00     0.020 A 
BRANCH  29  32
HETATM   32  O   UNL     1      39.269  57.486  46.309  1.00  0.00    -0.356 OA
HETATM   33  C   UNL     1      39.688  58.654  45.614  1.00  0.00     0.210 C 
ENDBRANCH  29  32
ENDBRANCH  10  26
BRANCH   1  34
HETATM   34  C   UNL     1      32.548  51.637  40.361  1.00  0.00     0.032 A 
HETATM   35  C   UNL     1      31.850  52.830  40.561  1.00  0.00     0.020 A 
HETATM   36  C   UNL     1      30.579  52.802  41.140  1.00  0.00     0.038 A 
HETATM   37  C   UNL     1      29.979  51.586  41.479  1.00  0.00     0.068 A 
HETATM   38  C   UNL     1      30.670  50.393  41.260  1.00  0.00     0.038 A 
HETATM   39  C   UNL     1      31.951  50.417  40.694  1.00  0.00     0.020 A 
BRANCH  37  40
HETATM   40  O   UNL     1      28.727  51.694  42.018  1.00  0.00    -0.356 OA
HETATM   41  C   UNL     1      27.778  52.436  41.260  1.00  0.00     0.210 C 
ENDBRANCH  37  40
ENDBRANCH   1  34
TORSDOF 7
ENDMDL
MODEL 7
REMARK VINA RESULT:      -7.5      2.640      4.812
REMARK  7 active torsions:
REMARK  status: ('A' for Active; 'I' for Inactive)
REMARK    1  A    between atoms: O_2  and  C_3 
REMARK    2  A    between atoms: C_6  and  C_7 
REMARK       I    between atoms: C_7  and  N_8 
REMARK    3  A    between atoms: C_14  and  C_15 
REMARK       I    between atoms: C_15  and  N_16 
REMARK    4  A    between atoms: N_16  and  C_17 
REMARK    5  A    between atoms: C_17  and  C_18 
REMARK       I    between atoms: N_25  and  C_26 
REMARK    6  A    between atoms: C_26  and  C_27 
REMARK    7  A    between atoms: C_30  and  O_31 
ROOT
HETATM    1  C   UNL     1      22.697  45.108  49.237  1.00  0.00     0.253 C 
HETATM    2  N   UNL     1      21.737  45.433  48.266  1.00  0.00    -0.348 N 
HETATM    3  C   UNL     1      21.885  46.551  47.339  1.00  0.00     0.131 C 
HETATM    4  C   UNL     1      21.089  46.365  46.061  1.00  0.00     0.081 C 
HETATM    5  C   UNL     1      19.611  46.012  46.289  1.00  0.00     0.142 C 
HETATM    6  O   UNL     1      19.166  45.425  45.035  1.00  0.00    -0.358 OA
HETATM    7  C   UNL     1      18.435  46.390  44.274  1.00  0.00     0.206 C 
HETATM    8  C   UNL     1      18.288  47.626  45.137  1.00  0.00     0.206 C 
HETATM    9  N   UNL     1      18.733  47.177  46.454  1.00  0.00    -0.300 N 
HETATM   10  C   UNL     1      18.777  47.977  47.585  1.00  0.00     0.257 C 
HETATM   11  O   UNL     1      19.366  47.681  48.618  1.00  0.00    -0.267 OA
HETATM   12  C   UNL     1      19.469  44.882  47.314  1.00  0.00     0.081 C 
HETATM   13  C   UNL     1      20.382  44.958  48.531  1.00  0.00     0.131 C 
HETATM   14  O   UNL     1      22.575  44.160  50.013  1.00  0.00    -0.267 OA
ENDROOT
BRANCH   8  15
HETATM   15  C   UNL     1      16.865  48.157  44.949  1.00  0.00     0.243 C 
HETATM   16  N   UNL     1      16.738  49.423  44.427  1.00  0.00    -0.355 N 
HETATM   17  H   UNL     1      17.541  49.845  43.975  1.00  0.00     0.162 HD
HETATM   18  O   UNL     1      15.903  47.517  45.375  1.00  0.00    -0.271 OA
BRANCH  16  19
HETATM   19  C   UNL     1      15.422  49.916  44.085  1.00  0.00     0.161 C 
BRANCH  19  20
HETATM   20  C   UNL     1      15.234  51.363  44.443  1.00  0.00    -0.041 A 
HETATM   21  C   UNL     1      16.250  52.296  44.196  1.00  0.00     0.009 A 
HETATM   22  C   UNL     1      16.047  53.652  44.462  1.00  0.00     0.001 A 
HETATM   23  C   UNL     1      14.826  54.088  44.974  1.00  0.00     0.000 A 
HETATM   24  C   UNL     1      13.808  53.169  45.225  1.00  0.00     0.001 A 
HETATM   25  C   UNL     1      14.010  51.815  44.960  1.00  0.00     0.009 A 
ENDBRANCH  19  20
ENDBRANCH  16  19
ENDBRANCH   8  15
BRANCH  10  26
HETATM   26  C   UNL     1      18.006  49.234  47.642  1.00  0.00     0.032 A 
HETATM   27  C   UNL     1      16.713  49.176  48.172  1.00  0.00     0.020 A 
HETATM   28  C   UNL     1      15.961  50.344  48.288  1.00  0.00     0.038 A 
HETATM   29  C   UNL     1      16.495  51.574  47.892  1.00  0.00     0.068 A 
HETATM   30  C   UNL     1      17.796  51.628  47.386  1.00  0.00     0.038 A 
HETATM   31  C   UNL     1      18.561  50.461  47.275  1.00  0.00     0.020 A 
BRANCH  29  32
HETATM   32  O   UNL     1      15.652  52.636  48.062  1.00  0.00    -0.356 OA
HETATM   33  C   UNL     1      15.099  52.819  49.359  1.00  0.00     0.210 C 
ENDBRANCH  29  32
ENDBRANCH  10  26
BRANCH   1  34
HETATM   34  C   UNL     1      23.927  45.923  49.373  1.00  0.00     0.032 A 
HETATM   35  C   UNL     1      23.858  47.306  49.559  1.00  0.00     0.020 A 
HETATM   36  C   UNL     1      25.032  48.040  49.749  1.00  0.00     0.038 A 
HETATM   37  C   UNL     1      26.272  47.397  49.803  1.00  0.00     0.068 A 
HETATM   38  C   UNL     1      26.337  46.012  49.636  1.00  0.00     0.038 A 
HETATM   39  C   UNL     1      25.164  45.274  49.430  1.00  0.00     0.020 A 
BRANCH  37  40
HETATM   40  O   UNL     1      27.340  48.225  50.014  1.00  0.00    -0.356 OA
HETATM   41  C   UNL     1      27.573  49.214  49.017  1.00  0.00     0.210 C 
ENDBRANCH  37  40
ENDBRANCH   1  34
TORSDOF 7
ENDMDL
MODEL 8
REMARK VINA RESULT:      -7.5     10.288     12.087
REMARK  7 active torsions:
REMARK  status: ('A' for Active; 'I' for Inactive)
REMARK    1  A    between atoms: O_2  and  C_3 
REMARK    2  A    between atoms: C_6  and  C_7 
REMARK       I    between atoms: C_7  and  N_8 
REMARK    3  A    between atoms: C_14  and  C_15 
REMARK       I    between atoms: C_15  and  N_16 
REMARK    4  A    between atoms: N_16  and  C_17 
REMARK    5  A    between atoms: C_17  and  C_18 
REMARK       I    between atoms: N_25  and  C_26 
REMARK    6  A    between atoms: C_26  and  C_27 
REMARK    7  A    between atoms: C_30  and  O_31 
ROOT
HETATM    1  C   UNL     1      33.678  52.303  39.796  1.00  0.00     0.253 C 
HETATM    2  N   UNL     1      32.326  52.013  40.036  1.00  0.00    -0.348 N 
HETATM    3  C   UNL     1      31.877  51.119  41.099  1.00  0.00     0.131 C 
HETATM    4  C   UNL     1      30.456  51.407  41.548  1.00  0.00     0.081 C 
HETATM    5  C   UNL     1      29.437  51.476  40.400  1.00  0.00     0.142 C 
HETATM    6  O   UNL     1      28.302  52.203  40.947  1.00  0.00    -0.358 OA
HETATM    7  C   UNL     1      27.267  51.290  41.317  1.00  0.00     0.206 C 
HETATM    8  C   UNL     1      27.702  49.910  40.868  1.00  0.00     0.206 C 
HETATM    9  N   UNL     1      28.864  50.177  40.026  1.00  0.00    -0.300 N 
HETATM   10  C   UNL     1      29.611  49.202  39.382  1.00  0.00     0.257 C 
HETATM   11  O   UNL     1      30.711  49.394  38.879  1.00  0.00    -0.267 OA
HETATM   12  C   UNL     1      29.952  52.365  39.263  1.00  0.00     0.081 C 
HETATM   13  C   UNL     1      31.424  52.213  38.904  1.00  0.00     0.131 C 
HETATM   14  O   UNL     1      34.056  53.064  38.904  1.00  0.00    -0.267 OA
ENDROOT
BRANCH   8  15
HETATM   15  C   UNL     1      26.476  49.205  40.282  1.00  0.00     0.243 C 
HETATM   16  N   UNL     1      25.726  49.914  39.373  1.00  0.00    -0.355 N 
HETATM   17  H   UNL     1      26.128  50.744  38.954  1.00  0.00     0.162 HD
HETATM   18  O   UNL     1      26.125  48.108  40.719  1.00  0.00    -0.271 OA
BRANCH  16  19
HETATM   19  C   UNL     1      24.649  49.247  38.675  1.00  0.00     0.161 C 
BRANCH  19  20
HETATM   20  C   UNL     1      23.303  49.527  39.282  1.00  0.00    -0.041 A 
HETATM   21  C   UNL     1      22.609  48.522  39.970  1.00  0.00     0.009 A 
HETATM   22  C   UNL     1      21.393  48.804  40.597  1.00  0.00     0.001 A 
HETATM   23  C   UNL     1      20.861  50.091  40.543  1.00  0.00     0.000 A 
HETATM   24  C   UNL     1      21.542  51.098  39.861  1.00  0.00     0.001 A 
HETATM   25  C   UNL     1      22.757  50.818  39.234  1.00  0.00     0.009 A 
ENDBRANCH  19  20
ENDBRANCH  16  19
ENDBRANCH   8  15
BRANCH  10  26
HETATM   26  C   UNL     1      29.056  47.850  39.176  1.00  0.00     0.032 A 
HETATM   27  C   UNL     1      28.352  47.615  37.991  1.00  0.00     0.020 A 
HETATM   28  C   UNL     1      27.846  46.342  37.730  1.00  0.00     0.038 A 
HETATM   29  C   UNL     1      28.050  45.297  38.636  1.00  0.00     0.068 A 
HETATM   30  C   UNL     1      28.775  45.535  39.806  1.00  0.00     0.038 A 
HETATM   31  C   UNL     1      29.293  46.807  40.072  1.00  0.00     0.020 A 
BRANCH  29  32
HETATM   32  O   UNL     1      27.503  44.105  38.255  1.00  0.00    -0.356 OA
HETATM   33  C   UNL     1      26.832  44.075  37.001  1.00  0.00     0.210 C 
ENDBRANCH  29  32
ENDBRANCH  10  26
BRANCH   1  34
HETATM   34  C   UNL     1      34.734  51.680  40.628  1.00  0.00     0.032 A 
HETATM   35  C   UNL     1      35.827  51.036  40.042  1.00  0.00     0.020 A 
HETATM   36  C   UNL     1      36.840  50.515  40.851  1.00  0.00     0.038 A 
HETATM   37  C   UNL     1      36.795  50.675  42.239  1.00  0.00     0.068 A 
HETATM   38  C   UNL     1      35.712  51.336  42.821  1.00  0.00     0.038 A 
HETATM   39  C   UNL     1      34.686  51.847  42.016  1.00  0.00     0.020 A 
BRANCH  37  40
HETATM   40  O   UNL     1      37.856  50.138  42.914  1.00  0.00    -0.356 OA
HETATM   41  C   UNL     1      39.149  50.529  42.464  1.00  0.00     0.210 C 
ENDBRANCH  37  40
ENDBRANCH   1  34
TORSDOF 7
ENDMDL
MODEL 9
REMARK VINA RESULT:      -7.4     11.435     14.776
REMARK  7 active torsions:
REMARK  status: ('A' for Active; 'I' for Inactive)
REMARK    1  A    between atoms: O_2  and  C_3 
REMARK    2  A    between atoms: C_6  and  C_7 
REMARK       I    between atoms: C_7  and  N_8 
REMARK    3  A    between atoms: C_14  and  C_15 
REMARK       I    between atoms: C_15  and  N_16 
REMARK    4  A    between atoms: N_16  and  C_17 
REMARK    5  A    between atoms: C_17  and  C_18 
REMARK       I    between atoms: N_25  and  C_26 
REMARK    6  A    between atoms: C_26  and  C_27 
REMARK    7  A    between atoms: C_30  and  O_31 
ROOT
HETATM    1  C   UNL     1      26.723  46.656  40.771  1.00  0.00     0.253 C 
HETATM    2  N   UNL     1      27.495  47.712  40.261  1.00  0.00    -0.348 N 
HETATM    3  C   UNL     1      28.762  47.512  39.565  1.00  0.00     0.131 C 
HETATM    4  C   UNL     1      29.102  48.651  38.622  1.00  0.00     0.081 C 
HETATM    5  C   UNL     1      29.025  50.043  39.267  1.00  0.00     0.142 C 
HETATM    6  O   UNL     1      28.907  50.970  38.152  1.00  0.00    -0.358 OA
HETATM    7  C   UNL     1      30.174  51.573  37.879  1.00  0.00     0.206 C 
HETATM    8  C   UNL     1      31.134  51.111  38.956  1.00  0.00     0.206 C 
HETATM    9  N   UNL     1      30.263  50.466  39.935  1.00  0.00    -0.300 N 
HETATM   10  C   UNL     1      30.700  49.880  41.113  1.00  0.00     0.257 C 
HETATM   11  O   UNL     1      30.018  49.138  41.810  1.00  0.00    -0.267 OA
HETATM   12  C   UNL     1      27.718  50.214  40.049  1.00  0.00     0.081 C 
HETATM   13  C   UNL     1      27.267  49.017  40.876  1.00  0.00     0.131 C 
HETATM   14  O   UNL     1      25.649  46.825  41.350  1.00  0.00    -0.267 OA
ENDROOT
BRANCH   8  15
HETATM   15  C   UNL     1      31.988  52.313  39.364  1.00  0.00     0.243 C 
HETATM   16  N   UNL     1      33.339  52.225  39.125  1.00  0.00    -0.355 N 
HETATM   17  H   UNL     1      33.675  51.509  38.492  1.00  0.00     0.162 HD
HETATM   18  O   UNL     1      31.485  53.245  39.994  1.00  0.00    -0.271 OA
BRANCH  16  19
HETATM   19  C   UNL     1      34.171  53.388  39.347  1.00  0.00     0.161 C 
BRANCH  19  20
HETATM   20  C   UNL     1      35.637  53.058  39.354  1.00  0.00    -0.041 A 
HETATM   21  C   UNL     1      36.591  54.056  39.600  1.00  0.00     0.009 A 
HETATM   22  C   UNL     1      37.948  53.734  39.679  1.00  0.00     0.001 A 
HETATM   23  C   UNL     1      38.364  52.414  39.516  1.00  0.00     0.000 A 
HETATM   24  C   UNL     1      37.424  51.414  39.270  1.00  0.00     0.001 A 
HETATM   25  C   UNL     1      36.069  51.733  39.191  1.00  0.00     0.009 A 
ENDBRANCH  19  20
ENDBRANCH  16  19
ENDBRANCH   8  15
BRANCH  10  26
HETATM   26  C   UNL     1      32.030  50.207  41.662  1.00  0.00     0.032 A 
HETATM   27  C   UNL     1      33.125  49.489  41.174  1.00  0.00     0.020 A 
HETATM   28  C   UNL     1      34.408  49.792  41.629  1.00  0.00     0.038 A 
HETATM   29  C   UNL     1      34.608  50.817  42.558  1.00  0.00     0.068 A 
HETATM   30  C   UNL     1      33.511  51.546  43.023  1.00  0.00     0.038 A 
HETATM   31  C   UNL     1      32.221  51.254  42.565  1.00  0.00     0.020 A 
BRANCH  29  32
HETATM   32  O   UNL     1      35.913  51.007  42.915  1.00  0.00    -0.356 OA
HETATM   33  C   UNL     1      36.385  52.348  42.942  1.00  0.00     0.210 C 
ENDBRANCH  29  32
ENDBRANCH  10  26
BRANCH   1  34
HETATM   34  C   UNL     1      27.188  45.256  40.631  1.00  0.00     0.032 A 
HETATM   35  C   UNL     1      26.883  44.296  41.599  1.00  0.00     0.020 A 
HETATM   36  C   UNL     1      27.280  42.970  41.409  1.00  0.00     0.038 A 
HETATM   37  C   UNL     1      27.937  42.584  40.237  1.00  0.00     0.068 A 
HETATM   38  C   UNL     1      28.224  43.542  39.262  1.00  0.00     0.038 A 
HETATM   39  C   UNL     1      27.842  44.876  39.455  1.00  0.00     0.020 A 
BRANCH  37  40
HETATM   40  O   UNL     1      28.252  41.256  40.165  1.00  0.00    -0.356 OA
HETATM   41  C   UNL     1      28.713  40.654  41.370  1.00  0.00     0.210 C 
ENDBRANCH  37  40
ENDBRANCH   1  34
TORSDOF 7
ENDMDL
MODEL 10
REMARK VINA RESULT:      -7.3     24.924     26.981
REMARK  7 active torsions:
REMARK  status: ('A' for Active; 'I' for Inactive)
REMARK    1  A    between atoms: O_2  and  C_3 
REMARK    2  A    between atoms: C_6  and  C_7 
REMARK       I    between atoms: C_7  and  N_8 
REMARK    3  A    between atoms: C_14  and  C_15 
REMARK       I    between atoms: C_15  and  N_16 
REMARK    4  A    between atoms: N_16  and  C_17 
REMARK    5  A    between atoms: C_17  and  C_18 
REMARK       I    between atoms: N_25  and  C_26 
REMARK    6  A    between atoms: C_26  and  C_27 
REMARK    7  A    between atoms: C_30  and  O_31 
ROOT
HETATM    1  C   UNL     1      39.986  39.777  63.347  1.00  0.00     0.253 C 
HETATM    2  N   UNL     1      40.082  41.156  63.586  1.00  0.00    -0.348 N 
HETATM    3  C   UNL     1      40.621  41.718  64.821  1.00  0.00     0.131 C 
HETATM    4  C   UNL     1      41.168  43.121  64.639  1.00  0.00     0.081 C 
HETATM    5  C   UNL     1      40.191  44.092  63.957  1.00  0.00     0.142 C 
HETATM    6  O   UNL     1      41.023  45.175  63.458  1.00  0.00    -0.358 OA
HETATM    7  C   UNL     1      40.945  46.299  64.338  1.00  0.00     0.206 C 
HETATM    8  C   UNL     1      39.907  45.973  65.393  1.00  0.00     0.206 C 
HETATM    9  N   UNL     1      39.269  44.764  64.880  1.00  0.00    -0.300 N 
HETATM   10  C   UNL     1      38.241  44.086  65.517  1.00  0.00     0.257 C 
HETATM   11  O   UNL     1      37.870  42.957  65.220  1.00  0.00    -0.267 OA
HETATM   12  C   UNL     1      39.583  43.463  62.699  1.00  0.00     0.081 C 
HETATM   13  C   UNL     1      39.178  41.998  62.807  1.00  0.00     0.131 C 
HETATM   14  O   UNL     1      39.539  39.304  62.301  1.00  0.00    -0.267 OA
ENDROOT
BRANCH   8  15
HETATM   15  C   UNL     1      39.077  47.236  65.633  1.00  0.00     0.243 C 
HETATM   16  N   UNL     1      39.109  47.769  66.900  1.00  0.00    -0.355 N 
HETATM   17  H   UNL     1      39.839  47.469  67.535  1.00  0.00     0.162 HD
HETATM   18  O   UNL     1      38.322  47.657  64.756  1.00  0.00    -0.271 OA
BRANCH  16  19
HETATM   19  C   UNL     1      38.470  49.044  67.145  1.00  0.00     0.161 C 
BRANCH  19  20
HETATM   20  C   UNL     1      37.745  49.085  68.462  1.00  0.00    -0.041 A 
HETATM   21  C   UNL     1      38.297  48.476  69.598  1.00  0.00     0.009 A 
HETATM   22  C   UNL     1      37.659  48.578  70.836  1.00  0.00     0.001 A 
HETATM   23  C   UNL     1      36.466  49.290  70.950  1.00  0.00     0.000 A 
HETATM   24  C   UNL     1      35.908  49.899  69.828  1.00  0.00     0.001 A 
HETATM   25  C   UNL     1      36.544  49.798  68.590  1.00  0.00     0.009 A 
ENDBRANCH  19  20
ENDBRANCH  16  19
ENDBRANCH   8  15
BRANCH  10  26
HETATM   26  C   UNL     1      37.444  44.751  66.566  1.00  0.00     0.032 A 
HETATM   27  C   UNL     1      36.329  45.490  66.159  1.00  0.00     0.020 A 
HETATM   28  C   UNL     1      35.518  46.100  67.115  1.00  0.00     0.038 A 
HETATM   29  C   UNL     1      35.803  45.967  68.477  1.00  0.00     0.068 A 
HETATM   30  C   UNL     1      36.906  45.208  68.877  1.00  0.00     0.038 A 
HETATM   31  C   UNL     1      37.719  44.584  67.924  1.00  0.00     0.020 A 
BRANCH  29  32
HETATM   32  O   UNL     1      34.928  46.614  69.303  1.00  0.00    -0.356 OA
HETATM   33  C   UNL     1      34.694  46.030  70.578  1.00  0.00     0.210 C 
ENDBRANCH  29  32
ENDBRANCH  10  26
BRANCH   1  34
HETATM   34  C   UNL     1      40.429  38.808  64.377  1.00  0.00     0.032 A 
HETATM   35  C   UNL     1      39.601  38.471  65.452  1.00  0.00     0.020 A 
HETATM   36  C   UNL     1      40.018  37.507  66.372  1.00  0.00     0.038 A 
HETATM   37  C   UNL     1      41.235  36.840  66.202  1.00  0.00     0.068 A 
HETATM   38  C   UNL     1      42.051  37.163  65.117  1.00  0.00     0.038 A 
HETATM   39  C   UNL     1      41.645  38.141  64.200  1.00  0.00     0.020 A 
BRANCH  37  40
HETATM   40  O   UNL     1      41.516  35.905  67.160  1.00  0.00    -0.356 OA
HETATM   41  C   UNL     1      40.396  35.278  67.773  1.00  0.00     0.210 C 
ENDBRANCH  37  40
ENDBRANCH   1  34
TORSDOF 7
ENDMDL
