MODEL 1
REMARK VINA RESULT:     -10.7      0.000      0.000
REMARK  9 active torsions:
REMARK  status: ('A' for Active; 'I' for Inactive)
REMARK    1  A    between atoms: C_2  and  O_3 
REMARK    2  A    between atoms: O_3  and  C_4 
REMARK    3  A    between atoms: C_7  and  C_8 
REMARK       I    between atoms: C_8  and  N_9 
REMARK    4  A    between atoms: N_9  and  C_10 
REMARK    5  A    between atoms: C_10  and  N_11 
REMARK    6  A    between atoms: N_11  and  C_12 
REMARK    7  A    between atoms: C_15  and  N_16 
REMARK    8  A    between atoms: N_19  and  C_21 
REMARK    9  A    between atoms: C_21  and  C_22 
ROOT
HETATM    1  C   UNL     1      24.391  46.371  50.289  1.00  0.00     0.034 A 
HETATM    2  C   UNL     1      24.801  45.126  49.829  1.00  0.00     0.032 A 
HETATM    3  C   UNL     1      25.698  44.353  50.569  1.00  0.00     0.031 A 
HETATM    4  C   UNL     1      26.230  44.791  51.788  1.00  0.00     0.030 A 
HETATM    5  C   UNL     1      25.886  46.091  52.187  1.00  0.00     0.031 A 
HETATM    6  C   UNL     1      24.988  46.877  51.442  1.00  0.00     0.032 A 
ENDROOT
BRANCH   1   7
HETATM    7  N   UNL     1      23.421  47.149  49.625  1.00  0.00    -0.333 N 
HETATM    8  H   UNL     1      22.639  46.641  49.207  1.00  0.00     0.168 HD
BRANCH   7   9
HETATM    9  C   UNL     1      23.494  48.468  49.236  1.00  0.00     0.179 C 
HETATM   10  S   UNL     1      24.819  49.343  48.698  1.00  0.00    -0.040 SA
BRANCH   9  11
HETATM   11  N   UNL     1      22.305  49.165  49.256  1.00  0.00    -0.299 N 
HETATM   12  C   UNL     1      22.003  50.421  49.765  1.00  0.00     0.257 C 
HETATM   13  O   UNL     1      22.768  51.081  50.458  1.00  0.00    -0.267 OA
HETATM   14  H   UNL     1      21.548  48.631  48.850  1.00  0.00     0.171 HD
BRANCH  12  15
HETATM   15  C   UNL     1      20.608  50.867  49.489  1.00  0.00     0.032 A 
HETATM   16  C   UNL     1      20.375  51.779  48.458  1.00  0.00     0.020 A 
HETATM   17  C   UNL     1      19.091  52.304  48.274  1.00  0.00     0.038 A 
HETATM   18  C   UNL     1      18.039  51.927  49.115  1.00  0.00     0.068 A 
HETATM   19  C   UNL     1      18.257  50.958  50.095  1.00  0.00     0.038 A 
HETATM   20  C   UNL     1      19.536  50.426  50.281  1.00  0.00     0.020 A 
BRANCH  18  21
HETATM   21  O   UNL     1      16.847  52.554  48.883  1.00  0.00    -0.352 OA
BRANCH  21  22
HETATM   22  C   UNL     1      16.206  53.121  50.029  1.00  0.00     0.171 C 
HETATM   23  C   UNL     1      14.803  52.552  50.124  1.00  0.00     0.034 C 
ENDBRANCH  21  22
ENDBRANCH  18  21
ENDBRANCH  12  15
ENDBRANCH   9  11
ENDBRANCH   7   9
ENDBRANCH   1   7
BRANCH   4  24
HETATM   24  N   UNL     1      27.062  43.969  52.521  1.00  0.00    -0.378 N 
HETATM   25  C   UNL     1      26.839  43.640  53.930  1.00  0.00     0.150 C 
HETATM   26  C   UNL     1      28.173  43.792  54.702  1.00  0.00     0.255 C 
HETATM   27  N   UNL     1      29.320  43.030  54.025  1.00  0.00    -0.064 N 
HETATM   28  H   UNL     1      29.104  42.026  54.088  1.00  0.00     0.280 HD
HETATM   29  C   UNL     1      29.429  43.362  52.536  1.00  0.00     0.255 C 
HETATM   30  C   UNL     1      28.076  43.152  51.839  1.00  0.00     0.150 C 
BRANCH  27  31
HETATM   31  C   UNL     1      30.643  43.241  54.718  1.00  0.00     0.276 C 
BRANCH  31  32
HETATM   32  C   UNL     1      30.558  44.123  55.926  1.00  0.00     0.006 A 
HETATM   33  C   UNL     1      31.268  43.778  57.080  1.00  0.00     0.124 A 
HETATM   34  F   UNL     1      31.968  42.634  57.090  1.00  0.00    -0.206 F 
HETATM   35  C   UNL     1      31.244  44.575  58.216  1.00  0.00     0.043 A 
HETATM   36  C   UNL     1      30.489  45.746  58.209  1.00  0.00     0.003 A 
HETATM   37  C   UNL     1      29.769  46.106  57.069  1.00  0.00     0.001 A 
HETATM   38  C   UNL     1      29.802  45.302  55.929  1.00  0.00     0.012 A 
ENDBRANCH  31  32
ENDBRANCH  27  31
ENDBRANCH   4  24
TORSDOF 9
ENDMDL
MODEL 2
REMARK VINA RESULT:     -10.5      2.200      3.301
REMARK  9 active torsions:
REMARK  status: ('A' for Active; 'I' for Inactive)
REMARK    1  A    between atoms: C_2  and  O_3 
REMARK    2  A    between atoms: O_3  and  C_4 
REMARK    3  A    between atoms: C_7  and  C_8 
REMARK       I    between atoms: C_8  and  N_9 
REMARK    4  A    between atoms: N_9  and  C_10 
REMARK    5  A    between atoms: C_10  and  N_11 
REMARK    6  A    between atoms: N_11  and  C_12 
REMARK    7  A    between atoms: C_15  and  N_16 
REMARK    8  A    between atoms: N_19  and  C_21 
REMARK    9  A    between atoms: C_21  and  C_22 
ROOT
HETATM    1  C   UNL     1      22.184  47.238  48.329  1.00  0.00     0.034 A 
HETATM    2  C   UNL     1      22.608  45.923  48.470  1.00  0.00     0.032 A 
HETATM    3  C   UNL     1      23.725  45.614  49.250  1.00  0.00     0.031 A 
HETATM    4  C   UNL     1      24.467  46.600  49.913  1.00  0.00     0.030 A 
HETATM    5  C   UNL     1      24.086  47.929  49.678  1.00  0.00     0.031 A 
HETATM    6  C   UNL     1      22.967  48.247  48.887  1.00  0.00     0.032 A 
ENDROOT
BRANCH   1   7
HETATM    7  N   UNL     1      21.013  47.592  47.629  1.00  0.00    -0.333 N 
HETATM    8  H   UNL     1      21.113  48.310  46.908  1.00  0.00     0.168 HD
BRANCH   7   9
HETATM    9  C   UNL     1      19.704  47.299  47.939  1.00  0.00     0.179 C 
HETATM   10  S   UNL     1      18.947  45.807  48.045  1.00  0.00    -0.040 SA
BRANCH   9  11
HETATM   11  N   UNL     1      18.904  48.381  48.242  1.00  0.00    -0.299 N 
HETATM   12  C   UNL     1      19.052  49.368  49.207  1.00  0.00     0.257 C 
HETATM   13  O   UNL     1      19.895  49.338  50.096  1.00  0.00    -0.267 OA
HETATM   14  H   UNL     1      18.073  48.409  47.668  1.00  0.00     0.171 HD
BRANCH  12  15
HETATM   15  C   UNL     1      18.014  50.437  49.144  1.00  0.00     0.032 A 
HETATM   16  C   UNL     1      18.268  51.670  49.746  1.00  0.00     0.020 A 
HETATM   17  C   UNL     1      17.255  52.634  49.807  1.00  0.00     0.038 A 
HETATM   18  C   UNL     1      15.989  52.371  49.273  1.00  0.00     0.068 A 
HETATM   19  C   UNL     1      15.762  51.169  48.604  1.00  0.00     0.038 A 
HETATM   20  C   UNL     1      16.771  50.204  48.536  1.00  0.00     0.020 A 
BRANCH  18  21
HETATM   21  O   UNL     1      15.060  53.359  49.450  1.00  0.00    -0.352 OA
BRANCH  21  22
HETATM   22  C   UNL     1      14.171  53.190  50.556  1.00  0.00     0.171 C 
HETATM   23  C   UNL     1      14.397  54.330  51.531  1.00  0.00     0.034 C 
ENDBRANCH  21  22
ENDBRANCH  18  21
ENDBRANCH  12  15
ENDBRANCH   9  11
ENDBRANCH   7   9
ENDBRANCH   1   7
BRANCH   4  24
HETATM   24  N   UNL     1      25.524  46.247  50.727  1.00  0.00    -0.378 N 
HETATM   25  C   UNL     1      26.554  45.281  50.341  1.00  0.00     0.150 C 
HETATM   26  C   UNL     1      26.790  44.297  51.514  1.00  0.00     0.255 C 
HETATM   27  N   UNL     1      27.042  45.030  52.838  1.00  0.00    -0.064 N 
HETATM   28  H   UNL     1      27.934  45.535  52.748  1.00  0.00     0.280 HD
HETATM   29  C   UNL     1      25.971  46.084  53.123  1.00  0.00     0.255 C 
HETATM   30  C   UNL     1      25.825  47.038  51.928  1.00  0.00     0.150 C 
BRANCH  27  31
HETATM   31  C   UNL     1      27.185  44.085  54.005  1.00  0.00     0.276 C 
BRANCH  31  32
HETATM   32  C   UNL     1      28.489  44.216  54.730  1.00  0.00     0.006 A 
HETATM   33  C   UNL     1      29.424  43.180  54.655  1.00  0.00     0.124 A 
HETATM   34  F   UNL     1      29.104  42.069  53.975  1.00  0.00    -0.206 F 
HETATM   35  C   UNL     1      30.658  43.265  55.286  1.00  0.00     0.043 A 
HETATM   36  C   UNL     1      30.971  44.408  56.017  1.00  0.00     0.003 A 
HETATM   37  C   UNL     1      30.049  45.453  56.109  1.00  0.00     0.001 A 
HETATM   38  C   UNL     1      28.813  45.362  55.467  1.00  0.00     0.012 A 
ENDBRANCH  31  32
ENDBRANCH  27  31
ENDBRANCH   4  24
TORSDOF 9
ENDMDL
MODEL 3
REMARK VINA RESULT:     -10.1      2.802      3.408
REMARK  9 active torsions:
REMARK  status: ('A' for Active; 'I' for Inactive)
REMARK    1  A    between atoms: C_2  and  O_3 
REMARK    2  A    between atoms: O_3  and  C_4 
REMARK    3  A    between atoms: C_7  and  C_8 
REMARK       I    between atoms: C_8  and  N_9 
REMARK    4  A    between atoms: N_9  and  C_10 
REMARK    5  A    between atoms: C_10  and  N_11 
REMARK    6  A    between atoms: N_11  and  C_12 
REMARK    7  A    between atoms: C_15  and  N_16 
REMARK    8  A    between atoms: N_19  and  C_21 
REMARK    9  A    between atoms: C_21  and  C_22 
ROOT
HETATM    1  C   UNL     1      23.375  43.515  49.200  1.00  0.00     0.034 A 
HETATM    2  C   UNL     1      24.207  42.468  49.577  1.00  0.00     0.032 A 
HETATM    3  C   UNL     1      25.037  42.585  50.695  1.00  0.00     0.031 A 
HETATM    4  C   UNL     1      25.078  43.747  51.475  1.00  0.00     0.030 A 
HETATM    5  C   UNL     1      24.309  44.828  51.022  1.00  0.00     0.031 A 
HETATM    6  C   UNL     1      23.477  44.720  49.892  1.00  0.00     0.032 A 
ENDROOT
BRANCH   1   7
HETATM    7  N   UNL     1      22.456  43.414  48.136  1.00  0.00    -0.333 N 
HETATM    8  H   UNL     1      22.070  42.485  47.955  1.00  0.00     0.168 HD
BRANCH   7   9
HETATM    9  C   UNL     1      22.189  44.328  47.142  1.00  0.00     0.179 C 
HETATM   10  S   UNL     1      22.535  44.245  45.504  1.00  0.00    -0.040 SA
BRANCH   9  11
HETATM   11  N   UNL     1      21.506  45.459  47.537  1.00  0.00    -0.299 N 
HETATM   12  C   UNL     1      20.359  45.597  48.308  1.00  0.00     0.257 C 
HETATM   13  O   UNL     1      19.647  44.660  48.650  1.00  0.00    -0.267 OA
HETATM   14  H   UNL     1      21.921  46.301  47.161  1.00  0.00     0.171 HD
BRANCH  12  15
HETATM   15  C   UNL     1      19.994  47.012  48.602  1.00  0.00     0.032 A 
HETATM   16  C   UNL     1      21.008  47.956  48.771  1.00  0.00     0.020 A 
HETATM   17  C   UNL     1      20.684  49.257  49.175  1.00  0.00     0.038 A 
HETATM   18  C   UNL     1      19.354  49.617  49.415  1.00  0.00     0.068 A 
HETATM   19  C   UNL     1      18.337  48.695  49.172  1.00  0.00     0.038 A 
HETATM   20  C   UNL     1      18.654  47.396  48.763  1.00  0.00     0.020 A 
BRANCH  18  21
HETATM   21  O   UNL     1      19.164  50.893  49.870  1.00  0.00    -0.352 OA
BRANCH  21  22
HETATM   22  C   UNL     1      19.679  51.936  49.038  1.00  0.00     0.171 C 
HETATM   23  C   UNL     1      18.571  52.399  48.111  1.00  0.00     0.034 C 
ENDBRANCH  21  22
ENDBRANCH  18  21
ENDBRANCH  12  15
ENDBRANCH   9  11
ENDBRANCH   7   9
ENDBRANCH   1   7
BRANCH   4  24
HETATM   24  N   UNL     1      25.862  43.798  52.610  1.00  0.00    -0.378 N 
HETATM   25  C   UNL     1      25.373  44.260  53.910  1.00  0.00     0.150 C 
HETATM   26  C   UNL     1      26.408  45.240  54.520  1.00  0.00     0.255 C 
HETATM   27  N   UNL     1      27.825  44.651  54.523  1.00  0.00    -0.064 N 
HETATM   28  H   UNL     1      27.825  43.849  55.167  1.00  0.00     0.280 HD
HETATM   29  C   UNL     1      28.224  44.109  53.150  1.00  0.00     0.255 C 
HETATM   30  C   UNL     1      27.167  43.122  52.634  1.00  0.00     0.150 C 
BRANCH  27  31
HETATM   31  C   UNL     1      28.856  45.628  55.032  1.00  0.00     0.276 C 
BRANCH  31  32
HETATM   32  C   UNL     1      29.862  45.014  55.956  1.00  0.00     0.006 A 
HETATM   33  C   UNL     1      29.975  45.492  57.265  1.00  0.00     0.124 A 
HETATM   34  F   UNL     1      29.210  46.527  57.642  1.00  0.00    -0.206 F 
HETATM   35  C   UNL     1      30.872  44.939  58.168  1.00  0.00     0.043 A 
HETATM   36  C   UNL     1      31.685  43.885  57.760  1.00  0.00     0.003 A 
HETATM   37  C   UNL     1      31.592  43.395  56.456  1.00  0.00     0.001 A 
HETATM   38  C   UNL     1      30.684  43.953  55.555  1.00  0.00     0.012 A 
ENDBRANCH  31  32
ENDBRANCH  27  31
ENDBRANCH   4  24
TORSDOF 9
ENDMDL
MODEL 4
REMARK VINA RESULT:      -9.7      4.643     12.134
REMARK  9 active torsions:
REMARK  status: ('A' for Active; 'I' for Inactive)
REMARK    1  A    between atoms: C_2  and  O_3 
REMARK    2  A    between atoms: O_3  and  C_4 
REMARK    3  A    between atoms: C_7  and  C_8 
REMARK       I    between atoms: C_8  and  N_9 
REMARK    4  A    between atoms: N_9  and  C_10 
REMARK    5  A    between atoms: C_10  and  N_11 
REMARK    6  A    between atoms: N_11  and  C_12 
REMARK    7  A    between atoms: C_15  and  N_16 
REMARK    8  A    between atoms: N_19  and  C_21 
REMARK    9  A    between atoms: C_21  and  C_22 
ROOT
HETATM    1  C   UNL     1      24.092  43.246  50.291  1.00  0.00     0.034 A 
HETATM    2  C   UNL     1      24.073  44.635  50.267  1.00  0.00     0.032 A 
HETATM    3  C   UNL     1      23.192  45.321  49.428  1.00  0.00     0.031 A 
HETATM    4  C   UNL     1      22.304  44.654  48.574  1.00  0.00     0.030 A 
HETATM    5  C   UNL     1      22.408  43.256  48.536  1.00  0.00     0.031 A 
HETATM    6  C   UNL     1      23.298  42.560  49.374  1.00  0.00     0.032 A 
ENDROOT
BRANCH   1   7
HETATM    7  N   UNL     1      24.896  42.509  51.184  1.00  0.00    -0.333 N 
HETATM    8  H   UNL     1      24.539  42.402  52.136  1.00  0.00     0.168 HD
BRANCH   7   9
HETATM    9  C   UNL     1      26.210  42.124  51.040  1.00  0.00     0.179 C 
HETATM   10  S   UNL     1      26.897  41.098  49.906  1.00  0.00    -0.040 SA
BRANCH   9  11
HETATM   11  N   UNL     1      27.100  42.689  51.929  1.00  0.00    -0.299 N 
HETATM   12  C   UNL     1      26.875  43.456  53.065  1.00  0.00     0.257 C 
HETATM   13  O   UNL     1      25.780  43.904  53.384  1.00  0.00    -0.267 OA
HETATM   14  H   UNL     1      28.060  42.520  51.661  1.00  0.00     0.171 HD
BRANCH  12  15
HETATM   15  C   UNL     1      28.114  43.790  53.825  1.00  0.00     0.032 A 
HETATM   16  C   UNL     1      29.166  42.873  53.851  1.00  0.00     0.020 A 
HETATM   17  C   UNL     1      30.278  43.117  54.664  1.00  0.00     0.038 A 
HETATM   18  C   UNL     1      30.345  44.270  55.453  1.00  0.00     0.068 A 
HETATM   19  C   UNL     1      29.329  45.221  55.366  1.00  0.00     0.038 A 
HETATM   20  C   UNL     1      28.217  44.985  54.552  1.00  0.00     0.020 A 
BRANCH  18  21
HETATM   21  O   UNL     1      31.447  44.369  56.257  1.00  0.00    -0.352 OA
BRANCH  21  22
HETATM   22  C   UNL     1      31.289  43.891  57.595  1.00  0.00     0.171 C 
HETATM   23  C   UNL     1      30.893  45.059  58.477  1.00  0.00     0.034 C 
ENDBRANCH  21  22
ENDBRANCH  18  21
ENDBRANCH  12  15
ENDBRANCH   9  11
ENDBRANCH   7   9
ENDBRANCH   1   7
BRANCH   4  24
HETATM   24  N   UNL     1      21.404  45.368  47.808  1.00  0.00    -0.378 N 
HETATM   25  C   UNL     1      21.780  46.515  46.979  1.00  0.00     0.150 C 
HETATM   26  C   UNL     1      20.766  47.662  47.214  1.00  0.00     0.255 C 
HETATM   27  N   UNL     1      19.315  47.189  47.059  1.00  0.00    -0.064 N 
HETATM   28  H   UNL     1      19.178  46.927  46.073  1.00  0.00     0.280 HD
HETATM   29  C   UNL     1      19.029  45.934  47.887  1.00  0.00     0.255 C 
HETATM   30  C   UNL     1      20.055  44.837  47.570  1.00  0.00     0.150 C 
BRANCH  27  31
HETATM   31  C   UNL     1      18.315  48.274  47.372  1.00  0.00     0.276 C 
BRANCH  31  32
HETATM   32  C   UNL     1      18.876  49.391  48.197  1.00  0.00     0.006 A 
HETATM   33  C   UNL     1      18.858  49.292  49.591  1.00  0.00     0.124 A 
HETATM   34  F   UNL     1      18.287  48.217  50.155  1.00  0.00    -0.206 F 
HETATM   35  C   UNL     1      19.390  50.287  50.400  1.00  0.00     0.043 A 
HETATM   36  C   UNL     1      19.952  51.415  49.809  1.00  0.00     0.003 A 
HETATM   37  C   UNL     1      19.977  51.536  48.418  1.00  0.00     0.001 A 
HETATM   38  C   UNL     1      19.444  50.529  47.612  1.00  0.00     0.012 A 
ENDBRANCH  31  32
ENDBRANCH  27  31
ENDBRANCH   4  24
TORSDOF 9
ENDMDL
MODEL 5
REMARK VINA RESULT:      -9.6      4.669     13.160
REMARK  9 active torsions:
REMARK  status: ('A' for Active; 'I' for Inactive)
REMARK    1  A    between atoms: C_2  and  O_3 
REMARK    2  A    between atoms: O_3  and  C_4 
REMARK    3  A    between atoms: C_7  and  C_8 
REMARK       I    between atoms: C_8  and  N_9 
REMARK    4  A    between atoms: N_9  and  C_10 
REMARK    5  A    between atoms: C_10  and  N_11 
REMARK    6  A    between atoms: N_11  and  C_12 
REMARK    7  A    between atoms: C_15  and  N_16 
REMARK    8  A    between atoms: N_19  and  C_21 
REMARK    9  A    between atoms: C_21  and  C_22 
ROOT
HETATM    1  C   UNL     1      23.792  47.406  49.372  1.00  0.00     0.034 A 
HETATM    2  C   UNL     1      23.882  48.774  49.595  1.00  0.00     0.032 A 
HETATM    3  C   UNL     1      22.786  49.608  49.359  1.00  0.00     0.031 A 
HETATM    4  C   UNL     1      21.564  49.116  48.885  1.00  0.00     0.030 A 
HETATM    5  C   UNL     1      21.522  47.750  48.569  1.00  0.00     0.031 A 
HETATM    6  C   UNL     1      22.625  46.906  48.798  1.00  0.00     0.032 A 
ENDROOT
BRANCH   1   7
HETATM    7  N   UNL     1      24.838  46.512  49.680  1.00  0.00    -0.333 N 
HETATM    8  H   UNL     1      25.654  46.539  49.067  1.00  0.00     0.168 HD
BRANCH   7   9
HETATM    9  C   UNL     1      24.821  45.430  50.532  1.00  0.00     0.179 C 
HETATM   10  S   UNL     1      23.888  44.040  50.464  1.00  0.00    -0.040 SA
BRANCH   9  11
HETATM   11  N   UNL     1      25.726  45.475  51.572  1.00  0.00    -0.299 N 
HETATM   12  C   UNL     1      25.880  46.402  52.595  1.00  0.00     0.257 C 
HETATM   13  O   UNL     1      25.291  47.475  52.641  1.00  0.00    -0.267 OA
HETATM   14  H   UNL     1      26.383  44.708  51.534  1.00  0.00     0.171 HD
BRANCH  12  15
HETATM   15  C   UNL     1      26.920  46.032  53.596  1.00  0.00     0.032 A 
HETATM   16  C   UNL     1      27.561  47.041  54.318  1.00  0.00     0.020 A 
HETATM   17  C   UNL     1      28.627  46.717  55.164  1.00  0.00     0.038 A 
HETATM   18  C   UNL     1      29.060  45.393  55.291  1.00  0.00     0.068 A 
HETATM   19  C   UNL     1      28.370  44.378  54.629  1.00  0.00     0.038 A 
HETATM   20  C   UNL     1      27.300  44.694  53.786  1.00  0.00     0.020 A 
BRANCH  18  21
HETATM   21  O   UNL     1      30.152  45.206  56.093  1.00  0.00    -0.352 OA
BRANCH  21  22
HETATM   22  C   UNL     1      30.256  46.078  57.221  1.00  0.00     0.171 C 
HETATM   23  C   UNL     1      29.151  45.728  58.199  1.00  0.00     0.034 C 
ENDBRANCH  21  22
ENDBRANCH  18  21
ENDBRANCH  12  15
ENDBRANCH   9  11
ENDBRANCH   7   9
ENDBRANCH   1   7
BRANCH   4  24
HETATM   24  N   UNL     1      20.486  49.963  48.727  1.00  0.00    -0.378 N 
HETATM   25  C   UNL     1      19.984  50.839  49.788  1.00  0.00     0.150 C 
HETATM   26  C   UNL     1      18.441  50.720  49.855  1.00  0.00     0.255 C 
HETATM   27  N   UNL     1      17.789  50.915  48.480  1.00  0.00    -0.064 N 
HETATM   28  H   UNL     1      17.955  51.890  48.194  1.00  0.00     0.280 HD
HETATM   29  C   UNL     1      18.430  50.030  47.410  1.00  0.00     0.255 C 
HETATM   30  C   UNL     1      19.952  50.234  47.385  1.00  0.00     0.150 C 
BRANCH  27  31
HETATM   31  C   UNL     1      16.294  50.714  48.514  1.00  0.00     0.276 C 
BRANCH  31  32
HETATM   32  C   UNL     1      15.518  51.987  48.658  1.00  0.00     0.006 A 
HETATM   33  C   UNL     1      15.229  52.748  47.521  1.00  0.00     0.124 A 
HETATM   34  F   UNL     1      15.703  52.340  46.334  1.00  0.00    -0.206 F 
HETATM   35  C   UNL     1      14.489  53.920  47.597  1.00  0.00     0.043 A 
HETATM   36  C   UNL     1      14.027  54.354  48.837  1.00  0.00     0.003 A 
HETATM   37  C   UNL     1      14.309  53.612  49.985  1.00  0.00     0.001 A 
HETATM   38  C   UNL     1      15.049  52.432  49.900  1.00  0.00     0.012 A 
ENDBRANCH  31  32
ENDBRANCH  27  31
ENDBRANCH   4  24
TORSDOF 9
ENDMDL
MODEL 6
REMARK VINA RESULT:      -9.5      3.276      4.166
REMARK  9 active torsions:
REMARK  status: ('A' for Active; 'I' for Inactive)
REMARK    1  A    between atoms: C_2  and  O_3 
REMARK    2  A    between atoms: O_3  and  C_4 
REMARK    3  A    between atoms: C_7  and  C_8 
REMARK       I    between atoms: C_8  and  N_9 
REMARK    4  A    between atoms: N_9  and  C_10 
REMARK    5  A    between atoms: C_10  and  N_11 
REMARK    6  A    between atoms: N_11  and  C_12 
REMARK    7  A    between atoms: C_15  and  N_16 
REMARK    8  A    between atoms: N_19  and  C_21 
REMARK    9  A    between atoms: C_21  and  C_22 
ROOT
HETATM    1  C   UNL     1      22.564  43.283  47.643  1.00  0.00     0.034 A 
HETATM    2  C   UNL     1      22.960  42.388  48.629  1.00  0.00     0.032 A 
HETATM    3  C   UNL     1      23.933  42.744  49.565  1.00  0.00     0.031 A 
HETATM    4  C   UNL     1      24.557  43.999  49.552  1.00  0.00     0.030 A 
HETATM    5  C   UNL     1      24.219  44.850  48.491  1.00  0.00     0.031 A 
HETATM    6  C   UNL     1      23.245  44.494  47.540  1.00  0.00     0.032 A 
ENDROOT
BRANCH   1   7
HETATM    7  N   UNL     1      21.524  43.006  46.733  1.00  0.00    -0.333 N 
HETATM    8  H   UNL     1      21.630  42.163  46.164  1.00  0.00     0.168 HD
BRANCH   7   9
HETATM    9  C   UNL     1      20.505  43.832  46.314  1.00  0.00     0.179 C 
HETATM   10  S   UNL     1      19.374  43.589  45.101  1.00  0.00    -0.040 SA
BRANCH   9  11
HETATM   11  N   UNL     1      20.367  45.013  47.012  1.00  0.00    -0.299 N 
HETATM   12  C   UNL     1      19.447  45.384  47.983  1.00  0.00     0.257 C 
HETATM   13  O   UNL     1      18.457  44.725  48.277  1.00  0.00    -0.267 OA
HETATM   14  H   UNL     1      21.045  45.704  46.721  1.00  0.00     0.171 HD
BRANCH  12  15
HETATM   15  C   UNL     1      19.703  46.728  48.578  1.00  0.00     0.032 A 
HETATM   16  C   UNL     1      18.652  47.412  49.191  1.00  0.00     0.020 A 
HETATM   17  C   UNL     1      18.847  48.725  49.636  1.00  0.00     0.038 A 
HETATM   18  C   UNL     1      20.083  49.358  49.468  1.00  0.00     0.068 A 
HETATM   19  C   UNL     1      21.152  48.646  48.925  1.00  0.00     0.038 A 
HETATM   20  C   UNL     1      20.965  47.333  48.484  1.00  0.00     0.020 A 
BRANCH  18  21
HETATM   21  O   UNL     1      20.136  50.661  49.880  1.00  0.00    -0.352 OA
BRANCH  21  22
HETATM   22  C   UNL     1      19.918  51.646  48.867  1.00  0.00     0.171 C 
HETATM   23  C   UNL     1      18.631  52.383  49.185  1.00  0.00     0.034 C 
ENDBRANCH  21  22
ENDBRANCH  18  21
ENDBRANCH  12  15
ENDBRANCH   9  11
ENDBRANCH   7   9
ENDBRANCH   1   7
BRANCH   4  24
HETATM   24  N   UNL     1      25.466  44.335  50.535  1.00  0.00    -0.378 N 
HETATM   25  C   UNL     1      26.906  44.451  50.298  1.00  0.00     0.150 C 
HETATM   26  C   UNL     1      27.665  43.711  51.429  1.00  0.00     0.255 C 
HETATM   27  N   UNL     1      27.192  44.149  52.821  1.00  0.00    -0.064 N 
HETATM   28  H   UNL     1      27.457  45.136  52.942  1.00  0.00     0.280 HD
HETATM   29  C   UNL     1      25.670  44.085  52.956  1.00  0.00     0.255 C 
HETATM   30  C   UNL     1      24.997  44.870  51.821  1.00  0.00     0.150 C 
BRANCH  27  31
HETATM   31  C   UNL     1      27.860  43.373  53.929  1.00  0.00     0.276 C 
BRANCH  31  32
HETATM   32  C   UNL     1      28.714  44.217  54.826  1.00  0.00     0.006 A 
HETATM   33  C   UNL     1      29.992  43.773  55.175  1.00  0.00     0.124 A 
HETATM   34  F   UNL     1      30.400  42.572  54.738  1.00  0.00    -0.206 F 
HETATM   35  C   UNL     1      30.832  44.531  55.980  1.00  0.00     0.043 A 
HETATM   36  C   UNL     1      30.390  45.762  56.456  1.00  0.00     0.003 A 
HETATM   37  C   UNL     1      29.114  46.222  56.123  1.00  0.00     0.001 A 
HETATM   38  C   UNL     1      28.278  45.457  55.309  1.00  0.00     0.012 A 
ENDBRANCH  31  32
ENDBRANCH  27  31
ENDBRANCH   4  24
TORSDOF 9
ENDMDL
MODEL 7
REMARK VINA RESULT:      -9.3      3.052      4.364
REMARK  9 active torsions:
REMARK  status: ('A' for Active; 'I' for Inactive)
REMARK    1  A    between atoms: C_2  and  O_3 
REMARK    2  A    between atoms: O_3  and  C_4 
REMARK    3  A    between atoms: C_7  and  C_8 
REMARK       I    between atoms: C_8  and  N_9 
REMARK    4  A    between atoms: N_9  and  C_10 
REMARK    5  A    between atoms: C_10  and  N_11 
REMARK    6  A    between atoms: N_11  and  C_12 
REMARK    7  A    between atoms: C_15  and  N_16 
REMARK    8  A    between atoms: N_19  and  C_21 
REMARK    9  A    between atoms: C_21  and  C_22 
ROOT
HETATM    1  C   UNL     1      21.814  47.998  48.316  1.00  0.00     0.034 A 
HETATM    2  C   UNL     1      22.073  46.633  48.293  1.00  0.00     0.032 A 
HETATM    3  C   UNL     1      23.185  46.108  48.956  1.00  0.00     0.031 A 
HETATM    4  C   UNL     1      24.085  46.919  49.659  1.00  0.00     0.030 A 
HETATM    5  C   UNL     1      23.866  48.301  49.586  1.00  0.00     0.031 A 
HETATM    6  C   UNL     1      22.752  48.837  48.913  1.00  0.00     0.032 A 
ENDROOT
BRANCH   1   7
HETATM    7  N   UNL     1      20.660  48.566  47.740  1.00  0.00    -0.333 N 
HETATM    8  H   UNL     1      20.759  48.937  46.793  1.00  0.00     0.168 HD
BRANCH   7   9
HETATM    9  C   UNL     1      19.480  48.924  48.353  1.00  0.00     0.179 C 
HETATM   10  S   UNL     1      18.884  48.470  49.853  1.00  0.00    -0.040 SA
BRANCH   9  11
HETATM   11  N   UNL     1      18.689  49.813  47.656  1.00  0.00    -0.299 N 
HETATM   12  C   UNL     1      18.304  49.822  46.322  1.00  0.00     0.257 C 
HETATM   13  O   UNL     1      18.766  49.072  45.470  1.00  0.00    -0.267 OA
HETATM   14  H   UNL     1      18.384  50.582  48.237  1.00  0.00     0.171 HD
BRANCH  12  15
HETATM   15  C   UNL     1      17.344  50.910  45.976  1.00  0.00     0.032 A 
HETATM   16  C   UNL     1      17.566  51.675  44.830  1.00  0.00     0.020 A 
HETATM   17  C   UNL     1      16.748  52.779  44.565  1.00  0.00     0.038 A 
HETATM   18  C   UNL     1      15.714  53.126  45.441  1.00  0.00     0.068 A 
HETATM   19  C   UNL     1      15.447  52.316  46.543  1.00  0.00     0.038 A 
HETATM   20  C   UNL     1      16.256  51.208  46.811  1.00  0.00     0.020 A 
BRANCH  18  21
HETATM   21  O   UNL     1      15.025  54.262  45.116  1.00  0.00    -0.352 OA
BRANCH  21  22
HETATM   22  C   UNL     1      14.054  54.698  46.070  1.00  0.00     0.171 C 
HETATM   23  C   UNL     1      12.794  55.094  45.324  1.00  0.00     0.034 C 
ENDBRANCH  21  22
ENDBRANCH  18  21
ENDBRANCH  12  15
ENDBRANCH   9  11
ENDBRANCH   7   9
ENDBRANCH   1   7
BRANCH   4  24
HETATM   24  N   UNL     1      25.134  46.353  50.356  1.00  0.00    -0.378 N 
HETATM   25  C   UNL     1      25.763  45.085  49.981  1.00  0.00     0.150 C 
HETATM   26  C   UNL     1      25.929  44.209  51.249  1.00  0.00     0.255 C 
HETATM   27  N   UNL     1      26.617  44.972  52.388  1.00  0.00    -0.064 N 
HETATM   28  H   UNL     1      27.582  45.170  52.090  1.00  0.00     0.280 HD
HETATM   29  C   UNL     1      25.956  46.325  52.656  1.00  0.00     0.255 C 
HETATM   30  C   UNL     1      25.863  47.142  51.359  1.00  0.00     0.150 C 
BRANCH  27  31
HETATM   31  C   UNL     1      26.706  44.161  53.657  1.00  0.00     0.276 C 
BRANCH  31  32
HETATM   32  C   UNL     1      28.088  44.087  54.230  1.00  0.00     0.006 A 
HETATM   33  C   UNL     1      28.494  45.039  55.170  1.00  0.00     0.124 A 
HETATM   34  F   UNL     1      27.648  46.028  55.494  1.00  0.00    -0.206 F 
HETATM   35  C   UNL     1      29.754  44.998  55.751  1.00  0.00     0.043 A 
HETATM   36  C   UNL     1      30.639  43.987  55.386  1.00  0.00     0.003 A 
HETATM   37  C   UNL     1      30.255  43.029  54.445  1.00  0.00     0.001 A 
HETATM   38  C   UNL     1      28.985  43.074  53.870  1.00  0.00     0.012 A 
ENDBRANCH  31  32
ENDBRANCH  27  31
ENDBRANCH   4  24
TORSDOF 9
ENDMDL
MODEL 8
REMARK VINA RESULT:      -9.3     19.151     23.400
REMARK  9 active torsions:
REMARK  status: ('A' for Active; 'I' for Inactive)
REMARK    1  A    between atoms: C_2  and  O_3 
REMARK    2  A    between atoms: O_3  and  C_4 
REMARK    3  A    between atoms: C_7  and  C_8 
REMARK       I    between atoms: C_8  and  N_9 
REMARK    4  A    between atoms: N_9  and  C_10 
REMARK    5  A    between atoms: C_10  and  N_11 
REMARK    6  A    between atoms: N_11  and  C_12 
REMARK    7  A    between atoms: C_15  and  N_16 
REMARK    8  A    between atoms: N_19  and  C_21 
REMARK    9  A    between atoms: C_21  and  C_22 
ROOT
HETATM    1  C   UNL     1      39.974  39.421  63.751  1.00  0.00     0.034 A 
HETATM    2  C   UNL     1      39.635  39.977  64.979  1.00  0.00     0.032 A 
HETATM    3  C   UNL     1      38.808  41.101  65.047  1.00  0.00     0.031 A 
HETATM    4  C   UNL     1      38.294  41.719  63.901  1.00  0.00     0.030 A 
HETATM    5  C   UNL     1      38.727  41.207  62.670  1.00  0.00     0.031 A 
HETATM    6  C   UNL     1      39.566  40.080  62.594  1.00  0.00     0.032 A 
ENDROOT
BRANCH   1   7
HETATM    7  N   UNL     1      40.729  38.236  63.632  1.00  0.00    -0.333 N 
HETATM    8  H   UNL     1      40.476  37.610  62.866  1.00  0.00     0.168 HD
BRANCH   7   9
HETATM    9  C   UNL     1      41.594  37.673  64.544  1.00  0.00     0.179 C 
HETATM   10  S   UNL     1      43.177  38.090  64.903  1.00  0.00    -0.040 SA
BRANCH   9  11
HETATM   11  N   UNL     1      41.077  36.641  65.299  1.00  0.00    -0.299 N 
HETATM   12  C   UNL     1      40.481  36.652  66.553  1.00  0.00     0.257 C 
HETATM   13  O   UNL     1      40.460  37.628  67.294  1.00  0.00    -0.267 OA
HETATM   14  H   UNL     1      41.196  35.745  64.845  1.00  0.00     0.171 HD
BRANCH  12  15
HETATM   15  C   UNL     1      39.952  35.326  66.983  1.00  0.00     0.032 A 
HETATM   16  C   UNL     1      40.194  34.205  66.187  1.00  0.00     0.020 A 
HETATM   17  C   UNL     1      39.595  32.982  66.512  1.00  0.00     0.038 A 
HETATM   18  C   UNL     1      38.753  32.874  67.623  1.00  0.00     0.068 A 
HETATM   19  C   UNL     1      38.574  33.976  68.459  1.00  0.00     0.038 A 
HETATM   20  C   UNL     1      39.174  35.198  68.144  1.00  0.00     0.020 A 
BRANCH  18  21
HETATM   21  O   UNL     1      38.171  31.650  67.802  1.00  0.00    -0.352 OA
BRANCH  21  22
HETATM   22  C   UNL     1      38.794  30.557  67.123  1.00  0.00     0.171 C 
HETATM   23  C   UNL     1      37.740  29.500  66.850  1.00  0.00     0.034 C 
ENDBRANCH  21  22
ENDBRANCH  18  21
ENDBRANCH  12  15
ENDBRANCH   9  11
ENDBRANCH   7   9
ENDBRANCH   1   7
BRANCH   4  24
HETATM   24  N   UNL     1      37.427  42.787  64.015  1.00  0.00    -0.378 N 
HETATM   25  C   UNL     1      37.351  43.875  63.038  1.00  0.00     0.150 C 
HETATM   26  C   UNL     1      37.329  45.230  63.789  1.00  0.00     0.255 C 
HETATM   27  N   UNL     1      36.260  45.260  64.888  1.00  0.00    -0.064 N 
HETATM   28  H   UNL     1      35.340  45.211  64.428  1.00  0.00     0.280 HD
HETATM   29  C   UNL     1      36.351  44.044  65.812  1.00  0.00     0.255 C 
HETATM   30  C   UNL     1      36.331  42.745  64.993  1.00  0.00     0.150 C 
BRANCH  27  31
HETATM   31  C   UNL     1      36.286  46.540  65.687  1.00  0.00     0.276 C 
BRANCH  31  32
HETATM   32  C   UNL     1      37.584  47.281  65.594  1.00  0.00     0.006 A 
HETATM   33  C   UNL     1      37.701  48.356  64.708  1.00  0.00     0.124 A 
HETATM   34  F   UNL     1      36.657  48.661  63.922  1.00  0.00    -0.206 F 
HETATM   35  C   UNL     1      38.873  49.092  64.605  1.00  0.00     0.043 A 
HETATM   36  C   UNL     1      39.964  48.749  65.400  1.00  0.00     0.003 A 
HETATM   37  C   UNL     1      39.870  47.676  66.289  1.00  0.00     0.001 A 
HETATM   38  C   UNL     1      38.686  46.945  66.390  1.00  0.00     0.012 A 
ENDBRANCH  31  32
ENDBRANCH  27  31
ENDBRANCH   4  24
TORSDOF 9
ENDMDL
MODEL 9
REMARK VINA RESULT:      -9.1      3.332      3.989
REMARK  9 active torsions:
REMARK  status: ('A' for Active; 'I' for Inactive)
REMARK    1  A    between atoms: C_2  and  O_3 
REMARK    2  A    between atoms: O_3  and  C_4 
REMARK    3  A    between atoms: C_7  and  C_8 
REMARK       I    between atoms: C_8  and  N_9 
REMARK    4  A    between atoms: N_9  and  C_10 
REMARK    5  A    between atoms: C_10  and  N_11 
REMARK    6  A    between atoms: N_11  and  C_12 
REMARK    7  A    between atoms: C_15  and  N_16 
REMARK    8  A    between atoms: N_19  and  C_21 
REMARK    9  A    between atoms: C_21  and  C_22 
ROOT
HETATM    1  C   UNL     1      22.511  43.739  47.957  1.00  0.00     0.034 A 
HETATM    2  C   UNL     1      22.465  44.674  48.983  1.00  0.00     0.032 A 
HETATM    3  C   UNL     1      23.531  44.803  49.877  1.00  0.00     0.031 A 
HETATM    4  C   UNL     1      24.677  44.003  49.792  1.00  0.00     0.030 A 
HETATM    5  C   UNL     1      24.663  42.998  48.814  1.00  0.00     0.031 A 
HETATM    6  C   UNL     1      23.590  42.858  47.916  1.00  0.00     0.032 A 
ENDROOT
BRANCH   1   7
HETATM    7  N   UNL     1      21.504  43.631  46.977  1.00  0.00    -0.333 N 
HETATM    8  H   UNL     1      21.146  42.692  46.793  1.00  0.00     0.168 HD
BRANCH   7   9
HETATM    9  C   UNL     1      21.105  44.566  46.048  1.00  0.00     0.179 C 
HETATM   10  S   UNL     1      21.416  44.626  44.402  1.00  0.00    -0.040 SA
BRANCH   9  11
HETATM   11  N   UNL     1      20.303  45.581  46.527  1.00  0.00    -0.299 N 
HETATM   12  C   UNL     1      19.231  45.543  47.408  1.00  0.00     0.257 C 
HETATM   13  O   UNL     1      18.704  44.510  47.802  1.00  0.00    -0.267 OA
HETATM   14  H   UNL     1      20.549  46.476  46.127  1.00  0.00     0.171 HD
BRANCH  12  15
HETATM   15  C   UNL     1      18.690  46.887  47.761  1.00  0.00     0.032 A 
HETATM   16  C   UNL     1      18.261  47.738  46.741  1.00  0.00     0.020 A 
HETATM   17  C   UNL     1      17.873  49.047  47.048  1.00  0.00     0.038 A 
HETATM   18  C   UNL     1      17.915  49.512  48.366  1.00  0.00     0.068 A 
HETATM   19  C   UNL     1      18.271  48.637  49.392  1.00  0.00     0.038 A 
HETATM   20  C   UNL     1      18.654  47.327  49.093  1.00  0.00     0.020 A 
BRANCH  18  21
HETATM   21  O   UNL     1      17.579  50.827  48.536  1.00  0.00    -0.352 OA
BRANCH  21  22
HETATM   22  C   UNL     1      17.758  51.351  49.854  1.00  0.00     0.171 C 
HETATM   23  C   UNL     1      17.177  52.752  49.894  1.00  0.00     0.034 C 
ENDBRANCH  21  22
ENDBRANCH  18  21
ENDBRANCH  12  15
ENDBRANCH   9  11
ENDBRANCH   7   9
ENDBRANCH   1   7
BRANCH   4  24
HETATM   24  N   UNL     1      25.735  44.208  50.654  1.00  0.00    -0.378 N 
HETATM   25  C   UNL     1      26.533  43.122  51.227  1.00  0.00     0.150 C 
HETATM   26  C   UNL     1      26.714  43.373  52.745  1.00  0.00     0.255 C 
HETATM   27  N   UNL     1      27.229  44.789  53.036  1.00  0.00    -0.064 N 
HETATM   28  H   UNL     1      28.182  44.857  52.652  1.00  0.00     0.280 HD
HETATM   29  C   UNL     1      26.396  45.859  52.328  1.00  0.00     0.255 C 
HETATM   30  C   UNL     1      26.296  45.555  50.826  1.00  0.00     0.150 C 
BRANCH  27  31
HETATM   31  C   UNL     1      27.325  45.077  54.513  1.00  0.00     0.276 C 
BRANCH  31  32
HETATM   32  C   UNL     1      28.671  44.777  55.099  1.00  0.00     0.006 A 
HETATM   33  C   UNL     1      29.208  45.635  56.062  1.00  0.00     0.124 A 
HETATM   34  F   UNL     1      28.524  46.739  56.398  1.00  0.00    -0.206 F 
HETATM   35  C   UNL     1      30.438  45.386  56.656  1.00  0.00     0.043 A 
HETATM   36  C   UNL     1      31.159  44.255  56.280  1.00  0.00     0.003 A 
HETATM   37  C   UNL     1      30.642  43.387  55.316  1.00  0.00     0.001 A 
HETATM   38  C   UNL     1      29.402  43.642  54.728  1.00  0.00     0.012 A 
ENDBRANCH  31  32
ENDBRANCH  27  31
ENDBRANCH   4  24
TORSDOF 9
ENDMDL
MODEL 10
REMARK VINA RESULT:      -9.0     18.300     20.028
REMARK  9 active torsions:
REMARK  status: ('A' for Active; 'I' for Inactive)
REMARK    1  A    between atoms: C_2  and  O_3 
REMARK    2  A    between atoms: O_3  and  C_4 
REMARK    3  A    between atoms: C_7  and  C_8 
REMARK       I    between atoms: C_8  and  N_9 
REMARK    4  A    between atoms: N_9  and  C_10 
REMARK    5  A    between atoms: C_10  and  N_11 
REMARK    6  A    between atoms: N_11  and  C_12 
REMARK    7  A    between atoms: C_15  and  N_16 
REMARK    8  A    between atoms: N_19  and  C_21 
REMARK    9  A    between atoms: C_21  and  C_22 
ROOT
HETATM    1  C   UNL     1      37.565  52.379  67.737  1.00  0.00     0.034 A 
HETATM    2  C   UNL     1      37.109  51.400  68.611  1.00  0.00     0.032 A 
HETATM    3  C   UNL     1      37.067  50.060  68.220  1.00  0.00     0.031 A 
HETATM    4  C   UNL     1      37.466  49.642  66.944  1.00  0.00     0.030 A 
HETATM    5  C   UNL     1      37.826  50.653  66.043  1.00  0.00     0.031 A 
HETATM    6  C   UNL     1      37.864  52.006  66.428  1.00  0.00     0.032 A 
ENDROOT
BRANCH   1   7
HETATM    7  N   UNL     1      37.713  53.730  68.112  1.00  0.00    -0.333 N 
HETATM    8  H   UNL     1      38.601  54.174  67.873  1.00  0.00     0.168 HD
BRANCH   7   9
HETATM    9  C   UNL     1      36.939  54.471  68.977  1.00  0.00     0.179 C 
HETATM   10  S   UNL     1      36.760  54.318  70.637  1.00  0.00    -0.040 SA
BRANCH   9  11
HETATM   11  N   UNL     1      36.237  55.512  68.408  1.00  0.00    -0.299 N 
HETATM   12  C   UNL     1      36.202  55.967  67.096  1.00  0.00     0.257 C 
HETATM   13  O   UNL     1      36.960  55.577  66.216  1.00  0.00    -0.267 OA
HETATM   14  H   UNL     1      35.694  56.020  69.094  1.00  0.00     0.171 HD
BRANCH  12  15
HETATM   15  C   UNL     1      35.223  57.066  66.862  1.00  0.00     0.032 A 
HETATM   16  C   UNL     1      35.694  58.351  66.588  1.00  0.00     0.020 A 
HETATM   17  C   UNL     1      34.790  59.416  66.495  1.00  0.00     0.038 A 
HETATM   18  C   UNL     1      33.420  59.205  66.678  1.00  0.00     0.068 A 
HETATM   19  C   UNL     1      32.945  57.909  66.875  1.00  0.00     0.038 A 
HETATM   20  C   UNL     1      33.842  56.841  66.964  1.00  0.00     0.020 A 
BRANCH  18  21
HETATM   21  O   UNL     1      32.641  60.328  66.632  1.00  0.00    -0.352 OA
BRANCH  21  22
HETATM   22  C   UNL     1      33.006  61.379  67.529  1.00  0.00     0.171 C 
HETATM   23  C   UNL     1      31.761  61.833  68.267  1.00  0.00     0.034 C 
ENDBRANCH  21  22
ENDBRANCH  18  21
ENDBRANCH  12  15
ENDBRANCH   9  11
ENDBRANCH   7   9
ENDBRANCH   1   7
BRANCH   4  24
HETATM   24  N   UNL     1      37.471  48.300  66.620  1.00  0.00    -0.378 N 
HETATM   25  C   UNL     1      38.688  47.548  66.311  1.00  0.00     0.150 C 
HETATM   26  C   UNL     1      38.446  46.697  65.038  1.00  0.00     0.255 C 
HETATM   27  N   UNL     1      37.165  45.859  65.141  1.00  0.00    -0.064 N 
HETATM   28  H   UNL     1      37.309  45.164  65.886  1.00  0.00     0.280 HD
HETATM   29  C   UNL     1      35.959  46.703  65.557  1.00  0.00     0.255 C 
HETATM   30  C   UNL     1      36.268  47.485  66.842  1.00  0.00     0.150 C 
BRANCH  27  31
HETATM   31  C   UNL     1      36.870  45.094  63.874  1.00  0.00     0.276 C 
BRANCH  31  32
HETATM   32  C   UNL     1      37.451  43.713  63.856  1.00  0.00     0.006 A 
HETATM   33  C   UNL     1      38.467  43.407  62.945  1.00  0.00     0.124 A 
HETATM   34  F   UNL     1      38.858  44.349  62.073  1.00  0.00    -0.206 F 
HETATM   35  C   UNL     1      39.056  42.151  62.906  1.00  0.00     0.043 A 
HETATM   36  C   UNL     1      38.623  41.169  63.793  1.00  0.00     0.003 A 
HETATM   37  C   UNL     1      37.607  41.452  64.707  1.00  0.00     0.001 A 
HETATM   38  C   UNL     1      37.022  42.719  64.743  1.00  0.00     0.012 A 
ENDBRANCH  31  32
ENDBRANCH  27  31
ENDBRANCH   4  24
TORSDOF 9
ENDMDL
