MODEL 1
REMARK VINA RESULT:      -7.8      0.000      0.000
REMARK  5 active torsions:
REMARK  status: ('A' for Active; 'I' for Inactive)
REMARK    1  A    between atoms: C_2  and  C_3 
REMARK    2  A    between atoms: C_3  and  O_4 
REMARK    3  A    between atoms: C_3  and  C_5 
REMARK    4  A    between atoms: N_8  and  C_10 
REMARK    5  A    between atoms: C_10  and  C_11 
ROOT
HETATM    1  C   UNL     1      26.705  45.617  54.396  1.00  0.00     0.022 C 
HETATM    2  C   UNL     1      26.610  44.420  53.440  1.00  0.00     0.035 C 
HETATM    3  C   UNL     1      26.853  44.824  51.993  1.00  0.00     0.235 C 
HETATM    4  N   UNL     1      25.892  45.914  51.590  1.00  0.00    -0.066 N 
HETATM    5  H   UNL     1      24.958  45.471  51.553  1.00  0.00     0.280 HD
HETATM    6  C   UNL     1      25.844  47.100  52.512  1.00  0.00     0.235 C 
HETATM    7  C   UNL     1      25.657  46.656  53.956  1.00  0.00     0.035 C 
ENDROOT
BRANCH   1   8
HETATM    8  C   UNL     1      28.132  46.223  54.481  1.00  0.00     0.155 C 
BRANCH   8   9
HETATM    9  C   UNL     1      29.134  45.345  55.201  1.00  0.00    -0.029 A 
HETATM   10  C   UNL     1      29.557  44.125  54.651  1.00  0.00     0.011 A 
HETATM   11  C   UNL     1      30.509  43.341  55.309  1.00  0.00     0.024 A 
HETATM   12  C   UNL     1      31.044  43.769  56.522  1.00  0.00     0.034 A 
HETATM   13  C   UNL     1      30.625  44.971  57.088  1.00  0.00     0.024 A 
HETATM   14 CL   UNL     1      32.226  42.814  57.323  1.00  0.00    -0.084 Cl
HETATM   15  C   UNL     1      29.671  45.753  56.434  1.00  0.00     0.011 A 
ENDBRANCH   8   9
BRANCH   8  16
HETATM   16  O   UNL     1      28.048  47.497  55.106  1.00  0.00    -0.391 OA
HETATM   17  H   UNL     1      28.357  48.174  54.474  1.00  0.00     0.210 HD
ENDBRANCH   8  16
ENDBRANCH   1   8
BRANCH   4  18
HETATM   18  C   UNL     1      26.106  46.347  50.143  1.00  0.00     0.295 C 
BRANCH  18  19
HETATM   19  C   UNL     1      25.066  47.317  49.684  1.00  0.00     0.081 A 
HETATM   20  N   UNL     1      25.414  48.591  49.439  1.00  0.00    -0.178 NA
HETATM   21  N   UNL     1      24.254  49.175  49.065  1.00  0.00    -0.289 N 
HETATM   22  H   UNL     1      24.258  50.155  48.795  1.00  0.00     0.188 HD
HETATM   23  C   UNL     1      23.188  48.325  49.122  1.00  0.00     0.111 A 
HETATM   24  C   UNL     1      23.681  47.105  49.513  1.00  0.00     0.049 A 
ENDBRANCH  18  19
ENDBRANCH   4  18
TORSDOF 5
ENDMDL
MODEL 2
REMARK VINA RESULT:      -7.6      1.797      2.607
REMARK  5 active torsions:
REMARK  status: ('A' for Active; 'I' for Inactive)
REMARK    1  A    between atoms: C_2  and  C_3 
REMARK    2  A    between atoms: C_3  and  O_4 
REMARK    3  A    between atoms: C_3  and  C_5 
REMARK    4  A    between atoms: N_8  and  C_10 
REMARK    5  A    between atoms: C_10  and  C_11 
ROOT
HETATM    1  C   UNL     1      26.625  45.907  54.556  1.00  0.00     0.022 C 
HETATM    2  C   UNL     1      26.350  44.529  53.938  1.00  0.00     0.035 C 
HETATM    3  C   UNL     1      26.525  44.536  52.426  1.00  0.00     0.235 C 
HETATM    4  N   UNL     1      25.641  45.590  51.807  1.00  0.00    -0.066 N 
HETATM    5  H   UNL     1      24.670  45.255  51.926  1.00  0.00     0.280 HD
HETATM    6  C   UNL     1      25.770  46.965  52.401  1.00  0.00     0.235 C 
HETATM    7  C   UNL     1      25.648  46.912  53.918  1.00  0.00     0.035 C 
ENDROOT
BRANCH   1   8
HETATM    8  C   UNL     1      28.104  46.358  54.419  1.00  0.00     0.155 C 
BRANCH   8   9
HETATM    9  C   UNL     1      29.088  45.482  55.165  1.00  0.00    -0.029 A 
HETATM   10  C   UNL     1      29.514  44.254  54.635  1.00  0.00     0.011 A 
HETATM   11  C   UNL     1      30.450  43.472  55.316  1.00  0.00     0.024 A 
HETATM   12  C   UNL     1      30.966  43.909  56.534  1.00  0.00     0.034 A 
HETATM   13  C   UNL     1      30.545  45.119  57.081  1.00  0.00     0.024 A 
HETATM   14 CL   UNL     1      32.129  42.956  57.366  1.00  0.00    -0.084 Cl
HETATM   15  C   UNL     1      29.606  45.899  56.402  1.00  0.00     0.011 A 
ENDBRANCH   8   9
BRANCH   8  16
HETATM   16  O   UNL     1      28.210  47.707  54.854  1.00  0.00    -0.391 OA
HETATM   17  H   UNL     1      27.883  48.289  54.142  1.00  0.00     0.210 HD
ENDBRANCH   8  16
ENDBRANCH   1   8
BRANCH   4  18
HETATM   18  C   UNL     1      25.790  45.628  50.289  1.00  0.00     0.295 C 
BRANCH  18  19
HETATM   19  C   UNL     1      25.778  44.262  49.685  1.00  0.00     0.081 A 
HETATM   20  N   UNL     1      26.934  43.702  49.295  1.00  0.00    -0.178 NA
HETATM   21  N   UNL     1      26.559  42.503  48.796  1.00  0.00    -0.289 N 
HETATM   22  H   UNL     1      27.273  41.865  48.453  1.00  0.00     0.188 HD
HETATM   23  C   UNL     1      25.207  42.321  48.809  1.00  0.00     0.111 A 
HETATM   24  C   UNL     1      24.667  43.442  49.389  1.00  0.00     0.049 A 
ENDBRANCH  18  19
ENDBRANCH   4  18
TORSDOF 5
ENDMDL
MODEL 3
REMARK VINA RESULT:      -7.5      5.229      6.697
REMARK  5 active torsions:
REMARK  status: ('A' for Active; 'I' for Inactive)
REMARK    1  A    between atoms: C_2  and  C_3 
REMARK    2  A    between atoms: C_3  and  O_4 
REMARK    3  A    between atoms: C_3  and  C_5 
REMARK    4  A    between atoms: N_8  and  C_10 
REMARK    5  A    between atoms: C_10  and  C_11 
ROOT
HETATM    1  C   UNL     1      27.604  42.157  52.830  1.00  0.00     0.022 C 
HETATM    2  C   UNL     1      28.082  40.783  53.319  1.00  0.00     0.035 C 
HETATM    3  C   UNL     1      28.956  40.081  52.290  1.00  0.00     0.235 C 
HETATM    4  N   UNL     1      28.219  39.960  50.980  1.00  0.00    -0.066 N 
HETATM    5  H   UNL     1      27.460  39.277  51.142  1.00  0.00     0.280 HD
HETATM    6  C   UNL     1      27.634  41.240  50.452  1.00  0.00     0.235 C 
HETATM    7  C   UNL     1      26.814  41.943  51.525  1.00  0.00     0.035 C 
ENDROOT
BRANCH   1   8
HETATM    8  C   UNL     1      28.758  43.182  52.656  1.00  0.00     0.155 C 
BRANCH   8   9
HETATM    9  C   UNL     1      29.225  43.811  53.952  1.00  0.00    -0.029 A 
HETATM   10  C   UNL     1      30.357  43.328  54.626  1.00  0.00     0.011 A 
HETATM   11  C   UNL     1      30.798  43.941  55.802  1.00  0.00     0.024 A 
HETATM   12  C   UNL     1      30.110  45.039  56.314  1.00  0.00     0.034 A 
HETATM   13  C   UNL     1      28.977  45.523  55.664  1.00  0.00     0.024 A 
HETATM   14 CL   UNL     1      30.661  45.803  57.751  1.00  0.00    -0.084 Cl
HETATM   15  C   UNL     1      28.533  44.908  54.491  1.00  0.00     0.011 A 
ENDBRANCH   8   9
BRANCH   8  16
HETATM   16  O   UNL     1      28.340  44.184  51.738  1.00  0.00    -0.391 OA
HETATM   17  H   UNL     1      29.045  44.855  51.669  1.00  0.00     0.210 HD
ENDBRANCH   8  16
ENDBRANCH   1   8
BRANCH   4  18
HETATM   18  C   UNL     1      29.066  39.262  49.920  1.00  0.00     0.295 C 
BRANCH  18  19
HETATM   19  C   UNL     1      28.314  38.177  49.221  1.00  0.00     0.081 A 
HETATM   20  N   UNL     1      28.773  37.703  48.051  1.00  0.00    -0.178 NA
HETATM   21  N   UNL     1      27.864  36.765  47.705  1.00  0.00    -0.289 N 
HETATM   22  H   UNL     1      28.006  36.231  46.850  1.00  0.00     0.188 HD
HETATM   23  C   UNL     1      26.827  36.678  48.586  1.00  0.00     0.111 A 
HETATM   24  C   UNL     1      27.091  37.576  49.591  1.00  0.00     0.049 A 
ENDBRANCH  18  19
ENDBRANCH   4  18
TORSDOF 5
ENDMDL
MODEL 4
REMARK VINA RESULT:      -7.5      1.681      2.168
REMARK  5 active torsions:
REMARK  status: ('A' for Active; 'I' for Inactive)
REMARK    1  A    between atoms: C_2  and  C_3 
REMARK    2  A    between atoms: C_3  and  O_4 
REMARK    3  A    between atoms: C_3  and  C_5 
REMARK    4  A    between atoms: N_8  and  C_10 
REMARK    5  A    between atoms: C_10  and  C_11 
ROOT
HETATM    1  C   UNL     1      26.645  43.944  53.414  1.00  0.00     0.022 C 
HETATM    2  C   UNL     1      27.027  43.194  52.130  1.00  0.00     0.035 C 
HETATM    3  C   UNL     1      26.875  44.066  50.892  1.00  0.00     0.235 C 
HETATM    4  N   UNL     1      25.468  44.602  50.805  1.00  0.00    -0.066 N 
HETATM    5  H   UNL     1      24.865  43.789  50.590  1.00  0.00     0.280 HD
HETATM    6  C   UNL     1      24.963  45.283  52.046  1.00  0.00     0.235 C 
HETATM    7  C   UNL     1      25.183  44.407  53.271  1.00  0.00     0.035 C 
ENDROOT
BRANCH   1   8
HETATM    8  C   UNL     1      27.603  45.121  53.745  1.00  0.00     0.155 C 
BRANCH   8   9
HETATM    9  C   UNL     1      28.784  44.730  54.609  1.00  0.00    -0.029 A 
HETATM   10  C   UNL     1      29.203  45.540  55.676  1.00  0.00     0.011 A 
HETATM   11  C   UNL     1      30.272  45.150  56.487  1.00  0.00     0.024 A 
HETATM   12  C   UNL     1      30.932  43.949  56.236  1.00  0.00     0.034 A 
HETATM   13  C   UNL     1      30.538  43.140  55.174  1.00  0.00     0.024 A 
HETATM   14 CL   UNL     1      32.236  43.461  57.243  1.00  0.00    -0.084 Cl
HETATM   15  C   UNL     1      29.473  43.531  54.360  1.00  0.00     0.011 A 
ENDBRANCH   8   9
BRANCH   8  16
HETATM   16  O   UNL     1      26.853  46.156  54.368  1.00  0.00    -0.391 OA
HETATM   17  H   UNL     1      27.123  47.010  53.981  1.00  0.00     0.210 HD
ENDBRANCH   8  16
ENDBRANCH   1   8
BRANCH   4  18
HETATM   18  C   UNL     1      25.276  45.484  49.574  1.00  0.00     0.295 C 
BRANCH  18  19
HETATM   19  C   UNL     1      23.839  45.603  49.183  1.00  0.00     0.081 A 
HETATM   20  N   UNL     1      23.255  46.812  49.175  1.00  0.00    -0.178 NA
HETATM   21  N   UNL     1      21.985  46.553  48.795  1.00  0.00    -0.289 N 
HETATM   22  H   UNL     1      21.334  47.327  48.685  1.00  0.00     0.188 HD
HETATM   23  C   UNL     1      21.742  45.222  48.621  1.00  0.00     0.111 A 
HETATM   24  C   UNL     1      22.929  44.574  48.857  1.00  0.00     0.049 A 
ENDBRANCH  18  19
ENDBRANCH   4  18
TORSDOF 5
ENDMDL
MODEL 5
REMARK VINA RESULT:      -7.4      2.380      3.429
REMARK  5 active torsions:
REMARK  status: ('A' for Active; 'I' for Inactive)
REMARK    1  A    between atoms: C_2  and  C_3 
REMARK    2  A    between atoms: C_3  and  O_4 
REMARK    3  A    between atoms: C_3  and  C_5 
REMARK    4  A    between atoms: N_8  and  C_10 
REMARK    5  A    between atoms: C_10  and  C_11 
ROOT
HETATM    1  C   UNL     1      26.699  43.795  50.124  1.00  0.00     0.022 C 
HETATM    2  C   UNL     1      27.365  45.178  50.100  1.00  0.00     0.035 C 
HETATM    3  C   UNL     1      26.410  46.279  50.536  1.00  0.00     0.235 C 
HETATM    4  N   UNL     1      25.172  46.263  49.676  1.00  0.00    -0.066 N 
HETATM    5  H   UNL     1      25.472  46.575  48.737  1.00  0.00     0.280 HD
HETATM    6  C   UNL     1      24.488  44.929  49.562  1.00  0.00     0.235 C 
HETATM    7  C   UNL     1      25.483  43.842  49.181  1.00  0.00     0.035 C 
ENDROOT
BRANCH   1   8
HETATM    8  C   UNL     1      26.316  43.323  51.553  1.00  0.00     0.155 C 
BRANCH   8   9
HETATM    9  C   UNL     1      27.469  43.327  52.534  1.00  0.00    -0.029 A 
HETATM   10  C   UNL     1      28.623  42.561  52.302  1.00  0.00     0.011 A 
HETATM   11  C   UNL     1      29.694  42.601  53.198  1.00  0.00     0.024 A 
HETATM   12  C   UNL     1      29.621  43.405  54.333  1.00  0.00     0.034 A 
HETATM   13  C   UNL     1      28.479  44.161  54.585  1.00  0.00     0.024 A 
HETATM   14 CL   UNL     1      30.945  43.468  55.427  1.00  0.00    -0.084 Cl
HETATM   15  C   UNL     1      27.406  44.119  53.693  1.00  0.00     0.011 A 
ENDBRANCH   8   9
BRANCH   8  16
HETATM   16  O   UNL     1      25.743  42.025  51.464  1.00  0.00    -0.391 OA
HETATM   17  H   UNL     1      26.463  41.367  51.463  1.00  0.00     0.210 HD
ENDBRANCH   8  16
ENDBRANCH   1   8
BRANCH   4  18
HETATM   18  C   UNL     1      24.187  47.355  50.084  1.00  0.00     0.295 C 
BRANCH  18  19
HETATM   19  C   UNL     1      24.219  48.522  49.152  1.00  0.00     0.081 A 
HETATM   20  N   UNL     1      25.398  49.079  48.831  1.00  0.00    -0.178 NA
HETATM   21  N   UNL     1      25.060  50.090  48.000  1.00  0.00    -0.289 N 
HETATM   22  H   UNL     1      25.796  50.660  47.590  1.00  0.00     0.188 HD
HETATM   23  C   UNL     1      23.711  50.218  47.839  1.00  0.00     0.111 A 
HETATM   24  C   UNL     1      23.132  49.209  48.567  1.00  0.00     0.049 A 
ENDBRANCH  18  19
ENDBRANCH   4  18
TORSDOF 5
ENDMDL
MODEL 6
REMARK VINA RESULT:      -7.3      5.434      7.649
REMARK  5 active torsions:
REMARK  status: ('A' for Active; 'I' for Inactive)
REMARK    1  A    between atoms: C_2  and  C_3 
REMARK    2  A    between atoms: C_3  and  O_4 
REMARK    3  A    between atoms: C_3  and  C_5 
REMARK    4  A    between atoms: N_8  and  C_10 
REMARK    5  A    between atoms: C_10  and  C_11 
ROOT
HETATM    1  C   UNL     1      26.093  42.459  50.047  1.00  0.00     0.022 C 
HETATM    2  C   UNL     1      26.314  41.295  51.022  1.00  0.00     0.035 C 
HETATM    3  C   UNL     1      27.564  40.496  50.685  1.00  0.00     0.235 C 
HETATM    4  N   UNL     1      27.495  40.000  49.263  1.00  0.00    -0.066 N 
HETATM    5  H   UNL     1      26.750  39.282  49.246  1.00  0.00     0.280 HD
HETATM    6  C   UNL     1      27.196  41.052  48.231  1.00  0.00     0.235 C 
HETATM    7  C   UNL     1      25.975  41.869  48.630  1.00  0.00     0.035 C 
ENDROOT
BRANCH   1   8
HETATM    8  C   UNL     1      27.192  43.552  50.137  1.00  0.00     0.155 C 
BRANCH   8   9
HETATM    9  C   UNL     1      27.419  44.086  51.536  1.00  0.00    -0.029 A 
HETATM   10  C   UNL     1      26.523  44.994  52.121  1.00  0.00     0.011 A 
HETATM   11  C   UNL     1      26.724  45.451  53.426  1.00  0.00     0.024 A 
HETATM   12  C   UNL     1      27.824  45.005  54.155  1.00  0.00     0.034 A 
HETATM   13  C   UNL     1      28.730  44.114  53.586  1.00  0.00     0.024 A 
HETATM   14 CL   UNL     1      28.064  45.553  55.766  1.00  0.00    -0.084 Cl
HETATM   15  C   UNL     1      28.532  43.660  52.280  1.00  0.00     0.011 A 
ENDBRANCH   8   9
BRANCH   8  16
HETATM   16  O   UNL     1      26.854  44.611  49.249  1.00  0.00    -0.391 OA
HETATM   17  H   UNL     1      26.305  44.248  48.529  1.00  0.00     0.210 HD
ENDBRANCH   8  16
ENDBRANCH   1   8
BRANCH   4  18
HETATM   18  C   UNL     1      28.734  39.193  48.886  1.00  0.00     0.295 C 
BRANCH  18  19
HETATM   19  C   UNL     1      28.986  38.067  49.835  1.00  0.00     0.081 A 
HETATM   20  N   UNL     1      28.084  37.077  49.939  1.00  0.00    -0.178 NA
HETATM   21  N   UNL     1      28.614  36.257  50.874  1.00  0.00    -0.289 N 
HETATM   22  H   UNL     1      28.121  35.401  51.116  1.00  0.00     0.188 HD
HETATM   23  C   UNL     1      29.782  36.729  51.396  1.00  0.00     0.111 A 
HETATM   24  C   UNL     1      30.059  37.902  50.738  1.00  0.00     0.049 A 
ENDBRANCH  18  19
ENDBRANCH   4  18
TORSDOF 5
ENDMDL
MODEL 7
REMARK VINA RESULT:      -7.1      4.331      8.016
REMARK  5 active torsions:
REMARK  status: ('A' for Active; 'I' for Inactive)
REMARK    1  A    between atoms: C_2  and  C_3 
REMARK    2  A    between atoms: C_3  and  O_4 
REMARK    3  A    between atoms: C_3  and  C_5 
REMARK    4  A    between atoms: N_8  and  C_10 
REMARK    5  A    between atoms: C_10  and  C_11 
ROOT
HETATM    1  C   UNL     1      26.494  43.784  53.109  1.00  0.00     0.022 C 
HETATM    2  C   UNL     1      25.974  44.870  54.061  1.00  0.00     0.035 C 
HETATM    3  C   UNL     1      27.077  45.823  54.498  1.00  0.00     0.235 C 
HETATM    4  N   UNL     1      28.209  45.051  55.129  1.00  0.00    -0.066 N 
HETATM    5  H   UNL     1      27.844  44.692  56.027  1.00  0.00     0.280 HD
HETATM    6  C   UNL     1      28.738  43.906  54.311  1.00  0.00     0.235 C 
HETATM    7  C   UNL     1      27.602  43.007  53.843  1.00  0.00     0.035 C 
ENDROOT
BRANCH   1   8
HETATM    8  C   UNL     1      26.977  44.344  51.744  1.00  0.00     0.155 C 
BRANCH   8   9
HETATM    9  C   UNL     1      25.934  45.159  51.007  1.00  0.00    -0.029 A 
HETATM   10  C   UNL     1      26.143  46.517  50.720  1.00  0.00     0.011 A 
HETATM   11  C   UNL     1      25.189  47.247  50.008  1.00  0.00     0.024 A 
HETATM   12  C   UNL     1      24.017  46.627  49.580  1.00  0.00     0.034 A 
HETATM   13  C   UNL     1      23.787  45.284  49.867  1.00  0.00     0.024 A 
HETATM   14 CL   UNL     1      22.849  47.521  48.690  1.00  0.00    -0.084 Cl
HETATM   15  C   UNL     1      24.739  44.554  50.583  1.00  0.00     0.011 A 
ENDBRANCH   8   9
BRANCH   8  16
HETATM   16  O   UNL     1      27.421  43.259  50.939  1.00  0.00    -0.391 OA
HETATM   17  H   UNL     1      27.984  43.613  50.225  1.00  0.00     0.210 HD
ENDBRANCH   8  16
ENDBRANCH   1   8
BRANCH   4  18
HETATM   18  C   UNL     1      29.338  45.974  55.580  1.00  0.00     0.295 C 
BRANCH  18  19
HETATM   19  C   UNL     1      30.173  45.361  56.656  1.00  0.00     0.081 A 
HETATM   20  N   UNL     1      30.208  45.932  57.871  1.00  0.00    -0.178 NA
HETATM   21  N   UNL     1      31.049  45.142  58.574  1.00  0.00    -0.289 N 
HETATM   22  H   UNL     1      31.224  45.354  59.553  1.00  0.00     0.188 HD
HETATM   23  C   UNL     1      31.584  44.135  57.825  1.00  0.00     0.111 A 
HETATM   24  C   UNL     1      31.029  44.241  56.574  1.00  0.00     0.049 A 
ENDBRANCH  18  19
ENDBRANCH   4  18
TORSDOF 5
ENDMDL
MODEL 8
REMARK VINA RESULT:      -7.1      6.565      9.427
REMARK  5 active torsions:
REMARK  status: ('A' for Active; 'I' for Inactive)
REMARK    1  A    between atoms: C_2  and  C_3 
REMARK    2  A    between atoms: C_3  and  O_4 
REMARK    3  A    between atoms: C_3  and  C_5 
REMARK    4  A    between atoms: N_8  and  C_10 
REMARK    5  A    between atoms: C_10  and  C_11 
ROOT
HETATM    1  C   UNL     1      21.385  49.407  47.815  1.00  0.00     0.022 C 
HETATM    2  C   UNL     1      21.174  50.909  48.050  1.00  0.00     0.035 C 
HETATM    3  C   UNL     1      20.176  51.179  49.166  1.00  0.00     0.235 C 
HETATM    4  N   UNL     1      18.867  50.492  48.869  1.00  0.00    -0.066 N 
HETATM    5  H   UNL     1      18.457  50.996  48.065  1.00  0.00     0.280 HD
HETATM    6  C   UNL     1      18.971  49.029  48.540  1.00  0.00     0.235 C 
HETATM    7  C   UNL     1      20.019  48.790  47.462  1.00  0.00     0.035 C 
ENDROOT
BRANCH   1   8
HETATM    8  C   UNL     1      22.060  48.687  49.014  1.00  0.00     0.155 C 
BRANCH   8   9
HETATM    9  C   UNL     1      23.572  48.769  49.010  1.00  0.00    -0.029 A 
HETATM   10  C   UNL     1      24.244  49.754  48.269  1.00  0.00     0.011 A 
HETATM   11  C   UNL     1      25.638  49.841  48.303  1.00  0.00     0.024 A 
HETATM   12  C   UNL     1      26.372  48.943  49.075  1.00  0.00     0.034 A 
HETATM   13  C   UNL     1      25.722  47.951  49.806  1.00  0.00     0.024 A 
HETATM   14 CL   UNL     1      28.086  49.059  49.130  1.00  0.00    -0.084 Cl
HETATM   15  C   UNL     1      24.329  47.861  49.770  1.00  0.00     0.011 A 
ENDBRANCH   8   9
BRANCH   8  16
HETATM   16  O   UNL     1      21.635  47.330  49.027  1.00  0.00    -0.391 OA
HETATM   17  H   UNL     1      21.527  47.048  49.955  1.00  0.00     0.210 HD
ENDBRANCH   8  16
ENDBRANCH   1   8
BRANCH   4  18
HETATM   18  C   UNL     1      17.839  50.739  49.969  1.00  0.00     0.295 C 
BRANCH  18  19
HETATM   19  C   UNL     1      16.868  51.815  49.604  1.00  0.00     0.081 A 
HETATM   20  N   UNL     1      17.139  53.088  49.932  1.00  0.00    -0.178 NA
HETATM   21  N   UNL     1      16.069  53.773  49.472  1.00  0.00    -0.289 N 
HETATM   22  H   UNL     1      16.047  54.785  49.577  1.00  0.00     0.188 HD
HETATM   23  C   UNL     1      15.117  52.967  48.921  1.00  0.00     0.111 A 
HETATM   24  C   UNL     1      15.607  51.686  48.982  1.00  0.00     0.049 A 
ENDBRANCH  18  19
ENDBRANCH   4  18
TORSDOF 5
ENDMDL
MODEL 9
REMARK VINA RESULT:      -7.1      6.047     10.295
REMARK  5 active torsions:
REMARK  status: ('A' for Active; 'I' for Inactive)
REMARK    1  A    between atoms: C_2  and  C_3 
REMARK    2  A    between atoms: C_3  and  O_4 
REMARK    3  A    between atoms: C_3  and  C_5 
REMARK    4  A    between atoms: N_8  and  C_10 
REMARK    5  A    between atoms: C_10  and  C_11 
ROOT
HETATM    1  C   UNL     1      22.417  49.888  48.536  1.00  0.00     0.022 C 
HETATM    2  C   UNL     1      21.843  48.748  47.684  1.00  0.00     0.035 C 
HETATM    3  C   UNL     1      21.915  47.408  48.399  1.00  0.00     0.235 C 
HETATM    4  N   UNL     1      23.337  47.112  48.806  1.00  0.00    -0.066 N 
HETATM    5  H   UNL     1      23.854  46.934  47.928  1.00  0.00     0.280 HD
HETATM    6  C   UNL     1      24.024  48.206  49.576  1.00  0.00     0.235 C 
HETATM    7  C   UNL     1      23.882  49.542  48.860  1.00  0.00     0.035 C 
ENDROOT
BRANCH   1   8
HETATM    8  C   UNL     1      21.586  50.177  49.816  1.00  0.00     0.155 C 
BRANCH   8   9
HETATM    9  C   UNL     1      20.247  50.830  49.548  1.00  0.00    -0.029 A 
HETATM   10  C   UNL     1      20.123  51.879  48.624  1.00  0.00     0.011 A 
HETATM   11  C   UNL     1      18.875  52.450  48.359  1.00  0.00     0.024 A 
HETATM   12  C   UNL     1      17.742  51.977  49.017  1.00  0.00     0.034 A 
HETATM   13  C   UNL     1      17.848  50.945  49.946  1.00  0.00     0.024 A 
HETATM   14 CL   UNL     1      16.204  52.666  48.681  1.00  0.00    -0.084 Cl
HETATM   15  C   UNL     1      19.096  50.377  50.215  1.00  0.00     0.011 A 
ENDBRANCH   8   9
BRANCH   8  16
HETATM   16  O   UNL     1      22.366  50.981  50.692  1.00  0.00    -0.391 OA
HETATM   17  H   UNL     1      22.807  51.675  50.166  1.00  0.00     0.210 HD
ENDBRANCH   8  16
ENDBRANCH   1   8
BRANCH   4  18
HETATM   18  C   UNL     1      23.450  45.773  49.529  1.00  0.00     0.295 C 
BRANCH  18  19
HETATM   19  C   UNL     1      24.826  45.530  50.056  1.00  0.00     0.081 A 
HETATM   20  N   UNL     1      25.836  45.324  49.195  1.00  0.00    -0.178 NA
HETATM   21  N   UNL     1      26.907  45.130  49.996  1.00  0.00    -0.289 N 
HETATM   22  H   UNL     1      27.820  44.978  49.573  1.00  0.00     0.188 HD
HETATM   23  C   UNL     1      26.590  45.151  51.323  1.00  0.00     0.111 A 
HETATM   24  C   UNL     1      25.246  45.417  51.400  1.00  0.00     0.049 A 
ENDBRANCH  18  19
ENDBRANCH   4  18
TORSDOF 5
ENDMDL
MODEL 10
REMARK VINA RESULT:      -7.0      4.614      5.624
REMARK  5 active torsions:
REMARK  status: ('A' for Active; 'I' for Inactive)
REMARK    1  A    between atoms: C_2  and  C_3 
REMARK    2  A    between atoms: C_3  and  O_4 
REMARK    3  A    between atoms: C_3  and  C_5 
REMARK    4  A    between atoms: N_8  and  C_10 
REMARK    5  A    between atoms: C_10  and  C_11 
ROOT
HETATM    1  C   UNL     1      26.897  42.509  51.836  1.00  0.00     0.022 C 
HETATM    2  C   UNL     1      27.485  41.124  52.141  1.00  0.00     0.035 C 
HETATM    3  C   UNL     1      28.389  40.628  51.023  1.00  0.00     0.235 C 
HETATM    4  N   UNL     1      27.639  40.618  49.715  1.00  0.00    -0.066 N 
HETATM    5  H   UNL     1      26.936  39.864  49.795  1.00  0.00     0.280 HD
HETATM    6  C   UNL     1      26.951  41.907  49.360  1.00  0.00     0.235 C 
HETATM    7  C   UNL     1      26.102  42.403  50.522  1.00  0.00     0.035 C 
ENDROOT
BRANCH   1   8
HETATM    8  C   UNL     1      27.968  43.632  51.784  1.00  0.00     0.155 C 
BRANCH   8   9
HETATM    9  C   UNL     1      28.738  43.812  53.075  1.00  0.00    -0.029 A 
HETATM   10  C   UNL     1      28.300  44.708  54.063  1.00  0.00     0.011 A 
HETATM   11  C   UNL     1      29.000  44.837  55.265  1.00  0.00     0.024 A 
HETATM   12  C   UNL     1      30.143  44.074  55.489  1.00  0.00     0.034 A 
HETATM   13  C   UNL     1      30.599  43.189  54.515  1.00  0.00     0.024 A 
HETATM   14 CL   UNL     1      30.996  44.220  56.974  1.00  0.00    -0.084 Cl
HETATM   15  C   UNL     1      29.903  43.062  53.311  1.00  0.00     0.011 A 
ENDBRANCH   8   9
BRANCH   8  16
HETATM   16  O   UNL     1      27.333  44.848  51.410  1.00  0.00    -0.391 OA
HETATM   17  H   UNL     1      28.015  45.541  51.325  1.00  0.00     0.210 HD
ENDBRANCH   8  16
ENDBRANCH   1   8
BRANCH   4  18
HETATM   18  C   UNL     1      28.516  40.126  48.566  1.00  0.00     0.295 C 
BRANCH  18  19
HETATM   19  C   UNL     1      27.876  40.343  47.234  1.00  0.00     0.081 A 
HETATM   20  N   UNL     1      28.340  41.312  46.428  1.00  0.00    -0.178 NA
HETATM   21  N   UNL     1      27.540  41.236  45.341  1.00  0.00    -0.289 N 
HETATM   22  H   UNL     1      27.711  41.863  44.558  1.00  0.00     0.188 HD
HETATM   23  C   UNL     1      26.561  40.295  45.465  1.00  0.00     0.111 A 
HETATM   24  C   UNL     1      26.754  39.688  46.681  1.00  0.00     0.049 A 
ENDBRANCH  18  19
ENDBRANCH   4  18
TORSDOF 5
ENDMDL
