MODEL 1
REMARK VINA RESULT:      -7.6      0.000      0.000
REMARK  5 active torsions:
REMARK  status: ('A' for Active; 'I' for Inactive)
REMARK    1  A    between atoms: C_2  and  C_3 
REMARK    2  A    between atoms: C_7  and  C_8 
REMARK       I    between atoms: C_8  and  N_9 
REMARK    3  A    between atoms: N_9  and  C_10 
REMARK    4  A    between atoms: C_15  and  N_16 
REMARK       I    between atoms: N_16  and  C_17 
REMARK    5  A    between atoms: C_17  and  C_18 
ROOT
HETATM    1  C   UNL     1      25.366  47.944  49.728  1.00  0.00     0.059 A 
HETATM    2  C   UNL     1      26.328  48.730  49.072  1.00  0.00     0.060 A 
HETATM    3 CL   UNL     1      27.977  48.252  48.849  1.00  0.00    -0.082 Cl
HETATM    4  C   UNL     1      25.933  49.889  48.394  1.00  0.00     0.028 A 
HETATM    5  C   UNL     1      24.586  50.253  48.324  1.00  0.00     0.031 A 
HETATM    6  C   UNL     1      23.610  49.452  48.910  1.00  0.00     0.036 A 
HETATM    7  C   UNL     1      24.009  48.301  49.608  1.00  0.00     0.060 A 
ENDROOT
BRANCH   1   8
HETATM    8  N   UNL     1      25.632  46.761  50.463  1.00  0.00    -0.320 N 
HETATM    9  C   UNL     1      25.813  46.681  51.831  1.00  0.00     0.274 C 
HETATM   10  O   UNL     1      25.589  47.589  52.621  1.00  0.00    -0.266 OA
HETATM   11  H   UNL     1      25.425  45.886  50.005  1.00  0.00     0.169 HD
BRANCH   9  12
HETATM   12  C   UNL     1      26.212  45.376  52.300  1.00  0.00     0.120 A 
HETATM   13  N   UNL     1      25.703  44.235  51.738  1.00  0.00    -0.273 N 
HETATM   14  N   UNL     1      26.173  43.100  52.278  1.00  0.00    -0.179 NA
HETATM   15  H   UNL     1      25.026  44.180  50.981  1.00  0.00     0.189 HD
HETATM   16  C   UNL     1      27.004  43.514  53.240  1.00  0.00     0.056 A 
HETATM   17  C   UNL     1      27.059  44.930  53.296  1.00  0.00     0.065 A 
BRANCH  16  18
HETATM   18  C   UNL     1      27.751  42.555  54.114  1.00  0.00     0.056 C 
HETATM   19  C   UNL     1      29.197  42.932  54.404  1.00  0.00     0.011 C 
ENDBRANCH  16  18
ENDBRANCH   9  12
ENDBRANCH   1   8
BRANCH   6  20
HETATM   20  N   UNL     1      22.224  49.718  48.837  1.00  0.00    -0.327 N 
HETATM   21  C   UNL     1      21.473  50.501  49.697  1.00  0.00     0.221 C 
HETATM   22  O   UNL     1      21.875  51.085  50.698  1.00  0.00    -0.273 OA
HETATM   23  H   UNL     1      21.732  49.316  48.050  1.00  0.00     0.169 HD
BRANCH  21  24
HETATM   24  C   UNL     1      20.017  50.599  49.280  1.00  0.00     0.098 C 
HETATM   25  C   UNL     1      19.709  51.935  48.632  1.00  0.00     0.014 C 
ENDBRANCH  21  24
ENDBRANCH   6  20
TORSDOF 5
ENDMDL
MODEL 2
REMARK VINA RESULT:      -7.6      2.063      2.198
REMARK  5 active torsions:
REMARK  status: ('A' for Active; 'I' for Inactive)
REMARK    1  A    between atoms: C_2  and  C_3 
REMARK    2  A    between atoms: C_7  and  C_8 
REMARK       I    between atoms: C_8  and  N_9 
REMARK    3  A    between atoms: N_9  and  C_10 
REMARK    4  A    between atoms: C_15  and  N_16 
REMARK       I    between atoms: N_16  and  C_17 
REMARK    5  A    between atoms: C_17  and  C_18 
ROOT
HETATM    1  C   UNL     1      25.510  47.670  50.224  1.00  0.00     0.059 A 
HETATM    2  C   UNL     1      26.171  48.617  49.423  1.00  0.00     0.060 A 
HETATM    3 CL   UNL     1      27.888  48.665  49.206  1.00  0.00    -0.082 Cl
HETATM    4  C   UNL     1      25.428  49.473  48.604  1.00  0.00     0.028 A 
HETATM    5  C   UNL     1      24.036  49.370  48.536  1.00  0.00     0.031 A 
HETATM    6  C   UNL     1      23.367  48.395  49.269  1.00  0.00     0.036 A 
HETATM    7  C   UNL     1      24.111  47.551  50.109  1.00  0.00     0.060 A 
ENDROOT
BRANCH   1   8
HETATM    8  N   UNL     1      26.137  46.758  51.109  1.00  0.00    -0.320 N 
HETATM    9  C   UNL     1      26.129  46.833  52.489  1.00  0.00     0.274 C 
HETATM   10  O   UNL     1      25.428  47.594  53.145  1.00  0.00    -0.266 OA
HETATM   11  H   UNL     1      26.391  45.857  50.730  1.00  0.00     0.169 HD
BRANCH   9  12
HETATM   12  C   UNL     1      26.967  45.856  53.141  1.00  0.00     0.120 A 
HETATM   13  N   UNL     1      27.560  46.123  54.347  1.00  0.00    -0.273 N 
HETATM   14  N   UNL     1      28.305  45.116  54.828  1.00  0.00    -0.179 NA
HETATM   15  H   UNL     1      27.486  46.984  54.882  1.00  0.00     0.189 HD
HETATM   16  C   UNL     1      28.212  44.164  53.894  1.00  0.00     0.056 A 
HETATM   17  C   UNL     1      27.389  44.581  52.816  1.00  0.00     0.065 A 
BRANCH  16  18
HETATM   18  C   UNL     1      28.912  42.848  54.026  1.00  0.00     0.056 C 
HETATM   19  C   UNL     1      30.255  42.752  53.315  1.00  0.00     0.011 C 
ENDBRANCH  16  18
ENDBRANCH   9  12
ENDBRANCH   1   8
BRANCH   6  20
HETATM   20  N   UNL     1      21.971  48.188  49.215  1.00  0.00    -0.327 N 
HETATM   21  C   UNL     1      21.233  47.712  48.143  1.00  0.00     0.221 C 
HETATM   22  O   UNL     1      21.661  47.409  47.035  1.00  0.00    -0.273 OA
HETATM   23  H   UNL     1      21.455  48.381  50.064  1.00  0.00     0.169 HD
BRANCH  21  24
HETATM   24  C   UNL     1      19.756  47.575  48.464  1.00  0.00     0.098 C 
HETATM   25  C   UNL     1      19.364  48.414  49.665  1.00  0.00     0.014 C 
ENDBRANCH  21  24
ENDBRANCH   6  20
TORSDOF 5
ENDMDL
MODEL 3
REMARK VINA RESULT:      -7.5      2.631      3.227
REMARK  5 active torsions:
REMARK  status: ('A' for Active; 'I' for Inactive)
REMARK    1  A    between atoms: C_2  and  C_3 
REMARK    2  A    between atoms: C_7  and  C_8 
REMARK       I    between atoms: C_8  and  N_9 
REMARK    3  A    between atoms: N_9  and  C_10 
REMARK    4  A    between atoms: C_15  and  N_16 
REMARK       I    between atoms: N_16  and  C_17 
REMARK    5  A    between atoms: C_17  and  C_18 
ROOT
HETATM    1  C   UNL     1      24.978  45.549  50.360  1.00  0.00     0.059 A 
HETATM    2  C   UNL     1      24.319  44.657  49.496  1.00  0.00     0.060 A 
HETATM    3 CL   UNL     1      24.469  42.935  49.590  1.00  0.00    -0.082 Cl
HETATM    4  C   UNL     1      23.346  45.137  48.613  1.00  0.00     0.028 A 
HETATM    5  C   UNL     1      22.987  46.488  48.608  1.00  0.00     0.031 A 
HETATM    6  C   UNL     1      23.579  47.376  49.502  1.00  0.00     0.036 A 
HETATM    7  C   UNL     1      24.571  46.897  50.373  1.00  0.00     0.060 A 
ENDROOT
BRANCH   1   8
HETATM    8  N   UNL     1      25.991  45.199  51.287  1.00  0.00    -0.320 N 
HETATM    9  C   UNL     1      25.787  44.715  52.566  1.00  0.00     0.274 C 
HETATM   10  O   UNL     1      24.706  44.348  53.011  1.00  0.00    -0.266 OA
HETATM   11  H   UNL     1      26.917  45.049  50.914  1.00  0.00     0.169 HD
BRANCH   9  12
HETATM   12  C   UNL     1      26.992  44.577  53.347  1.00  0.00     0.120 A 
HETATM   13  N   UNL     1      27.359  45.533  54.258  1.00  0.00    -0.273 N 
HETATM   14  N   UNL     1      28.500  45.262  54.909  1.00  0.00    -0.179 NA
HETATM   15  H   UNL     1      26.860  46.393  54.469  1.00  0.00     0.189 HD
HETATM   16  C   UNL     1      28.904  44.097  54.392  1.00  0.00     0.056 A 
HETATM   17  C   UNL     1      27.996  43.630  53.407  1.00  0.00     0.065 A 
BRANCH  16  18
HETATM   18  C   UNL     1      30.165  43.424  54.836  1.00  0.00     0.056 C 
HETATM   19  C   UNL     1      30.937  44.147  55.930  1.00  0.00     0.011 C 
ENDBRANCH  16  18
ENDBRANCH   9  12
ENDBRANCH   1   8
BRANCH   6  20
HETATM   20  N   UNL     1      23.234  48.742  49.600  1.00  0.00    -0.327 N 
HETATM   21  C   UNL     1      23.404  49.723  48.637  1.00  0.00     0.221 C 
HETATM   22  O   UNL     1      23.913  49.583  47.530  1.00  0.00    -0.273 OA
HETATM   23  H   UNL     1      22.784  49.030  50.460  1.00  0.00     0.169 HD
BRANCH  21  24
HETATM   24  C   UNL     1      22.871  51.074  49.077  1.00  0.00     0.098 C 
HETATM   25  C   UNL     1      21.410  51.246  48.708  1.00  0.00     0.014 C 
ENDBRANCH  21  24
ENDBRANCH   6  20
TORSDOF 5
ENDMDL
MODEL 4
REMARK VINA RESULT:      -7.5      3.179      8.711
REMARK  5 active torsions:
REMARK  status: ('A' for Active; 'I' for Inactive)
REMARK    1  A    between atoms: C_2  and  C_3 
REMARK    2  A    between atoms: C_7  and  C_8 
REMARK       I    between atoms: C_8  and  N_9 
REMARK    3  A    between atoms: N_9  and  C_10 
REMARK    4  A    between atoms: C_15  and  N_16 
REMARK       I    between atoms: N_16  and  C_17 
REMARK    5  A    between atoms: C_17  and  C_18 
ROOT
HETATM    1  C   UNL     1      27.450  43.672  52.191  1.00  0.00     0.059 A 
HETATM    2  C   UNL     1      27.217  42.334  51.831  1.00  0.00     0.060 A 
HETATM    3 CL   UNL     1      26.375  41.854  50.396  1.00  0.00    -0.082 Cl
HETATM    4  C   UNL     1      27.831  41.304  52.551  1.00  0.00     0.028 A 
HETATM    5  C   UNL     1      28.711  41.588  53.598  1.00  0.00     0.031 A 
HETATM    6  C   UNL     1      29.009  42.907  53.928  1.00  0.00     0.036 A 
HETATM    7  C   UNL     1      28.374  43.940  53.220  1.00  0.00     0.060 A 
ENDROOT
BRANCH   1   8
HETATM    8  N   UNL     1      26.880  44.806  51.561  1.00  0.00    -0.320 N 
HETATM    9  C   UNL     1      25.552  45.184  51.621  1.00  0.00     0.274 C 
HETATM   10  O   UNL     1      24.718  44.696  52.375  1.00  0.00    -0.266 OA
HETATM   11  H   UNL     1      27.518  45.527  51.259  1.00  0.00     0.169 HD
BRANCH   9  12
HETATM   12  C   UNL     1      25.214  46.299  50.769  1.00  0.00     0.120 A 
HETATM   13  N   UNL     1      23.963  46.417  50.222  1.00  0.00    -0.273 N 
HETATM   14  N   UNL     1      23.800  47.507  49.457  1.00  0.00    -0.179 NA
HETATM   15  H   UNL     1      23.185  45.775  50.341  1.00  0.00     0.189 HD
HETATM   16  C   UNL     1      24.992  48.113  49.490  1.00  0.00     0.056 A 
HETATM   17  C   UNL     1      25.911  47.392  50.294  1.00  0.00     0.065 A 
BRANCH  16  18
HETATM   18  C   UNL     1      25.259  49.386  48.749  1.00  0.00     0.056 C 
HETATM   19  C   UNL     1      26.729  49.708  48.520  1.00  0.00     0.011 C 
ENDBRANCH  16  18
ENDBRANCH   9  12
ENDBRANCH   1   8
BRANCH   6  20
HETATM   20  N   UNL     1      29.927  43.279  54.934  1.00  0.00    -0.327 N 
HETATM   21  C   UNL     1      29.957  44.466  55.648  1.00  0.00     0.221 C 
HETATM   22  O   UNL     1      29.200  45.422  55.513  1.00  0.00    -0.273 OA
HETATM   23  H   UNL     1      30.625  42.589  55.182  1.00  0.00     0.169 HD
BRANCH  21  24
HETATM   24  C   UNL     1      31.063  44.498  56.686  1.00  0.00     0.098 C 
HETATM   25  C   UNL     1      31.545  43.102  57.033  1.00  0.00     0.014 C 
ENDBRANCH  21  24
ENDBRANCH   6  20
TORSDOF 5
ENDMDL
MODEL 5
REMARK VINA RESULT:      -7.5      2.979      8.028
REMARK  5 active torsions:
REMARK  status: ('A' for Active; 'I' for Inactive)
REMARK    1  A    between atoms: C_2  and  C_3 
REMARK    2  A    between atoms: C_7  and  C_8 
REMARK       I    between atoms: C_8  and  N_9 
REMARK    3  A    between atoms: N_9  and  C_10 
REMARK    4  A    between atoms: C_15  and  N_16 
REMARK       I    between atoms: N_16  and  C_17 
REMARK    5  A    between atoms: C_17  and  C_18 
ROOT
HETATM    1  C   UNL     1      23.808  48.106  49.490  1.00  0.00     0.059 A 
HETATM    2  C   UNL     1      24.548  49.129  48.873  1.00  0.00     0.060 A 
HETATM    3 CL   UNL     1      23.846  50.575  48.231  1.00  0.00    -0.082 Cl
HETATM    4  C   UNL     1      25.946  49.098  48.917  1.00  0.00     0.028 A 
HETATM    5  C   UNL     1      26.619  48.085  49.605  1.00  0.00     0.031 A 
HETATM    6  C   UNL     1      25.904  47.099  50.280  1.00  0.00     0.036 A 
HETATM    7  C   UNL     1      24.501  47.118  50.216  1.00  0.00     0.060 A 
ENDROOT
BRANCH   1   8
HETATM    8  N   UNL     1      22.395  48.007  49.506  1.00  0.00    -0.320 N 
HETATM    9  C   UNL     1      21.587  47.767  48.410  1.00  0.00     0.274 C 
HETATM   10  O   UNL     1      21.990  47.426  47.304  1.00  0.00    -0.266 OA
HETATM   11  H   UNL     1      21.960  47.846  50.402  1.00  0.00     0.169 HD
BRANCH   9  12
HETATM   12  C   UNL     1      20.173  47.860  48.683  1.00  0.00     0.120 A 
HETATM   13  N   UNL     1      19.714  48.193  49.930  1.00  0.00    -0.273 N 
HETATM   14  N   UNL     1      18.377  48.243  50.027  1.00  0.00    -0.179 NA
HETATM   15  H   UNL     1      20.278  48.395  50.751  1.00  0.00     0.189 HD
HETATM   16  C   UNL     1      17.946  47.911  48.805  1.00  0.00     0.056 A 
HETATM   17  C   UNL     1      19.033  47.658  47.930  1.00  0.00     0.065 A 
BRANCH  16  18
HETATM   18  C   UNL     1      16.490  47.833  48.468  1.00  0.00     0.056 C 
HETATM   19  C   UNL     1      15.858  49.141  48.014  1.00  0.00     0.011 C 
ENDBRANCH  16  18
ENDBRANCH   9  12
ENDBRANCH   1   8
BRANCH   6  20
HETATM   20  N   UNL     1      26.505  46.074  51.043  1.00  0.00    -0.327 N 
HETATM   21  C   UNL     1      27.020  44.874  50.581  1.00  0.00     0.221 C 
HETATM   22  O   UNL     1      27.021  44.474  49.422  1.00  0.00    -0.273 OA
HETATM   23  H   UNL     1      26.597  46.249  52.035  1.00  0.00     0.169 HD
BRANCH  21  24
HETATM   24  C   UNL     1      27.632  44.035  51.687  1.00  0.00     0.098 C 
HETATM   25  C   UNL     1      27.341  44.617  53.057  1.00  0.00     0.014 C 
ENDBRANCH  21  24
ENDBRANCH   6  20
TORSDOF 5
ENDMDL
MODEL 6
REMARK VINA RESULT:      -7.4      5.958      8.424
REMARK  5 active torsions:
REMARK  status: ('A' for Active; 'I' for Inactive)
REMARK    1  A    between atoms: C_2  and  C_3 
REMARK    2  A    between atoms: C_7  and  C_8 
REMARK       I    between atoms: C_8  and  N_9 
REMARK    3  A    between atoms: N_9  and  C_10 
REMARK    4  A    between atoms: C_15  and  N_16 
REMARK       I    between atoms: N_16  and  C_17 
REMARK    5  A    between atoms: C_17  and  C_18 
ROOT
HETATM    1  C   UNL     1      27.777  44.407  53.125  1.00  0.00     0.059 A 
HETATM    2  C   UNL     1      26.772  45.386  53.054  1.00  0.00     0.060 A 
HETATM    3 CL   UNL     1      25.365  45.253  52.054  1.00  0.00    -0.082 Cl
HETATM    4  C   UNL     1      26.783  46.458  53.952  1.00  0.00     0.028 A 
HETATM    5  C   UNL     1      27.756  46.547  54.950  1.00  0.00     0.031 A 
HETATM    6  C   UNL     1      28.721  45.553  55.081  1.00  0.00     0.036 A 
HETATM    7  C   UNL     1      28.723  44.488  54.166  1.00  0.00     0.060 A 
ENDROOT
BRANCH   1   8
HETATM    8  N   UNL     1      27.895  43.283  52.270  1.00  0.00    -0.320 N 
HETATM    9  C   UNL     1      27.923  41.960  52.669  1.00  0.00     0.274 C 
HETATM   10  O   UNL     1      27.670  41.565  53.800  1.00  0.00    -0.266 OA
HETATM   11  H   UNL     1      27.688  43.432  51.293  1.00  0.00     0.169 HD
BRANCH   9  12
HETATM   12  C   UNL     1      28.195  41.025  51.604  1.00  0.00     0.120 A 
HETATM   13  N   UNL     1      28.946  39.901  51.823  1.00  0.00    -0.273 N 
HETATM   14  N   UNL     1      29.107  39.128  50.739  1.00  0.00    -0.179 NA
HETATM   15  H   UNL     1      29.374  39.618  52.701  1.00  0.00     0.189 HD
HETATM   16  C   UNL     1      28.454  39.780  49.771  1.00  0.00     0.056 A 
HETATM   17  C   UNL     1      27.870  40.975  50.262  1.00  0.00     0.065 A 
BRANCH  16  18
HETATM   18  C   UNL     1      28.387  39.263  48.368  1.00  0.00     0.056 C 
HETATM   19  C   UNL     1      29.084  37.931  48.132  1.00  0.00     0.011 C 
ENDBRANCH  16  18
ENDBRANCH   9  12
ENDBRANCH   1   8
BRANCH   6  20
HETATM   20  N   UNL     1      29.704  45.538  56.095  1.00  0.00    -0.327 N 
HETATM   21  C   UNL     1      29.529  45.823  57.439  1.00  0.00     0.221 C 
HETATM   22  O   UNL     1      28.488  46.169  57.987  1.00  0.00    -0.273 OA
HETATM   23  H   UNL     1      30.635  45.257  55.814  1.00  0.00     0.169 HD
BRANCH  21  24
HETATM   24  C   UNL     1      30.806  45.658  58.244  1.00  0.00     0.098 C 
HETATM   25  C   UNL     1      31.485  44.334  57.950  1.00  0.00     0.014 C 
ENDBRANCH  21  24
ENDBRANCH   6  20
TORSDOF 5
ENDMDL
MODEL 7
REMARK VINA RESULT:      -7.4      3.686      9.005
REMARK  5 active torsions:
REMARK  status: ('A' for Active; 'I' for Inactive)
REMARK    1  A    between atoms: C_2  and  C_3 
REMARK    2  A    between atoms: C_7  and  C_8 
REMARK       I    between atoms: C_8  and  N_9 
REMARK    3  A    between atoms: N_9  and  C_10 
REMARK    4  A    between atoms: C_15  and  N_16 
REMARK       I    between atoms: N_16  and  C_17 
REMARK    5  A    between atoms: C_17  and  C_18 
ROOT
HETATM    1  C   UNL     1      27.510  43.531  52.257  1.00  0.00     0.059 A 
HETATM    2  C   UNL     1      27.530  43.216  53.626  1.00  0.00     0.060 A 
HETATM    3 CL   UNL     1      26.771  44.179  54.849  1.00  0.00    -0.082 Cl
HETATM    4  C   UNL     1      28.029  41.979  54.047  1.00  0.00     0.028 A 
HETATM    5  C   UNL     1      28.467  41.030  53.119  1.00  0.00     0.031 A 
HETATM    6  C   UNL     1      28.393  41.295  51.755  1.00  0.00     0.036 A 
HETATM    7  C   UNL     1      27.913  42.546  51.334  1.00  0.00     0.060 A 
ENDROOT
BRANCH   1   8
HETATM    8  N   UNL     1      27.050  44.750  51.699  1.00  0.00    -0.320 N 
HETATM    9  C   UNL     1      25.734  45.068  51.420  1.00  0.00     0.274 C 
HETATM   10  O   UNL     1      24.764  44.414  51.782  1.00  0.00    -0.266 OA
HETATM   11  H   UNL     1      27.682  45.536  51.741  1.00  0.00     0.169 HD
BRANCH   9  12
HETATM   12  C   UNL     1      25.562  46.319  50.722  1.00  0.00     0.120 A 
HETATM   13  N   UNL     1      24.356  46.968  50.720  1.00  0.00    -0.273 N 
HETATM   14  N   UNL     1      24.353  48.120  50.032  1.00  0.00    -0.179 NA
HETATM   15  H   UNL     1      23.500  46.661  51.175  1.00  0.00     0.189 HD
HETATM   16  C   UNL     1      25.597  48.217  49.551  1.00  0.00     0.056 A 
HETATM   17  C   UNL     1      26.390  47.112  49.951  1.00  0.00     0.065 A 
BRANCH  16  18
HETATM   18  C   UNL     1      26.034  49.370  48.702  1.00  0.00     0.056 C 
HETATM   19  C   UNL     1      24.919  50.082  47.949  1.00  0.00     0.011 C 
ENDBRANCH  16  18
ENDBRANCH   9  12
ENDBRANCH   1   8
BRANCH   6  20
HETATM   20  N   UNL     1      28.762  40.372  50.752  1.00  0.00    -0.327 N 
HETATM   21  C   UNL     1      27.920  39.589  49.979  1.00  0.00     0.221 C 
HETATM   22  O   UNL     1      26.697  39.540  50.047  1.00  0.00    -0.273 OA
HETATM   23  H   UNL     1      29.752  40.296  50.555  1.00  0.00     0.169 HD
BRANCH  21  24
HETATM   24  C   UNL     1      28.671  38.746  48.965  1.00  0.00     0.098 C 
HETATM   25  C   UNL     1      29.917  38.125  49.567  1.00  0.00     0.014 C 
ENDBRANCH  21  24
ENDBRANCH   6  20
TORSDOF 5
ENDMDL
MODEL 8
REMARK VINA RESULT:      -7.1      2.802      8.456
REMARK  5 active torsions:
REMARK  status: ('A' for Active; 'I' for Inactive)
REMARK    1  A    between atoms: C_2  and  C_3 
REMARK    2  A    between atoms: C_7  and  C_8 
REMARK       I    between atoms: C_8  and  N_9 
REMARK    3  A    between atoms: N_9  and  C_10 
REMARK    4  A    between atoms: C_15  and  N_16 
REMARK       I    between atoms: N_16  and  C_17 
REMARK    5  A    between atoms: C_17  and  C_18 
ROOT
HETATM    1  C   UNL     1      26.359  45.137  52.209  1.00  0.00     0.059 A 
HETATM    2  C   UNL     1      26.740  43.846  51.804  1.00  0.00     0.060 A 
HETATM    3 CL   UNL     1      26.552  43.246  50.192  1.00  0.00    -0.082 Cl
HETATM    4  C   UNL     1      27.474  43.034  52.676  1.00  0.00     0.028 A 
HETATM    5  C   UNL     1      27.872  43.505  53.929  1.00  0.00     0.031 A 
HETATM    6  C   UNL     1      27.564  44.804  54.323  1.00  0.00     0.036 A 
HETATM    7  C   UNL     1      26.808  45.611  53.457  1.00  0.00     0.060 A 
ENDROOT
BRANCH   1   8
HETATM    8  N   UNL     1      25.604  46.053  51.435  1.00  0.00    -0.320 N 
HETATM    9  C   UNL     1      26.052  46.734  50.319  1.00  0.00     0.274 C 
HETATM   10  O   UNL     1      27.105  46.506  49.736  1.00  0.00    -0.266 OA
HETATM   11  H   UNL     1      24.601  46.020  51.543  1.00  0.00     0.169 HD
BRANCH   9  12
HETATM   12  C   UNL     1      25.123  47.713  49.808  1.00  0.00     0.120 A 
HETATM   13  N   UNL     1      23.779  47.609  50.054  1.00  0.00    -0.273 N 
HETATM   14  N   UNL     1      23.045  48.595  49.517  1.00  0.00    -0.179 NA
HETATM   15  H   UNL     1      23.314  46.877  50.584  1.00  0.00     0.189 HD
HETATM   16  C   UNL     1      23.938  49.360  48.881  1.00  0.00     0.056 A 
HETATM   17  C   UNL     1      25.252  48.847  49.031  1.00  0.00     0.065 A 
BRANCH  16  18
HETATM   18  C   UNL     1      23.539  50.589  48.125  1.00  0.00     0.056 C 
HETATM   19  C   UNL     1      22.064  50.678  47.763  1.00  0.00     0.011 C 
ENDBRANCH  16  18
ENDBRANCH   9  12
ENDBRANCH   1   8
BRANCH   6  20
HETATM   20  N   UNL     1      27.975  45.375  55.547  1.00  0.00    -0.327 N 
HETATM   21  C   UNL     1      29.250  45.370  56.090  1.00  0.00     0.221 C 
HETATM   22  O   UNL     1      30.248  44.840  55.614  1.00  0.00    -0.273 OA
HETATM   23  H   UNL     1      27.266  45.870  56.072  1.00  0.00     0.169 HD
BRANCH  21  24
HETATM   24  C   UNL     1      29.329  46.125  57.404  1.00  0.00     0.098 C 
HETATM   25  C   UNL     1      30.384  45.539  58.323  1.00  0.00     0.014 C 
ENDBRANCH  21  24
ENDBRANCH   6  20
TORSDOF 5
ENDMDL
MODEL 9
REMARK VINA RESULT:      -7.1      5.365      8.352
REMARK  5 active torsions:
REMARK  status: ('A' for Active; 'I' for Inactive)
REMARK    1  A    between atoms: C_2  and  C_3 
REMARK    2  A    between atoms: C_7  and  C_8 
REMARK       I    between atoms: C_8  and  N_9 
REMARK    3  A    between atoms: N_9  and  C_10 
REMARK    4  A    between atoms: C_15  and  N_16 
REMARK       I    between atoms: N_16  and  C_17 
REMARK    5  A    between atoms: C_17  and  C_18 
ROOT
HETATM    1  C   UNL     1      27.258  45.301  53.348  1.00  0.00     0.059 A 
HETATM    2  C   UNL     1      26.846  46.620  53.603  1.00  0.00     0.060 A 
HETATM    3 CL   UNL     1      25.452  47.351  52.884  1.00  0.00    -0.082 Cl
HETATM    4  C   UNL     1      27.467  47.357  54.618  1.00  0.00     0.028 A 
HETATM    5  C   UNL     1      28.463  46.785  55.413  1.00  0.00     0.031 A 
HETATM    6  C   UNL     1      28.839  45.458  55.221  1.00  0.00     0.036 A 
HETATM    7  C   UNL     1      28.231  44.726  54.188  1.00  0.00     0.060 A 
ENDROOT
BRANCH   1   8
HETATM    8  N   UNL     1      26.729  44.453  52.344  1.00  0.00    -0.320 N 
HETATM    9  C   UNL     1      25.507  43.810  52.388  1.00  0.00     0.274 C 
HETATM   10  O   UNL     1      24.632  44.025  53.218  1.00  0.00    -0.266 OA
HETATM   11  H   UNL     1      27.146  44.519  51.427  1.00  0.00     0.169 HD
BRANCH   9  12
HETATM   12  C   UNL     1      25.279  42.893  51.297  1.00  0.00     0.120 A 
HETATM   13  N   UNL     1      25.978  41.719  51.201  1.00  0.00    -0.273 N 
HETATM   14  N   UNL     1      25.653  40.972  50.135  1.00  0.00    -0.179 NA
HETATM   15  H   UNL     1      26.694  41.384  51.841  1.00  0.00     0.189 HD
HETATM   16  C   UNL     1      24.721  41.692  49.502  1.00  0.00     0.056 A 
HETATM   17  C   UNL     1      24.456  42.905  50.187  1.00  0.00     0.065 A 
BRANCH  16  18
HETATM   18  C   UNL     1      24.079  41.223  48.233  1.00  0.00     0.056 C 
HETATM   19  C   UNL     1      24.920  40.273  47.392  1.00  0.00     0.011 C 
ENDBRANCH  16  18
ENDBRANCH   9  12
ENDBRANCH   1   8
BRANCH   6  20
HETATM   20  N   UNL     1      29.795  44.788  56.016  1.00  0.00    -0.327 N 
HETATM   21  C   UNL     1      30.625  43.748  55.632  1.00  0.00     0.221 C 
HETATM   22  O   UNL     1      30.659  43.202  54.535  1.00  0.00    -0.273 OA
HETATM   23  H   UNL     1      29.907  45.126  56.963  1.00  0.00     0.169 HD
BRANCH  21  24
HETATM   24  C   UNL     1      31.561  43.306  56.742  1.00  0.00     0.098 C 
HETATM   25  C   UNL     1      31.487  44.234  57.939  1.00  0.00     0.014 C 
ENDBRANCH  21  24
ENDBRANCH   6  20
TORSDOF 5
ENDMDL
MODEL 10
REMARK VINA RESULT:      -7.1      6.567      9.252
REMARK  5 active torsions:
REMARK  status: ('A' for Active; 'I' for Inactive)
REMARK    1  A    between atoms: C_2  and  C_3 
REMARK    2  A    between atoms: C_7  and  C_8 
REMARK       I    between atoms: C_8  and  N_9 
REMARK    3  A    between atoms: N_9  and  C_10 
REMARK    4  A    between atoms: C_15  and  N_16 
REMARK       I    between atoms: N_16  and  C_17 
REMARK    5  A    between atoms: C_17  and  C_18 
ROOT
HETATM    1  C   UNL     1      28.530  42.941  52.345  1.00  0.00     0.059 A 
HETATM    2  C   UNL     1      27.567  43.959  52.236  1.00  0.00     0.060 A 
HETATM    3 CL   UNL     1      26.282  43.950  51.077  1.00  0.00    -0.082 Cl
HETATM    4  C   UNL     1      27.504  44.961  53.209  1.00  0.00     0.028 A 
HETATM    5  C   UNL     1      28.358  44.942  54.315  1.00  0.00     0.031 A 
HETATM    6  C   UNL     1      29.273  43.906  54.477  1.00  0.00     0.036 A 
HETATM    7  C   UNL     1      29.352  42.912  53.489  1.00  0.00     0.060 A 
ENDROOT
BRANCH   1   8
HETATM    8  N   UNL     1      28.714  41.879  51.424  1.00  0.00    -0.320 N 
HETATM    9  C   UNL     1      27.852  40.816  51.232  1.00  0.00     0.274 C 
HETATM   10  O   UNL     1      26.723  40.736  51.699  1.00  0.00    -0.266 OA
HETATM   11  H   UNL     1      29.380  42.032  50.681  1.00  0.00     0.169 HD
BRANCH   9  12
HETATM   12  C   UNL     1      28.353  39.802  50.334  1.00  0.00     0.120 A 
HETATM   13  N   UNL     1      29.284  38.887  50.749  1.00  0.00    -0.273 N 
HETATM   14  N   UNL     1      29.648  38.007  49.804  1.00  0.00    -0.179 NA
HETATM   15  H   UNL     1      29.706  38.825  51.672  1.00  0.00     0.189 HD
HETATM   16  C   UNL     1      28.943  38.372  48.728  1.00  0.00     0.056 A 
HETATM   17  C   UNL     1      28.121  39.493  49.009  1.00  0.00     0.065 A 
BRANCH  16  18
HETATM   18  C   UNL     1      29.053  37.649  47.422  1.00  0.00     0.056 C 
HETATM   19  C   UNL     1      28.162  38.181  46.308  1.00  0.00     0.011 C 
ENDBRANCH  16  18
ENDBRANCH   9  12
ENDBRANCH   1   8
BRANCH   6  20
HETATM   20  N   UNL     1      30.132  43.781  55.592  1.00  0.00    -0.327 N 
HETATM   21  C   UNL     1      30.515  44.778  56.474  1.00  0.00     0.221 C 
HETATM   22  O   UNL     1      30.195  45.961  56.427  1.00  0.00    -0.273 OA
HETATM   23  H   UNL     1      30.483  42.852  55.785  1.00  0.00     0.169 HD
BRANCH  21  24
HETATM   24  C   UNL     1      31.414  44.265  57.583  1.00  0.00     0.098 C 
HETATM   25  C   UNL     1      32.029  42.924  57.230  1.00  0.00     0.014 C 
ENDBRANCH  21  24
ENDBRANCH   6  20
TORSDOF 5
ENDMDL
