MODEL 1
REMARK VINA RESULT:      -7.8      0.000      0.000
REMARK  3 active torsions:
REMARK  status: ('A' for Active; 'I' for Inactive)
REMARK    1  A    between atoms: C_8  and  C_9 
REMARK    2  A    between atoms: C_16  and  O_17 
REMARK    3  A    between atoms: C_24  and  N_25 
ROOT
HETATM    1  C   UNL     1      30.601  48.289  41.693  1.00  0.00     0.073 C 
HETATM    2  C   UNL     1      29.973  48.774  40.439  1.00  0.00     0.062 A 
HETATM    3  N   UNL     1      29.432  47.903  39.569  1.00  0.00    -0.177 NA
HETATM    4  N   UNL     1      28.955  48.678  38.574  1.00  0.00    -0.256 N 
HETATM    5  H   UNL     1      28.483  48.237  37.792  1.00  0.00     0.191 HD
HETATM    6  C   UNL     1      29.177  50.000  38.786  1.00  0.00     0.175 A 
HETATM    7  C   UNL     1      29.848  50.105  39.976  1.00  0.00     0.034 A 
HETATM    8  C   UNL     1      30.223  51.448  40.505  1.00  0.00     0.106 A 
HETATM    9  C   UNL     1      29.700  52.551  39.577  1.00  0.00     0.081 A 
HETATM   10  C   UNL     1      29.897  53.894  40.011  1.00  0.00     0.100 C 
HETATM   11  N   UNL     1      30.054  54.992  40.354  1.00  0.00    -0.191 NA
HETATM   12  C   UNL     1      29.040  52.290  38.414  1.00  0.00     0.140 A 
HETATM   13  O   UNL     1      28.790  50.976  37.976  1.00  0.00    -0.279 OA
ENDROOT
BRANCH   8  14
HETATM   14  C   UNL     1      31.750  51.444  40.636  1.00  0.00    -0.033 A 
HETATM   15  C   UNL     1      32.418  51.591  41.892  1.00  0.00    -0.016 A 
HETATM   16  C   UNL     1      33.844  51.592  41.919  1.00  0.00     0.008 A 
HETATM   17  C   UNL     1      31.746  51.741  43.134  1.00  0.00     0.013 A 
HETATM   18  C   UNL     1      34.506  51.735  43.159  1.00  0.00     0.015 A 
HETATM   19  C   UNL     1      34.581  51.457  40.716  1.00  0.00     0.079 A 
HETATM   20  C   UNL     1      33.813  51.878  44.358  1.00  0.00     0.001 A 
HETATM   21  C   UNL     1      32.430  51.881  44.344  1.00  0.00     0.001 A 
HETATM   22  C   UNL     1      33.916  51.320  39.502  1.00  0.00     0.038 A 
HETATM   23  C   UNL     1      32.526  51.317  39.462  1.00  0.00     0.012 A 
BRANCH  19  24
HETATM   24  O   UNL     1      35.952  51.469  40.834  1.00  0.00    -0.355 OA
HETATM   25  C   UNL     1      36.715  50.873  39.794  1.00  0.00     0.210 C 
ENDBRANCH  19  24
ENDBRANCH   8  14
BRANCH  12  26
HETATM   26  N   UNL     1      28.546  53.239  37.548  1.00  0.00    -0.282 NA
HETATM   27  H   UNL     1      28.109  52.881  36.703  1.00  0.00     0.126 HD
HETATM   28  H   UNL     1      27.982  53.939  38.024  1.00  0.00     0.126 HD
ENDBRANCH  12  26
TORSDOF 3
ENDMDL
MODEL 2
REMARK VINA RESULT:      -7.6     11.828     14.000
REMARK  3 active torsions:
REMARK  status: ('A' for Active; 'I' for Inactive)
REMARK    1  A    between atoms: C_8  and  C_9 
REMARK    2  A    between atoms: C_16  and  O_17 
REMARK    3  A    between atoms: C_24  and  N_25 
ROOT
HETATM    1  C   UNL     1      27.564  48.498  49.592  1.00  0.00     0.073 C 
HETATM    2  C   UNL     1      26.115  48.341  49.322  1.00  0.00     0.062 A 
HETATM    3  N   UNL     1      25.414  49.347  48.770  1.00  0.00    -0.177 NA
HETATM    4  N   UNL     1      24.160  48.860  48.661  1.00  0.00    -0.256 N 
HETATM    5  H   UNL     1      23.441  49.446  48.253  1.00  0.00     0.191 HD
HETATM    6  C   UNL     1      24.050  47.589  49.124  1.00  0.00     0.175 A 
HETATM    7  C   UNL     1      25.290  47.220  49.576  1.00  0.00     0.034 A 
HETATM    8  C   UNL     1      25.504  45.854  50.133  1.00  0.00     0.106 A 
HETATM    9  C   UNL     1      24.214  45.031  50.039  1.00  0.00     0.081 A 
HETATM   10  C   UNL     1      24.298  43.667  50.443  1.00  0.00     0.100 C 
HETATM   11  N   UNL     1      24.355  42.555  50.770  1.00  0.00    -0.191 NA
HETATM   12  C   UNL     1      23.045  45.539  49.559  1.00  0.00     0.140 A 
HETATM   13  O   UNL     1      22.936  46.869  49.112  1.00  0.00    -0.279 OA
ENDROOT
BRANCH   8  14
HETATM   14  C   UNL     1      25.990  46.052  51.573  1.00  0.00    -0.033 A 
HETATM   15  C   UNL     1      26.976  45.211  52.178  1.00  0.00    -0.016 A 
HETATM   16  C   UNL     1      27.358  45.458  53.530  1.00  0.00     0.008 A 
HETATM   17  C   UNL     1      27.611  44.129  51.513  1.00  0.00     0.013 A 
HETATM   18  C   UNL     1      28.333  44.630  54.129  1.00  0.00     0.015 A 
HETATM   19  C   UNL     1      26.759  46.516  54.259  1.00  0.00     0.079 A 
HETATM   20  C   UNL     1      28.936  43.578  53.444  1.00  0.00     0.001 A 
HETATM   21  C   UNL     1      28.573  43.327  52.134  1.00  0.00     0.001 A 
HETATM   22  C   UNL     1      25.797  47.321  53.657  1.00  0.00     0.038 A 
HETATM   23  C   UNL     1      25.417  47.090  52.339  1.00  0.00     0.012 A 
BRANCH  19  24
HETATM   24  O   UNL     1      27.185  46.682  55.557  1.00  0.00    -0.355 OA
HETATM   25  C   UNL     1      26.929  47.930  56.187  1.00  0.00     0.210 C 
ENDBRANCH  19  24
ENDBRANCH   8  14
BRANCH  12  26
HETATM   26  N   UNL     1      21.860  44.845  49.448  1.00  0.00    -0.282 NA
HETATM   27  H   UNL     1      21.487  44.757  48.506  1.00  0.00     0.126 HD
HETATM   28  H   UNL     1      21.881  43.963  49.955  1.00  0.00     0.126 HD
ENDBRANCH  12  26
TORSDOF 3
ENDMDL
MODEL 3
REMARK VINA RESULT:      -7.6      2.896      6.109
REMARK  3 active torsions:
REMARK  status: ('A' for Active; 'I' for Inactive)
REMARK    1  A    between atoms: C_8  and  C_9 
REMARK    2  A    between atoms: C_16  and  O_17 
REMARK    3  A    between atoms: C_24  and  N_25 
ROOT
HETATM    1  C   UNL     1      32.032  48.608  42.593  1.00  0.00     0.073 C 
HETATM    2  C   UNL     1      31.771  50.063  42.723  1.00  0.00     0.062 A 
HETATM    3  N   UNL     1      32.131  50.720  43.840  1.00  0.00    -0.177 NA
HETATM    4  N   UNL     1      31.759  51.996  43.611  1.00  0.00    -0.256 N 
HETATM    5  H   UNL     1      31.943  52.695  44.321  1.00  0.00     0.191 HD
HETATM    6  C   UNL     1      31.180  52.162  42.395  1.00  0.00     0.175 A 
HETATM    7  C   UNL     1      31.153  50.932  41.793  1.00  0.00     0.034 A 
HETATM    8  C   UNL     1      30.589  50.784  40.421  1.00  0.00     0.106 A 
HETATM    9  C   UNL     1      30.161  52.150  39.872  1.00  0.00     0.081 A 
HETATM   10  C   UNL     1      29.696  52.175  38.524  1.00  0.00     0.100 C 
HETATM   11  N   UNL     1      29.314  52.207  37.429  1.00  0.00    -0.191 NA
HETATM   12  C   UNL     1      30.250  53.301  40.594  1.00  0.00     0.140 A 
HETATM   13  O   UNL     1      30.745  53.319  41.912  1.00  0.00    -0.279 OA
ENDROOT
BRANCH   8  14
HETATM   14  C   UNL     1      29.428  49.791  40.542  1.00  0.00    -0.033 A 
HETATM   15  C   UNL     1      29.447  48.501  39.926  1.00  0.00    -0.016 A 
HETATM   16  C   UNL     1      28.315  47.646  40.078  1.00  0.00     0.008 A 
HETATM   17  C   UNL     1      30.536  48.004  39.161  1.00  0.00     0.013 A 
HETATM   18  C   UNL     1      28.333  46.370  39.472  1.00  0.00     0.015 A 
HETATM   19  C   UNL     1      27.188  48.080  40.820  1.00  0.00     0.079 A 
HETATM   20  C   UNL     1      29.420  45.917  38.730  1.00  0.00     0.001 A 
HETATM   21  C   UNL     1      30.523  46.736  38.574  1.00  0.00     0.001 A 
HETATM   22  C   UNL     1      27.183  49.341  41.409  1.00  0.00     0.038 A 
HETATM   23  C   UNL     1      28.281  50.182  41.269  1.00  0.00     0.012 A 
BRANCH  19  24
HETATM   24  O   UNL     1      26.140  47.194  40.915  1.00  0.00    -0.355 OA
HETATM   25  C   UNL     1      24.840  47.662  40.583  1.00  0.00     0.210 C 
ENDBRANCH  19  24
ENDBRANCH   8  14
BRANCH  12  26
HETATM   26  N   UNL     1      29.886  54.552  40.149  1.00  0.00    -0.282 NA
HETATM   27  H   UNL     1      30.522  55.308  40.388  1.00  0.00     0.126 HD
HETATM   28  H   UNL     1      29.619  54.549  39.167  1.00  0.00     0.126 HD
ENDBRANCH  12  26
TORSDOF 3
ENDMDL
MODEL 4
REMARK VINA RESULT:      -7.4      1.753      1.888
REMARK  3 active torsions:
REMARK  status: ('A' for Active; 'I' for Inactive)
REMARK    1  A    between atoms: C_8  and  C_9 
REMARK    2  A    between atoms: C_16  and  O_17 
REMARK    3  A    between atoms: C_24  and  N_25 
ROOT
HETATM    1  C   UNL     1      31.749  47.258  40.675  1.00  0.00     0.073 C 
HETATM    2  C   UNL     1      30.636  47.518  39.729  1.00  0.00     0.062 A 
HETATM    3  N   UNL     1      30.342  46.626  38.766  1.00  0.00    -0.177 NA
HETATM    4  N   UNL     1      29.293  47.171  38.116  1.00  0.00    -0.256 N 
HETATM    5  H   UNL     1      28.880  46.665  37.341  1.00  0.00     0.191 HD
HETATM    6  C   UNL     1      28.920  48.369  38.634  1.00  0.00     0.175 A 
HETATM    7  C   UNL     1      29.774  48.638  39.672  1.00  0.00     0.034 A 
HETATM    8  C   UNL     1      29.610  49.888  40.468  1.00  0.00     0.106 A 
HETATM    9  C   UNL     1      28.389  50.675  39.978  1.00  0.00     0.081 A 
HETATM   10  C   UNL     1      28.049  51.846  40.717  1.00  0.00     0.100 C 
HETATM   11  N   UNL     1      27.765  52.802  41.310  1.00  0.00    -0.191 NA
HETATM   12  C   UNL     1      27.625  50.277  38.923  1.00  0.00     0.140 A 
HETATM   13  O   UNL     1      27.905  49.104  38.198  1.00  0.00    -0.279 OA
ENDROOT
BRANCH   8  14
HETATM   14  C   UNL     1      30.925  50.662  40.322  1.00  0.00    -0.033 A 
HETATM   15  C   UNL     1      31.772  50.962  41.434  1.00  0.00    -0.016 A 
HETATM   16  C   UNL     1      32.970  51.702  41.209  1.00  0.00     0.008 A 
HETATM   17  C   UNL     1      31.495  50.568  42.770  1.00  0.00     0.013 A 
HETATM   18  C   UNL     1      33.809  51.998  42.307  1.00  0.00     0.015 A 
HETATM   19  C   UNL     1      33.306  52.137  39.903  1.00  0.00     0.079 A 
HETATM   20  C   UNL     1      33.505  51.594  43.604  1.00  0.00     0.001 A 
HETATM   21  C   UNL     1      32.345  50.878  43.835  1.00  0.00     0.001 A 
HETATM   22  C   UNL     1      32.468  51.840  38.832  1.00  0.00     0.038 A 
HETATM   23  C   UNL     1      31.297  51.119  39.039  1.00  0.00     0.012 A 
BRANCH  19  24
HETATM   24  O   UNL     1      34.479  52.845  39.776  1.00  0.00    -0.355 OA
HETATM   25  C   UNL     1      35.599  52.182  39.207  1.00  0.00     0.210 C 
ENDBRANCH  19  24
ENDBRANCH   8  14
BRANCH  12  26
HETATM   26  N   UNL     1      26.517  50.942  38.446  1.00  0.00    -0.282 NA
HETATM   27  H   UNL     1      25.625  50.476  38.594  1.00  0.00     0.126 HD
HETATM   28  H   UNL     1      26.508  51.921  38.719  1.00  0.00     0.126 HD
ENDBRANCH  12  26
TORSDOF 3
ENDMDL
MODEL 5
REMARK VINA RESULT:      -7.4     12.167     14.474
REMARK  3 active torsions:
REMARK  status: ('A' for Active; 'I' for Inactive)
REMARK    1  A    between atoms: C_8  and  C_9 
REMARK    2  A    between atoms: C_16  and  O_17 
REMARK    3  A    between atoms: C_24  and  N_25 
ROOT
HETATM    1  C   UNL     1      28.422  43.021  53.337  1.00  0.00     0.073 C 
HETATM    2  C   UNL     1      28.164  42.143  52.170  1.00  0.00     0.062 A 
HETATM    3  N   UNL     1      29.099  41.270  51.757  1.00  0.00    -0.177 NA
HETATM    4  N   UNL     1      28.533  40.646  50.704  1.00  0.00    -0.256 N 
HETATM    5  H   UNL     1      29.054  39.921  50.225  1.00  0.00     0.191 HD
HETATM    6  C   UNL     1      27.279  41.096  50.442  1.00  0.00     0.175 A 
HETATM    7  C   UNL     1      27.007  42.077  51.358  1.00  0.00     0.034 A 
HETATM    8  C   UNL     1      25.683  42.763  51.347  1.00  0.00     0.106 A 
HETATM    9  C   UNL     1      24.780  42.158  50.265  1.00  0.00     0.081 A 
HETATM   10  C   UNL     1      23.443  42.649  50.207  1.00  0.00     0.100 C 
HETATM   11  N   UNL     1      22.352  43.042  50.149  1.00  0.00    -0.191 NA
HETATM   12  C   UNL     1      25.193  41.174  49.420  1.00  0.00     0.140 A 
HETATM   13  O   UNL     1      26.492  40.636  49.477  1.00  0.00    -0.279 OA
ENDROOT
BRANCH   8  14
HETATM   14  C   UNL     1      25.975  44.251  51.127  1.00  0.00    -0.033 A 
HETATM   15  C   UNL     1      25.963  45.206  52.191  1.00  0.00    -0.016 A 
HETATM   16  C   UNL     1      26.230  46.575  51.893  1.00  0.00     0.008 A 
HETATM   17  C   UNL     1      25.697  44.878  53.547  1.00  0.00     0.013 A 
HETATM   18  C   UNL     1      26.221  47.520  52.943  1.00  0.00     0.015 A 
HETATM   19  C   UNL     1      26.495  46.976  50.559  1.00  0.00     0.079 A 
HETATM   20  C   UNL     1      25.957  47.161  54.262  1.00  0.00     0.001 A 
HETATM   21  C   UNL     1      25.695  45.837  54.564  1.00  0.00     0.001 A 
HETATM   22  C   UNL     1      26.498  46.035  49.535  1.00  0.00     0.038 A 
HETATM   23  C   UNL     1      26.239  44.698  49.813  1.00  0.00     0.012 A 
BRANCH  19  24
HETATM   24  O   UNL     1      26.741  48.316  50.361  1.00  0.00    -0.355 OA
HETATM   25  C   UNL     1      27.436  48.698  49.182  1.00  0.00     0.210 C 
ENDBRANCH  19  24
ENDBRANCH   8  14
BRANCH  12  26
HETATM   26  N   UNL     1      24.424  40.593  48.436  1.00  0.00    -0.282 NA
HETATM   27  H   UNL     1      24.910  39.949  47.818  1.00  0.00     0.126 HD
HETATM   28  H   UNL     1      23.552  40.216  48.801  1.00  0.00     0.126 HD
ENDBRANCH  12  26
TORSDOF 3
ENDMDL
MODEL 6
REMARK VINA RESULT:      -7.2     13.471     15.500
REMARK  3 active torsions:
REMARK  status: ('A' for Active; 'I' for Inactive)
REMARK    1  A    between atoms: C_8  and  C_9 
REMARK    2  A    between atoms: C_16  and  O_17 
REMARK    3  A    between atoms: C_24  and  N_25 
ROOT
HETATM    1  C   UNL     1      16.926  47.226  46.417  1.00  0.00     0.073 C 
HETATM    2  C   UNL     1      17.916  46.565  47.301  1.00  0.00     0.062 A 
HETATM    3  N   UNL     1      17.630  45.384  47.877  1.00  0.00    -0.177 NA
HETATM    4  N   UNL     1      18.737  45.081  48.586  1.00  0.00    -0.256 N 
HETATM    5  H   UNL     1      18.763  44.212  49.108  1.00  0.00     0.191 HD
HETATM    6  C   UNL     1      19.704  46.026  48.477  1.00  0.00     0.175 A 
HETATM    7  C   UNL     1      19.208  47.013  47.665  1.00  0.00     0.034 A 
HETATM    8  C   UNL     1      20.049  48.197  47.330  1.00  0.00     0.106 A 
HETATM    9  C   UNL     1      21.442  48.055  47.957  1.00  0.00     0.081 A 
HETATM   10  C   UNL     1      22.390  49.070  47.635  1.00  0.00     0.100 C 
HETATM   11  N   UNL     1      23.170  49.891  47.381  1.00  0.00    -0.191 NA
HETATM   12  C   UNL     1      21.795  47.005  48.748  1.00  0.00     0.140 A 
HETATM   13  O   UNL     1      20.898  45.964  49.053  1.00  0.00    -0.279 OA
ENDROOT
BRANCH   8  14
HETATM   14  C   UNL     1      19.282  49.423  47.836  1.00  0.00    -0.033 A 
HETATM   15  C   UNL     1      18.656  50.360  46.956  1.00  0.00    -0.016 A 
HETATM   16  C   UNL     1      17.975  51.483  47.513  1.00  0.00     0.008 A 
HETATM   17  C   UNL     1      18.667  50.247  45.541  1.00  0.00     0.013 A 
HETATM   18  C   UNL     1      17.355  52.409  46.645  1.00  0.00     0.015 A 
HETATM   19  C   UNL     1      17.932  51.665  48.919  1.00  0.00     0.079 A 
HETATM   20  C   UNL     1      17.385  52.264  45.261  1.00  0.00     0.001 A 
HETATM   21  C   UNL     1      18.044  51.181  44.708  1.00  0.00     0.001 A 
HETATM   22  C   UNL     1      18.550  50.747  49.761  1.00  0.00     0.038 A 
HETATM   23  C   UNL     1      19.216  49.648  49.229  1.00  0.00     0.012 A 
BRANCH  19  24
HETATM   24  O   UNL     1      17.255  52.775  49.371  1.00  0.00    -0.355 OA
HETATM   25  C   UNL     1      16.016  52.574  50.037  1.00  0.00     0.210 C 
ENDBRANCH  19  24
ENDBRANCH   8  14
BRANCH  12  26
HETATM   26  N   UNL     1      23.030  46.826  49.332  1.00  0.00    -0.282 NA
HETATM   27  H   UNL     1      23.082  46.096  50.037  1.00  0.00     0.126 HD
HETATM   28  H   UNL     1      23.777  46.772  48.643  1.00  0.00     0.126 HD
ENDBRANCH  12  26
TORSDOF 3
ENDMDL
MODEL 7
REMARK VINA RESULT:      -6.9     12.835     14.333
REMARK  3 active torsions:
REMARK  status: ('A' for Active; 'I' for Inactive)
REMARK    1  A    between atoms: C_8  and  C_9 
REMARK    2  A    between atoms: C_16  and  O_17 
REMARK    3  A    between atoms: C_24  and  N_25 
ROOT
HETATM    1  C   UNL     1      19.544  47.203  45.506  1.00  0.00     0.073 C 
HETATM    2  C   UNL     1      18.827  48.447  45.876  1.00  0.00     0.062 A 
HETATM    3  N   UNL     1      18.271  49.219  44.926  1.00  0.00    -0.177 NA
HETATM    4  N   UNL     1      17.707  50.237  45.609  1.00  0.00    -0.256 N 
HETATM    5  H   UNL     1      17.208  50.955  45.097  1.00  0.00     0.191 HD
HETATM    6  C   UNL     1      17.889  50.131  46.950  1.00  0.00     0.175 A 
HETATM    7  C   UNL     1      18.623  48.994  47.165  1.00  0.00     0.034 A 
HETATM    8  C   UNL     1      18.976  48.585  48.555  1.00  0.00     0.106 A 
HETATM    9  C   UNL     1      18.357  49.555  49.568  1.00  0.00     0.081 A 
HETATM   10  C   UNL     1      18.526  49.229  50.946  1.00  0.00     0.100 C 
HETATM   11  N   UNL     1      18.660  48.974  52.070  1.00  0.00    -0.191 NA
HETATM   12  C   UNL     1      17.642  50.654  49.202  1.00  0.00     0.140 A 
HETATM   13  O   UNL     1      17.418  50.983  47.851  1.00  0.00    -0.279 OA
ENDROOT
BRANCH   8  14
HETATM   14  C   UNL     1      20.507  48.547  48.613  1.00  0.00    -0.033 A 
HETATM   15  C   UNL     1      21.246  47.325  48.683  1.00  0.00    -0.016 A 
HETATM   16  C   UNL     1      22.670  47.383  48.751  1.00  0.00     0.008 A 
HETATM   17  C   UNL     1      20.650  46.036  48.691  1.00  0.00     0.013 A 
HETATM   18  C   UNL     1      23.403  46.177  48.818  1.00  0.00     0.015 A 
HETATM   19  C   UNL     1      23.333  48.636  48.757  1.00  0.00     0.079 A 
HETATM   20  C   UNL     1      22.782  44.931  48.822  1.00  0.00     0.001 A 
HETATM   21  C   UNL     1      21.403  44.861  48.759  1.00  0.00     0.001 A 
HETATM   22  C   UNL     1      22.598  49.815  48.693  1.00  0.00     0.038 A 
HETATM   23  C   UNL     1      21.210  49.771  48.627  1.00  0.00     0.012 A 
BRANCH  19  24
HETATM   24  O   UNL     1      24.708  48.600  48.825  1.00  0.00    -0.355 OA
HETATM   25  C   UNL     1      25.427  49.738  48.372  1.00  0.00     0.210 C 
ENDBRANCH  19  24
ENDBRANCH   8  14
BRANCH  12  26
HETATM   26  N   UNL     1      17.061  51.554  50.068  1.00  0.00    -0.282 NA
HETATM   27  H   UNL     1      16.120  51.853  49.828  1.00  0.00     0.126 HD
HETATM   28  H   UNL     1      17.155  51.268  51.040  1.00  0.00     0.126 HD
ENDBRANCH  12  26
TORSDOF 3
ENDMDL
MODEL 8
REMARK VINA RESULT:      -6.8     12.384     15.191
REMARK  3 active torsions:
REMARK  status: ('A' for Active; 'I' for Inactive)
REMARK    1  A    between atoms: C_8  and  C_9 
REMARK    2  A    between atoms: C_16  and  O_17 
REMARK    3  A    between atoms: C_24  and  N_25 
ROOT
HETATM    1  C   UNL     1      26.204  44.029  54.333  1.00  0.00     0.073 C 
HETATM    2  C   UNL     1      27.314  43.142  53.906  1.00  0.00     0.062 A 
HETATM    3  N   UNL     1      28.411  43.011  54.672  1.00  0.00    -0.177 NA
HETATM    4  N   UNL     1      29.188  42.139  53.996  1.00  0.00    -0.256 N 
HETATM    5  H   UNL     1      30.082  41.870  54.391  1.00  0.00     0.191 HD
HETATM    6  C   UNL     1      28.619  41.721  52.837  1.00  0.00     0.175 A 
HETATM    7  C   UNL     1      27.411  42.358  52.732  1.00  0.00     0.034 A 
HETATM    8  C   UNL     1      26.525  42.090  51.564  1.00  0.00     0.106 A 
HETATM    9  C   UNL     1      27.151  41.028  50.653  1.00  0.00     0.081 A 
HETATM   10  C   UNL     1      26.365  40.596  49.545  1.00  0.00     0.100 C 
HETATM   11  N   UNL     1      25.734  40.238  48.639  1.00  0.00    -0.191 NA
HETATM   12  C   UNL     1      28.374  40.476  50.889  1.00  0.00     0.140 A 
HETATM   13  O   UNL     1      29.159  40.847  51.997  1.00  0.00    -0.279 OA
ENDROOT
BRANCH   8  14
HETATM   14  C   UNL     1      26.320  43.439  50.865  1.00  0.00    -0.033 A 
HETATM   15  C   UNL     1      25.051  43.863  50.360  1.00  0.00    -0.016 A 
HETATM   16  C   UNL     1      24.955  45.128  49.709  1.00  0.00     0.008 A 
HETATM   17  C   UNL     1      23.861  43.096  50.464  1.00  0.00     0.013 A 
HETATM   18  C   UNL     1      23.702  45.549  49.212  1.00  0.00     0.015 A 
HETATM   19  C   UNL     1      26.105  45.943  49.561  1.00  0.00     0.079 A 
HETATM   20  C   UNL     1      22.555  44.770  49.333  1.00  0.00     0.001 A 
HETATM   21  C   UNL     1      22.635  43.541  49.961  1.00  0.00     0.001 A 
HETATM   22  C   UNL     1      27.334  45.514  50.053  1.00  0.00     0.038 A 
HETATM   23  C   UNL     1      27.439  44.282  50.690  1.00  0.00     0.012 A 
BRANCH  19  24
HETATM   24  O   UNL     1      25.923  47.147  48.919  1.00  0.00    -0.355 OA
HETATM   25  C   UNL     1      26.361  48.327  49.580  1.00  0.00     0.210 C 
ENDBRANCH  19  24
ENDBRANCH   8  14
BRANCH  12  26
HETATM   26  N   UNL     1      28.980  39.517  50.109  1.00  0.00    -0.282 NA
HETATM   27  H   UNL     1      28.714  38.556  50.305  1.00  0.00     0.126 HD
HETATM   28  H   UNL     1      28.947  39.748  49.119  1.00  0.00     0.126 HD
ENDBRANCH  12  26
TORSDOF 3
ENDMDL
MODEL 9
REMARK VINA RESULT:      -6.8     13.703     15.744
REMARK  3 active torsions:
REMARK  status: ('A' for Active; 'I' for Inactive)
REMARK    1  A    between atoms: C_8  and  C_9 
REMARK    2  A    between atoms: C_16  and  O_17 
REMARK    3  A    between atoms: C_24  and  N_25 
ROOT
HETATM    1  C   UNL     1      21.550  51.250  48.740  1.00  0.00     0.073 C 
HETATM    2  C   UNL     1      21.669  49.786  48.530  1.00  0.00     0.062 A 
HETATM    3  N   UNL     1      22.872  49.226  48.315  1.00  0.00    -0.177 NA
HETATM    4  N   UNL     1      22.610  47.910  48.181  1.00  0.00    -0.256 N 
HETATM    5  H   UNL     1      23.379  47.270  48.020  1.00  0.00     0.191 HD
HETATM    6  C   UNL     1      21.288  47.625  48.302  1.00  0.00     0.175 A 
HETATM    7  C   UNL     1      20.641  48.814  48.514  1.00  0.00     0.034 A 
HETATM    8  C   UNL     1      19.163  48.835  48.710  1.00  0.00     0.106 A 
HETATM    9  C   UNL     1      18.604  47.407  48.694  1.00  0.00     0.081 A 
HETATM   10  C   UNL     1      17.213  47.266  48.973  1.00  0.00     0.100 C 
HETATM   11  N   UNL     1      16.081  47.140  49.197  1.00  0.00    -0.191 NA
HETATM   12  C   UNL     1      19.379  46.310  48.472  1.00  0.00     0.140 A 
HETATM   13  O   UNL     1      20.763  46.408  48.235  1.00  0.00    -0.279 OA
ENDROOT
BRANCH   8  14
HETATM   14  C   UNL     1      18.597  49.717  47.593  1.00  0.00    -0.033 A 
HETATM   15  C   UNL     1      17.555  50.672  47.815  1.00  0.00    -0.016 A 
HETATM   16  C   UNL     1      17.076  51.440  46.713  1.00  0.00     0.008 A 
HETATM   17  C   UNL     1      16.955  50.909  49.080  1.00  0.00     0.013 A 
HETATM   18  C   UNL     1      16.049  52.385  46.932  1.00  0.00     0.015 A 
HETATM   19  C   UNL     1      17.623  51.249  45.419  1.00  0.00     0.079 A 
HETATM   20  C   UNL     1      15.485  52.592  48.187  1.00  0.00     0.001 A 
HETATM   21  C   UNL     1      15.940  51.852  49.263  1.00  0.00     0.001 A 
HETATM   22  C   UNL     1      18.632  50.313  45.219  1.00  0.00     0.038 A 
HETATM   23  C   UNL     1      19.107  49.558  46.286  1.00  0.00     0.012 A 
BRANCH  19  24
HETATM   24  O   UNL     1      17.102  52.032  44.414  1.00  0.00    -0.355 OA
HETATM   25  C   UNL     1      17.483  51.739  43.077  1.00  0.00     0.210 C 
ENDBRANCH  19  24
ENDBRANCH   8  14
BRANCH  12  26
HETATM   26  N   UNL     1      18.931  45.008  48.451  1.00  0.00    -0.282 NA
HETATM   27  H   UNL     1      19.620  44.300  48.689  1.00  0.00     0.126 HD
HETATM   28  H   UNL     1      18.052  44.895  48.951  1.00  0.00     0.126 HD
ENDBRANCH  12  26
TORSDOF 3
ENDMDL
MODEL 10
REMARK VINA RESULT:      -6.7     14.257     16.260
REMARK  3 active torsions:
REMARK  status: ('A' for Active; 'I' for Inactive)
REMARK    1  A    between atoms: C_8  and  C_9 
REMARK    2  A    between atoms: C_16  and  O_17 
REMARK    3  A    between atoms: C_24  and  N_25 
ROOT
HETATM    1  C   UNL     1      19.060  52.433  48.873  1.00  0.00     0.073 C 
HETATM    2  C   UNL     1      19.238  50.979  49.103  1.00  0.00     0.062 A 
HETATM    3  N   UNL     1      20.297  50.526  49.798  1.00  0.00    -0.177 NA
HETATM    4  N   UNL     1      20.134  49.187  49.821  1.00  0.00    -0.256 N 
HETATM    5  H   UNL     1      20.817  48.619  50.309  1.00  0.00     0.191 HD
HETATM    6  C   UNL     1      19.016  48.785  49.166  1.00  0.00     0.175 A 
HETATM    7  C   UNL     1      18.414  49.912  48.673  1.00  0.00     0.034 A 
HETATM    8  C   UNL     1      17.136  49.805  47.912  1.00  0.00     0.106 A 
HETATM    9  C   UNL     1      16.665  48.346  47.868  1.00  0.00     0.081 A 
HETATM   10  C   UNL     1      15.399  48.106  47.258  1.00  0.00     0.100 C 
HETATM   11  N   UNL     1      14.370  47.898  46.763  1.00  0.00    -0.191 NA
HETATM   12  C   UNL     1      17.376  47.320  48.411  1.00  0.00     0.140 A 
HETATM   13  O   UNL     1      18.610  47.526  49.057  1.00  0.00    -0.279 OA
ENDROOT
BRANCH   8  14
HETATM   14  C   UNL     1      17.414  50.392  46.524  1.00  0.00    -0.033 A 
HETATM   15  C   UNL     1      16.696  51.512  46.002  1.00  0.00    -0.016 A 
HETATM   16  C   UNL     1      17.009  51.983  44.692  1.00  0.00     0.008 A 
HETATM   17  C   UNL     1      15.673  52.198  46.709  1.00  0.00     0.013 A 
HETATM   18  C   UNL     1      16.302  53.091  44.175  1.00  0.00     0.015 A 
HETATM   19  C   UNL     1      18.012  51.341  43.924  1.00  0.00     0.079 A 
HETATM   20  C   UNL     1      15.306  53.740  44.900  1.00  0.00     0.001 A 
HETATM   21  C   UNL     1      14.991  53.292  46.169  1.00  0.00     0.001 A 
HETATM   22  C   UNL     1      18.699  50.249  44.446  1.00  0.00     0.038 A 
HETATM   23  C   UNL     1      18.402  49.781  45.721  1.00  0.00     0.012 A 
BRANCH  19  24
HETATM   24  O   UNL     1      18.250  51.860  42.672  1.00  0.00    -0.355 OA
HETATM   25  C   UNL     1      19.089  51.122  41.793  1.00  0.00     0.210 C 
ENDBRANCH  19  24
ENDBRANCH   8  14
BRANCH  12  26
HETATM   26  N   UNL     1      16.999  45.996  48.403  1.00  0.00    -0.282 NA
HETATM   27  H   UNL     1      17.750  45.324  48.271  1.00  0.00     0.126 HD
HETATM   28  H   UNL     1      16.388  45.765  49.183  1.00  0.00     0.126 HD
ENDBRANCH  12  26
TORSDOF 3
ENDMDL
