MODEL 1
REMARK VINA RESULT:      -9.1      0.000      0.000
REMARK  12 active torsions:
REMARK  status: ('A' for Active; 'I' for Inactive)
REMARK    1  A    between atoms: C_2  and  N_3 
REMARK    2  A    between atoms: N_3  and  C_5 
REMARK    3  A    between atoms: N_3  and  C_37 
REMARK    4  A    between atoms: C_5  and  C_6 
REMARK    5  A    between atoms: N_7  and  C_8 
REMARK    6  A    between atoms: C_12  and  N_13 
REMARK    7  A    between atoms: C_16  and  C_17 
REMARK       I    between atoms: C_17  and  N_18 
REMARK    8  A    between atoms: N_18  and  N_19 
REMARK    9  A    between atoms: C_20  and  C_21 
REMARK   10  A    between atoms: C_23  and  C_24 
REMARK   11  A    between atoms: C_28  and  O_29 
REMARK   12  A    between atoms: C_30  and  C_31 
ROOT
HETATM    1  C   UNL     1      26.318  46.128  54.016  1.00  0.00     0.293 C 
HETATM    2  N   UNL     1      26.360  47.200  53.146  1.00  0.00    -0.242 N 
HETATM    3  O   UNL     1      25.404  45.310  54.103  1.00  0.00    -0.264 OA
HETATM    4  H   UNL     1      27.156  47.832  53.132  1.00  0.00     0.192 HD
ENDROOT
BRANCH   1   5
HETATM    5  C   UNL     1      27.475  46.014  54.892  1.00  0.00     0.170 A 
HETATM    6  C   UNL     1      28.486  45.068  54.800  1.00  0.00     0.096 A 
HETATM    7  N   UNL     1      29.288  45.311  55.911  1.00  0.00    -0.215 N 
HETATM    8  N   UNL     1      28.831  46.427  56.540  1.00  0.00     0.012 NA
HETATM    9  N   UNL     1      27.721  46.839  55.949  1.00  0.00    -0.152 NA
BRANCH   6  10
HETATM   10  C   UNL     1      28.762  44.077  53.731  1.00  0.00     0.296 C 
BRANCH  10  11
HETATM   11  N   UNL     1      27.737  42.971  53.550  1.00  0.00    -0.066 N 
HETATM   12  H   UNL     1      26.981  43.163  54.225  1.00  0.00     0.280 HD
BRANCH  11  13
HETATM   13  C   UNL     1      28.332  41.614  53.905  1.00  0.00     0.231 C 
HETATM   14  C   UNL     1      28.830  40.886  52.671  1.00  0.00     0.034 C 
ENDBRANCH  11  13
BRANCH  11  15
HETATM   15  C   UNL     1      27.136  42.957  52.151  1.00  0.00     0.231 C 
HETATM   16  C   UNL     1      27.700  44.087  51.304  1.00  0.00     0.034 C 
ENDBRANCH  11  15
ENDBRANCH  10  11
ENDBRANCH   6  10
BRANCH   7  17
HETATM   17  C   UNL     1      30.370  44.545  56.401  1.00  0.00     0.225 A 
HETATM   18  N   UNL     1      30.865  43.545  55.664  1.00  0.00    -0.081 NA
HETATM   19  O   UNL     1      31.882  43.018  56.467  1.00  0.00    -0.103 OA
HETATM   20  N   UNL     1      31.963  43.687  57.679  1.00  0.00    -0.083 NA
HETATM   21  C   UNL     1      31.024  44.631  57.641  1.00  0.00     0.201 A 
BRANCH  21  22
HETATM   22  N   UNL     1      30.778  45.502  58.632  1.00  0.00    -0.379 N 
HETATM   23  H   UNL     1      30.251  45.210  59.452  1.00  0.00     0.158 HD
HETATM   24  H   UNL     1      30.921  46.507  58.554  1.00  0.00     0.158 HD
ENDBRANCH  21  22
ENDBRANCH   7  17
ENDBRANCH   1   5
BRANCH   2  25
HETATM   25  N   UNL     1      25.317  47.390  52.296  1.00  0.00    -0.184 NA
HETATM   26  C   UNL     1      25.484  47.013  51.069  1.00  0.00     0.150 C 
BRANCH  26  27
HETATM   27  C   UNL     1      24.400  47.173  50.075  1.00  0.00    -0.016 A 
HETATM   28  C   UNL     1      23.896  48.445  49.784  1.00  0.00     0.023 A 
HETATM   29  C   UNL     1      22.861  48.644  48.851  1.00  0.00    -0.016 A 
HETATM   30  C   UNL     1      22.346  47.472  48.234  1.00  0.00     0.079 A 
HETATM   31  C   UNL     1      22.836  46.160  48.512  1.00  0.00    -0.016 A 
HETATM   32  C   UNL     1      23.883  46.047  49.443  1.00  0.00     0.023 A 
BRANCH  29  33
HETATM   33  C   UNL     1      22.367  50.088  48.567  1.00  0.00    -0.021 C 
HETATM   34  C   UNL     1      21.068  50.152  47.710  1.00  0.00     0.019 C 
HETATM   35  C   UNL     1      22.012  50.818  49.881  1.00  0.00     0.019 C 
HETATM   36  C   UNL     1      23.423  50.875  47.756  1.00  0.00     0.019 C 
ENDBRANCH  29  33
BRANCH  30  37
HETATM   37  O   UNL     1      21.332  47.530  47.319  1.00  0.00    -0.360 OA
HETATM   38  H   UNL     1      20.604  46.946  47.556  1.00  0.00     0.217 HD
ENDBRANCH  30  37
BRANCH  31  39
HETATM   39  C   UNL     1      22.240  44.892  47.840  1.00  0.00    -0.021 C 
HETATM   40  C   UNL     1      20.715  44.809  48.076  1.00  0.00     0.019 C 
HETATM   41  C   UNL     1      22.434  44.854  46.300  1.00  0.00     0.019 C 
HETATM   42  C   UNL     1      22.931  43.620  48.383  1.00  0.00     0.019 C 
ENDBRANCH  31  39
ENDBRANCH  26  27
ENDBRANCH   2  25
TORSDOF 12
ENDMDL
MODEL 2
REMARK VINA RESULT:      -8.9      0.623      3.251
REMARK  12 active torsions:
REMARK  status: ('A' for Active; 'I' for Inactive)
REMARK    1  A    between atoms: C_2  and  N_3 
REMARK    2  A    between atoms: N_3  and  C_5 
REMARK    3  A    between atoms: N_3  and  C_37 
REMARK    4  A    between atoms: C_5  and  C_6 
REMARK    5  A    between atoms: N_7  and  C_8 
REMARK    6  A    between atoms: C_12  and  N_13 
REMARK    7  A    between atoms: C_16  and  C_17 
REMARK       I    between atoms: C_17  and  N_18 
REMARK    8  A    between atoms: N_18  and  N_19 
REMARK    9  A    between atoms: C_20  and  C_21 
REMARK   10  A    between atoms: C_23  and  C_24 
REMARK   11  A    between atoms: C_28  and  O_29 
REMARK   12  A    between atoms: C_30  and  C_31 
ROOT
HETATM    1  C   UNL     1      26.331  46.345  53.902  1.00  0.00     0.293 C 
HETATM    2  N   UNL     1      26.383  47.049  52.714  1.00  0.00    -0.242 N 
HETATM    3  O   UNL     1      25.322  45.844  54.395  1.00  0.00    -0.264 OA
HETATM    4  H   UNL     1      27.260  47.430  52.370  1.00  0.00     0.192 HD
ENDROOT
BRANCH   1   5
HETATM    5  C   UNL     1      27.607  46.230  54.593  1.00  0.00     0.170 A 
HETATM    6  C   UNL     1      28.308  45.057  54.836  1.00  0.00     0.096 A 
HETATM    7  N   UNL     1      29.393  45.458  55.608  1.00  0.00    -0.215 N 
HETATM    8  N   UNL     1      29.386  46.815  55.696  1.00  0.00     0.012 NA
HETATM    9  N   UNL     1      28.296  47.285  55.112  1.00  0.00    -0.152 NA
BRANCH   6  10
HETATM   10  C   UNL     1      28.066  43.685  54.324  1.00  0.00     0.296 C 
BRANCH  10  11
HETATM   11  N   UNL     1      28.361  43.448  52.854  1.00  0.00    -0.066 N 
HETATM   12  H   UNL     1      28.799  44.314  52.502  1.00  0.00     0.280 HD
BRANCH  11  13
HETATM   13  C   UNL     1      27.072  43.237  52.067  1.00  0.00     0.231 C 
HETATM   14  C   UNL     1      27.161  43.849  50.682  1.00  0.00     0.034 C 
ENDBRANCH  11  13
BRANCH  11  15
HETATM   15  C   UNL     1      29.333  42.297  52.634  1.00  0.00     0.231 C 
HETATM   16  C   UNL     1      28.659  40.958  52.892  1.00  0.00     0.034 C 
ENDBRANCH  11  15
ENDBRANCH  10  11
ENDBRANCH   6  10
BRANCH   7  17
HETATM   17  C   UNL     1      30.348  44.653  56.272  1.00  0.00     0.225 A 
HETATM   18  N   UNL     1      30.836  43.566  55.667  1.00  0.00    -0.081 NA
HETATM   19  O   UNL     1      31.712  43.028  56.616  1.00  0.00    -0.103 OA
HETATM   20  N   UNL     1      31.714  43.780  57.781  1.00  0.00    -0.083 NA
HETATM   21  C   UNL     1      30.867  44.786  57.570  1.00  0.00     0.201 A 
BRANCH  21  22
HETATM   22  N   UNL     1      30.586  45.746  58.464  1.00  0.00    -0.379 N 
HETATM   23  H   UNL     1      30.811  45.613  59.448  1.00  0.00     0.158 HD
HETATM   24  H   UNL     1      29.986  46.546  58.271  1.00  0.00     0.158 HD
ENDBRANCH  21  22
ENDBRANCH   7  17
ENDBRANCH   1   5
BRANCH   2  25
HETATM   25  N   UNL     1      25.235  47.213  52.005  1.00  0.00    -0.184 NA
HETATM   26  C   UNL     1      25.332  47.171  50.714  1.00  0.00     0.150 C 
BRANCH  26  27
HETATM   27  C   UNL     1      24.135  47.332  49.861  1.00  0.00    -0.016 A 
HETATM   28  C   UNL     1      23.583  46.227  49.207  1.00  0.00     0.023 A 
HETATM   29  C   UNL     1      22.449  46.336  48.380  1.00  0.00    -0.016 A 
HETATM   30  C   UNL     1      21.908  47.641  48.236  1.00  0.00     0.079 A 
HETATM   31  C   UNL     1      22.449  48.791  48.887  1.00  0.00    -0.016 A 
HETATM   32  C   UNL     1      23.573  48.596  49.710  1.00  0.00     0.023 A 
BRANCH  29  33
HETATM   33  C   UNL     1      21.882  45.059  47.703  1.00  0.00    -0.021 C 
HETATM   34  C   UNL     1      21.964  45.083  46.147  1.00  0.00     0.019 C 
HETATM   35  C   UNL     1      22.687  43.809  48.123  1.00  0.00     0.019 C 
HETATM   36  C   UNL     1      20.379  44.893  48.024  1.00  0.00     0.019 C 
ENDBRANCH  29  33
BRANCH  30  37
HETATM   37  O   UNL     1      20.813  47.881  47.452  1.00  0.00    -0.360 OA
HETATM   38  H   UNL     1      20.355  47.066  47.220  1.00  0.00     0.217 HD
ENDBRANCH  30  37
BRANCH  31  39
HETATM   39  C   UNL     1      21.852  50.212  48.695  1.00  0.00    -0.021 C 
HETATM   40  C   UNL     1      22.971  51.274  48.616  1.00  0.00     0.019 C 
HETATM   41  C   UNL     1      21.026  50.369  47.389  1.00  0.00     0.019 C 
HETATM   42  C   UNL     1      20.881  50.549  49.850  1.00  0.00     0.019 C 
ENDBRANCH  31  39
ENDBRANCH  26  27
ENDBRANCH   2  25
TORSDOF 12
ENDMDL
MODEL 3
REMARK VINA RESULT:      -8.8      4.946     10.618
REMARK  12 active torsions:
REMARK  status: ('A' for Active; 'I' for Inactive)
REMARK    1  A    between atoms: C_2  and  N_3 
REMARK    2  A    between atoms: N_3  and  C_5 
REMARK    3  A    between atoms: N_3  and  C_37 
REMARK    4  A    between atoms: C_5  and  C_6 
REMARK    5  A    between atoms: N_7  and  C_8 
REMARK    6  A    between atoms: C_12  and  N_13 
REMARK    7  A    between atoms: C_16  and  C_17 
REMARK       I    between atoms: C_17  and  N_18 
REMARK    8  A    between atoms: N_18  and  N_19 
REMARK    9  A    between atoms: C_20  and  C_21 
REMARK   10  A    between atoms: C_23  and  C_24 
REMARK   11  A    between atoms: C_28  and  O_29 
REMARK   12  A    between atoms: C_30  and  C_31 
ROOT
HETATM    1  C   UNL     1      21.607  45.045  48.257  1.00  0.00     0.293 C 
HETATM    2  N   UNL     1      22.274  44.786  49.438  1.00  0.00    -0.242 N 
HETATM    3  O   UNL     1      21.922  44.622  47.146  1.00  0.00    -0.264 OA
HETATM    4  H   UNL     1      21.946  45.171  50.319  1.00  0.00     0.192 HD
ENDROOT
BRANCH   1   5
HETATM    5  C   UNL     1      20.445  45.910  48.396  1.00  0.00     0.170 A 
HETATM    6  C   UNL     1      20.457  47.295  48.493  1.00  0.00     0.096 A 
HETATM    7  N   UNL     1      19.127  47.637  48.715  1.00  0.00    -0.215 N 
HETATM    8  N   UNL     1      18.368  46.513  48.620  1.00  0.00     0.012 NA
HETATM    9  N   UNL     1      19.158  45.464  48.458  1.00  0.00    -0.152 NA
BRANCH   6  10
HETATM   10  C   UNL     1      21.579  48.248  48.302  1.00  0.00     0.296 C 
BRANCH  10  11
HETATM   11  N   UNL     1      22.304  48.702  49.556  1.00  0.00    -0.066 N 
HETATM   12  H   UNL     1      21.746  48.360  50.354  1.00  0.00     0.280 HD
BRANCH  11  13
HETATM   13  C   UNL     1      22.340  50.223  49.643  1.00  0.00     0.231 C 
HETATM   14  C   UNL     1      21.608  50.864  48.480  1.00  0.00     0.034 C 
ENDBRANCH  11  13
BRANCH  11  15
HETATM   15  C   UNL     1      23.704  48.113  49.664  1.00  0.00     0.231 C 
HETATM   16  C   UNL     1      24.721  48.991  48.952  1.00  0.00     0.034 C 
ENDBRANCH  11  15
ENDBRANCH  10  11
ENDBRANCH   6  10
BRANCH   7  17
HETATM   17  C   UNL     1      18.585  48.901  49.046  1.00  0.00     0.225 A 
HETATM   18  N   UNL     1      18.078  49.679  48.084  1.00  0.00    -0.081 NA
HETATM   19  O   UNL     1      17.670  50.827  48.772  1.00  0.00    -0.103 OA
HETATM   20  N   UNL     1      17.965  50.733  50.124  1.00  0.00    -0.083 NA
HETATM   21  C   UNL     1      18.534  49.541  50.295  1.00  0.00     0.201 A 
BRANCH  21  22
HETATM   22  N   UNL     1      18.967  49.064  51.471  1.00  0.00    -0.379 N 
HETATM   23  H   UNL     1      19.797  48.477  51.513  1.00  0.00     0.158 HD
HETATM   24  H   UNL     1      18.422  49.089  52.331  1.00  0.00     0.158 HD
ENDBRANCH  21  22
ENDBRANCH   7  17
ENDBRANCH   1   5
BRANCH   2  25
HETATM   25  N   UNL     1      23.377  43.993  49.401  1.00  0.00    -0.184 NA
HETATM   26  C   UNL     1      24.088  43.926  50.482  1.00  0.00     0.150 C 
BRANCH  26  27
HETATM   27  C   UNL     1      25.301  43.082  50.536  1.00  0.00    -0.016 A 
HETATM   28  C   UNL     1      25.589  42.196  49.494  1.00  0.00     0.023 A 
HETATM   29  C   UNL     1      26.729  41.369  49.506  1.00  0.00    -0.016 A 
HETATM   30  C   UNL     1      27.561  41.476  50.653  1.00  0.00     0.079 A 
HETATM   31  C   UNL     1      27.293  42.367  51.736  1.00  0.00    -0.016 A 
HETATM   32  C   UNL     1      26.145  43.172  51.639  1.00  0.00     0.023 A 
BRANCH  29  33
HETATM   33  C   UNL     1      26.991  40.425  48.302  1.00  0.00    -0.021 C 
HETATM   34  C   UNL     1      25.946  40.563  47.156  1.00  0.00     0.019 C 
HETATM   35  C   UNL     1      28.351  40.741  47.640  1.00  0.00     0.019 C 
HETATM   36  C   UNL     1      26.912  38.945  48.743  1.00  0.00     0.019 C 
ENDBRANCH  29  33
BRANCH  30  37
HETATM   37  O   UNL     1      28.692  40.719  50.791  1.00  0.00    -0.360 OA
HETATM   38  H   UNL     1      29.482  41.267  50.848  1.00  0.00     0.217 HD
ENDBRANCH  30  37
BRANCH  31  39
HETATM   39  C   UNL     1      28.208  42.449  52.989  1.00  0.00    -0.021 C 
HETATM   40  C   UNL     1      28.387  41.055  53.631  1.00  0.00     0.019 C 
HETATM   41  C   UNL     1      29.641  42.961  52.680  1.00  0.00     0.019 C 
HETATM   42  C   UNL     1      27.621  43.439  54.021  1.00  0.00     0.019 C 
ENDBRANCH  31  39
ENDBRANCH  26  27
ENDBRANCH   2  25
TORSDOF 12
ENDMDL
MODEL 4
REMARK VINA RESULT:      -8.7      4.078     11.265
REMARK  12 active torsions:
REMARK  status: ('A' for Active; 'I' for Inactive)
REMARK    1  A    between atoms: C_2  and  N_3 
REMARK    2  A    between atoms: N_3  and  C_5 
REMARK    3  A    between atoms: N_3  and  C_37 
REMARK    4  A    between atoms: C_5  and  C_6 
REMARK    5  A    between atoms: N_7  and  C_8 
REMARK    6  A    between atoms: C_12  and  N_13 
REMARK    7  A    between atoms: C_16  and  C_17 
REMARK       I    between atoms: C_17  and  N_18 
REMARK    8  A    between atoms: N_18  and  N_19 
REMARK    9  A    between atoms: C_20  and  C_21 
REMARK   10  A    between atoms: C_23  and  C_24 
REMARK   11  A    between atoms: C_28  and  O_29 
REMARK   12  A    between atoms: C_30  and  C_31 
ROOT
HETATM    1  C   UNL     1      23.118  46.897  49.016  1.00  0.00     0.293 C 
HETATM    2  N   UNL     1      23.338  45.841  49.879  1.00  0.00    -0.242 N 
HETATM    3  O   UNL     1      23.879  47.845  48.833  1.00  0.00    -0.264 OA
HETATM    4  H   UNL     1      22.659  45.090  49.971  1.00  0.00     0.192 HD
ENDROOT
BRANCH   1   5
HETATM    5  C   UNL     1      21.853  46.837  48.298  1.00  0.00     0.170 A 
HETATM    6  C   UNL     1      20.768  47.685  48.471  1.00  0.00     0.096 A 
HETATM    7  N   UNL     1      19.783  47.157  47.643  1.00  0.00    -0.215 N 
HETATM    8  N   UNL     1      20.319  46.131  46.929  1.00  0.00     0.012 NA
HETATM    9  N   UNL     1      21.557  45.913  47.340  1.00  0.00    -0.152 NA
BRANCH   6  10
HETATM   10  C   UNL     1      20.661  48.939  49.257  1.00  0.00     0.296 C 
BRANCH  10  11
HETATM   11  N   UNL     1      20.536  50.227  48.463  1.00  0.00    -0.066 N 
HETATM   12  H   UNL     1      19.840  50.046  47.723  1.00  0.00     0.280 HD
BRANCH  11  13
HETATM   13  C   UNL     1      21.852  50.574  47.776  1.00  0.00     0.231 C 
HETATM   14  C   UNL     1      22.873  51.102  48.766  1.00  0.00     0.034 C 
ENDBRANCH  11  13
BRANCH  11  15
HETATM   15  C   UNL     1      20.039  51.389  49.313  1.00  0.00     0.231 C 
HETATM   16  C   UNL     1      19.236  52.372  48.477  1.00  0.00     0.034 C 
ENDBRANCH  11  15
ENDBRANCH  10  11
ENDBRANCH   6  10
BRANCH   7  17
HETATM   17  C   UNL     1      18.421  47.528  47.545  1.00  0.00     0.225 A 
HETATM   18  N   UNL     1      18.096  48.754  47.121  1.00  0.00    -0.081 NA
HETATM   19  O   UNL     1      16.698  48.759  47.178  1.00  0.00    -0.103 OA
HETATM   20  N   UNL     1      16.210  47.554  47.660  1.00  0.00    -0.083 NA
HETATM   21  C   UNL     1      17.277  46.791  47.890  1.00  0.00     0.201 A 
BRANCH  21  22
HETATM   22  N   UNL     1      17.230  45.537  48.366  1.00  0.00    -0.379 N 
HETATM   23  H   UNL     1      17.226  45.369  49.369  1.00  0.00     0.158 HD
HETATM   24  H   UNL     1      17.384  44.707  47.797  1.00  0.00     0.158 HD
ENDBRANCH  21  22
ENDBRANCH   7  17
ENDBRANCH   1   5
BRANCH   2  25
HETATM   25  N   UNL     1      24.491  45.819  50.599  1.00  0.00    -0.184 NA
HETATM   26  C   UNL     1      24.586  44.921  51.527  1.00  0.00     0.150 C 
BRANCH  26  27
HETATM   27  C   UNL     1      25.807  44.817  52.355  1.00  0.00    -0.016 A 
HETATM   28  C   UNL     1      26.617  43.681  52.275  1.00  0.00     0.023 A 
HETATM   29  C   UNL     1      27.784  43.537  53.049  1.00  0.00    -0.016 A 
HETATM   30  C   UNL     1      28.080  44.609  53.932  1.00  0.00     0.079 A 
HETATM   31  C   UNL     1      27.272  45.781  54.041  1.00  0.00    -0.016 A 
HETATM   32  C   UNL     1      26.132  45.857  53.221  1.00  0.00     0.023 A 
BRANCH  29  33
HETATM   33  C   UNL     1      28.643  42.253  52.890  1.00  0.00    -0.021 C 
HETATM   34  C   UNL     1      28.444  41.528  51.526  1.00  0.00     0.019 C 
HETATM   35  C   UNL     1      30.150  42.588  52.945  1.00  0.00     0.019 C 
HETATM   36  C   UNL     1      28.261  41.206  53.962  1.00  0.00     0.019 C 
ENDBRANCH  29  33
BRANCH  30  37
HETATM   37  O   UNL     1      29.179  44.586  54.746  1.00  0.00    -0.360 OA
HETATM   38  H   UNL     1      29.971  44.881  54.284  1.00  0.00     0.217 HD
ENDBRANCH  30  37
BRANCH  31  39
HETATM   39  C   UNL     1      27.606  46.931  55.031  1.00  0.00    -0.021 C 
HETATM   40  C   UNL     1      28.036  46.368  56.404  1.00  0.00     0.019 C 
HETATM   41  C   UNL     1      28.775  47.838  54.560  1.00  0.00     0.019 C 
HETATM   42  C   UNL     1      26.387  47.868  55.199  1.00  0.00     0.019 C 
ENDBRANCH  31  39
ENDBRANCH  26  27
ENDBRANCH   2  25
TORSDOF 12
ENDMDL
MODEL 5
REMARK VINA RESULT:      -8.7      4.953     10.435
REMARK  12 active torsions:
REMARK  status: ('A' for Active; 'I' for Inactive)
REMARK    1  A    between atoms: C_2  and  N_3 
REMARK    2  A    between atoms: N_3  and  C_5 
REMARK    3  A    between atoms: N_3  and  C_37 
REMARK    4  A    between atoms: C_5  and  C_6 
REMARK    5  A    between atoms: N_7  and  C_8 
REMARK    6  A    between atoms: C_12  and  N_13 
REMARK    7  A    between atoms: C_16  and  C_17 
REMARK       I    between atoms: C_17  and  N_18 
REMARK    8  A    between atoms: N_18  and  N_19 
REMARK    9  A    between atoms: C_20  and  C_21 
REMARK   10  A    between atoms: C_23  and  C_24 
REMARK   11  A    between atoms: C_28  and  O_29 
REMARK   12  A    between atoms: C_30  and  C_31 
ROOT
HETATM    1  C   UNL     1      21.696  45.184  48.213  1.00  0.00     0.293 C 
HETATM    2  N   UNL     1      22.352  44.905  49.396  1.00  0.00    -0.242 N 
HETATM    3  O   UNL     1      22.040  44.807  47.095  1.00  0.00    -0.264 OA
HETATM    4  H   UNL     1      22.000  45.252  50.284  1.00  0.00     0.192 HD
ENDROOT
BRANCH   1   5
HETATM    5  C   UNL     1      20.508  46.014  48.362  1.00  0.00     0.170 A 
HETATM    6  C   UNL     1      20.481  47.397  48.479  1.00  0.00     0.096 A 
HETATM    7  N   UNL     1      19.141  47.697  48.701  1.00  0.00    -0.215 N 
HETATM    8  N   UNL     1      18.414  46.552  48.589  1.00  0.00     0.012 NA
HETATM    9  N   UNL     1      19.236  45.529  48.414  1.00  0.00    -0.152 NA
BRANCH   6  10
HETATM   10  C   UNL     1      21.574  48.384  48.304  1.00  0.00     0.296 C 
BRANCH  10  11
HETATM   11  N   UNL     1      22.316  48.804  49.561  1.00  0.00    -0.066 N 
HETATM   12  H   UNL     1      21.771  48.435  50.356  1.00  0.00     0.280 HD
BRANCH  11  13
HETATM   13  C   UNL     1      22.346  50.322  49.693  1.00  0.00     0.231 C 
HETATM   14  C   UNL     1      21.562  50.993  48.581  1.00  0.00     0.034 C 
ENDBRANCH  11  13
BRANCH  11  15
HETATM   15  C   UNL     1      23.720  48.219  49.631  1.00  0.00     0.231 C 
HETATM   16  C   UNL     1      24.716  49.104  48.899  1.00  0.00     0.034 C 
ENDBRANCH  11  15
ENDBRANCH  10  11
ENDBRANCH   6  10
BRANCH   7  17
HETATM   17  C   UNL     1      18.562  48.939  49.049  1.00  0.00     0.225 A 
HETATM   18  N   UNL     1      17.981  49.689  48.106  1.00  0.00    -0.081 NA
HETATM   19  O   UNL     1      17.556  50.823  48.806  1.00  0.00    -0.103 OA
HETATM   20  N   UNL     1      17.913  50.752  50.144  1.00  0.00    -0.083 NA
HETATM   21  C   UNL     1      18.538  49.586  50.296  1.00  0.00     0.201 A 
BRANCH  21  22
HETATM   22  N   UNL     1      19.042  49.136  51.455  1.00  0.00    -0.379 N 
HETATM   23  H   UNL     1      19.896  48.584  51.463  1.00  0.00     0.158 HD
HETATM   24  H   UNL     1      18.533  49.145  52.337  1.00  0.00     0.158 HD
ENDBRANCH  21  22
ENDBRANCH   7  17
ENDBRANCH   1   5
BRANCH   2  25
HETATM   25  N   UNL     1      23.476  44.143  49.352  1.00  0.00    -0.184 NA
HETATM   26  C   UNL     1      24.008  43.815  50.486  1.00  0.00     0.150 C 
BRANCH  26  27
HETATM   27  C   UNL     1      25.230  42.982  50.535  1.00  0.00    -0.016 A 
HETATM   28  C   UNL     1      26.097  43.069  51.628  1.00  0.00     0.023 A 
HETATM   29  C   UNL     1      27.273  42.300  51.713  1.00  0.00    -0.016 A 
HETATM   30  C   UNL     1      27.537  41.443  50.611  1.00  0.00     0.079 A 
HETATM   31  C   UNL     1      26.674  41.334  49.479  1.00  0.00    -0.016 A 
HETATM   32  C   UNL     1      25.509  42.122  49.477  1.00  0.00     0.023 A 
BRANCH  29  33
HETATM   33  C   UNL     1      28.177  42.438  52.968  1.00  0.00    -0.021 C 
HETATM   34  C   UNL     1      27.561  43.323  54.092  1.00  0.00     0.019 C 
HETATM   35  C   UNL     1      28.413  41.062  53.631  1.00  0.00     0.019 C 
HETATM   36  C   UNL     1      29.514  43.123  52.604  1.00  0.00     0.019 C 
ENDBRANCH  29  33
BRANCH  30  37
HETATM   37  O   UNL     1      28.652  40.653  50.568  1.00  0.00    -0.360 OA
HETATM   38  H   UNL     1      28.426  39.718  50.532  1.00  0.00     0.217 HD
ENDBRANCH  30  37
BRANCH  31  39
HETATM   39  C   UNL     1      26.996  40.404  48.276  1.00  0.00    -0.021 C 
HETATM   40  C   UNL     1      28.334  40.803  47.615  1.00  0.00     0.019 C 
HETATM   41  C   UNL     1      27.146  38.909  48.668  1.00  0.00     0.019 C 
HETATM   42  C   UNL     1      25.853  40.454  47.236  1.00  0.00     0.019 C 
ENDBRANCH  31  39
ENDBRANCH  26  27
ENDBRANCH   2  25
TORSDOF 12
ENDMDL
MODEL 6
REMARK VINA RESULT:      -8.5      4.117     10.818
REMARK  12 active torsions:
REMARK  status: ('A' for Active; 'I' for Inactive)
REMARK    1  A    between atoms: C_2  and  N_3 
REMARK    2  A    between atoms: N_3  and  C_5 
REMARK    3  A    between atoms: N_3  and  C_37 
REMARK    4  A    between atoms: C_5  and  C_6 
REMARK    5  A    between atoms: N_7  and  C_8 
REMARK    6  A    between atoms: C_12  and  N_13 
REMARK    7  A    between atoms: C_16  and  C_17 
REMARK       I    between atoms: C_17  and  N_18 
REMARK    8  A    between atoms: N_18  and  N_19 
REMARK    9  A    between atoms: C_20  and  C_21 
REMARK   10  A    between atoms: C_23  and  C_24 
REMARK   11  A    between atoms: C_28  and  O_29 
REMARK   12  A    between atoms: C_30  and  C_31 
ROOT
HETATM    1  C   UNL     1      23.063  46.855  49.120  1.00  0.00     0.293 C 
HETATM    2  N   UNL     1      23.477  45.589  49.485  1.00  0.00    -0.242 N 
HETATM    3  O   UNL     1      23.644  47.905  49.386  1.00  0.00    -0.264 OA
HETATM    4  H   UNL     1      22.941  44.766  49.221  1.00  0.00     0.192 HD
ENDROOT
BRANCH   1   5
HETATM    5  C   UNL     1      21.816  46.890  48.369  1.00  0.00     0.170 A 
HETATM    6  C   UNL     1      20.722  47.704  48.628  1.00  0.00     0.096 A 
HETATM    7  N   UNL     1      19.760  47.291  47.712  1.00  0.00    -0.215 N 
HETATM    8  N   UNL     1      20.319  46.371  46.880  1.00  0.00     0.012 NA
HETATM    9  N   UNL     1      21.548  46.102  47.289  1.00  0.00    -0.152 NA
BRANCH   6  10
HETATM   10  C   UNL     1      20.590  48.841  49.572  1.00  0.00     0.296 C 
BRANCH  10  11
HETATM   11  N   UNL     1      20.676  50.234  48.973  1.00  0.00    -0.066 N 
HETATM   12  H   UNL     1      20.553  50.120  47.955  1.00  0.00     0.280 HD
BRANCH  11  13
HETATM   13  C   UNL     1      22.056  50.840  49.200  1.00  0.00     0.231 C 
HETATM   14  C   UNL     1      22.878  50.845  47.925  1.00  0.00     0.034 C 
ENDBRANCH  11  13
BRANCH  11  15
HETATM   15  C   UNL     1      19.580  51.157  49.487  1.00  0.00     0.231 C 
HETATM   16  C   UNL     1      19.349  52.315  48.529  1.00  0.00     0.034 C 
ENDBRANCH  11  15
ENDBRANCH  10  11
ENDBRANCH   6  10
BRANCH   7  17
HETATM   17  C   UNL     1      18.400  47.670  47.631  1.00  0.00     0.225 A 
HETATM   18  N   UNL     1      18.077  48.913  47.262  1.00  0.00    -0.081 NA
HETATM   19  O   UNL     1      16.679  48.919  47.320  1.00  0.00    -0.103 OA
HETATM   20  N   UNL     1      16.189  47.695  47.749  1.00  0.00    -0.083 NA
HETATM   21  C   UNL     1      17.254  46.920  47.945  1.00  0.00     0.201 A 
BRANCH  21  22
HETATM   22  N   UNL     1      17.204  45.647  48.365  1.00  0.00    -0.379 N 
HETATM   23  H   UNL     1      16.373  45.084  48.197  1.00  0.00     0.158 HD
HETATM   24  H   UNL     1      17.872  45.235  49.013  1.00  0.00     0.158 HD
ENDBRANCH  21  22
ENDBRANCH   7  17
ENDBRANCH   1   5
BRANCH   2  25
HETATM   25  N   UNL     1      24.628  45.461  50.196  1.00  0.00    -0.184 NA
HETATM   26  C   UNL     1      24.512  45.158  51.450  1.00  0.00     0.150 C 
BRANCH  26  27
HETATM   27  C   UNL     1      25.711  44.992  52.301  1.00  0.00    -0.016 A 
HETATM   28  C   UNL     1      26.071  45.990  53.211  1.00  0.00     0.023 A 
HETATM   29  C   UNL     1      27.206  45.877  54.035  1.00  0.00    -0.016 A 
HETATM   30  C   UNL     1      27.977  44.695  53.874  1.00  0.00     0.079 A 
HETATM   31  C   UNL     1      27.639  43.659  52.951  1.00  0.00    -0.016 A 
HETATM   32  C   UNL     1      26.479  43.839  52.176  1.00  0.00     0.023 A 
BRANCH  29  33
HETATM   33  C   UNL     1      27.530  47.019  55.035  1.00  0.00    -0.021 C 
HETATM   34  C   UNL     1      26.342  47.996  55.282  1.00  0.00     0.019 C 
HETATM   35  C   UNL     1      27.873  46.450  56.431  1.00  0.00     0.019 C 
HETATM   36  C   UNL     1      28.675  47.908  54.496  1.00  0.00     0.019 C 
ENDBRANCH  29  33
BRANCH  30  37
HETATM   37  O   UNL     1      29.109  44.471  54.607  1.00  0.00    -0.360 OA
HETATM   38  H   UNL     1      29.878  44.339  54.043  1.00  0.00     0.217 HD
ENDBRANCH  30  37
BRANCH  31  39
HETATM   39  C   UNL     1      28.511  42.384  52.778  1.00  0.00    -0.021 C 
HETATM   40  C   UNL     1      28.201  41.351  53.884  1.00  0.00     0.019 C 
HETATM   41  C   UNL     1      28.275  41.648  51.431  1.00  0.00     0.019 C 
HETATM   42  C   UNL     1      30.012  42.752  52.799  1.00  0.00     0.019 C 
ENDBRANCH  31  39
ENDBRANCH  26  27
ENDBRANCH   2  25
TORSDOF 12
ENDMDL
MODEL 7
REMARK VINA RESULT:      -8.4      2.958      5.644
REMARK  12 active torsions:
REMARK  status: ('A' for Active; 'I' for Inactive)
REMARK    1  A    between atoms: C_2  and  N_3 
REMARK    2  A    between atoms: N_3  and  C_5 
REMARK    3  A    between atoms: N_3  and  C_37 
REMARK    4  A    between atoms: C_5  and  C_6 
REMARK    5  A    between atoms: N_7  and  C_8 
REMARK    6  A    between atoms: C_12  and  N_13 
REMARK    7  A    between atoms: C_16  and  C_17 
REMARK       I    between atoms: C_17  and  N_18 
REMARK    8  A    between atoms: N_18  and  N_19 
REMARK    9  A    between atoms: C_20  and  C_21 
REMARK   10  A    between atoms: C_23  and  C_24 
REMARK   11  A    between atoms: C_28  and  O_29 
REMARK   12  A    between atoms: C_30  and  C_31 
ROOT
HETATM    1  C   UNL     1      23.279  43.843  50.084  1.00  0.00     0.293 C 
HETATM    2  N   UNL     1      23.451  44.781  49.084  1.00  0.00    -0.242 N 
HETATM    3  O   UNL     1      22.215  43.568  50.635  1.00  0.00    -0.264 OA
HETATM    4  H   UNL     1      24.366  44.947  48.674  1.00  0.00     0.192 HD
ENDROOT
BRANCH   1   5
HETATM    5  C   UNL     1      24.500  43.162  50.490  1.00  0.00     0.170 A 
HETATM    6  C   UNL     1      25.374  43.566  51.489  1.00  0.00     0.096 A 
HETATM    7  N   UNL     1      26.423  42.655  51.419  1.00  0.00    -0.215 N 
HETATM    8  N   UNL     1      26.105  41.696  50.509  1.00  0.00     0.012 NA
HETATM    9  N   UNL     1      24.961  42.011  49.923  1.00  0.00    -0.152 NA
BRANCH   6  10
HETATM   10  C   UNL     1      25.225  44.642  52.500  1.00  0.00     0.296 C 
BRANCH  10  11
HETATM   11  N   UNL     1      26.009  45.918  52.253  1.00  0.00    -0.066 N 
HETATM   12  H   UNL     1      26.853  45.643  51.726  1.00  0.00     0.280 HD
BRANCH  11  13
HETATM   13  C   UNL     1      26.474  46.534  53.568  1.00  0.00     0.231 C 
HETATM   14  C   UNL     1      26.966  45.474  54.535  1.00  0.00     0.034 C 
ENDBRANCH  11  13
BRANCH  11  15
HETATM   15  C   UNL     1      25.232  46.928  51.419  1.00  0.00     0.231 C 
HETATM   16  C   UNL     1      26.076  47.447  50.266  1.00  0.00     0.034 C 
ENDBRANCH  11  15
ENDBRANCH  10  11
ENDBRANCH   6  10
BRANCH   7  17
HETATM   17  C   UNL     1      27.663  42.684  52.099  1.00  0.00     0.225 A 
HETATM   18  N   UNL     1      28.514  43.693  51.886  1.00  0.00    -0.081 NA
HETATM   19  O   UNL     1      29.610  43.373  52.694  1.00  0.00    -0.103 OA
HETATM   20  N   UNL     1      29.414  42.168  53.352  1.00  0.00    -0.083 NA
HETATM   21  C   UNL     1      28.208  41.739  52.983  1.00  0.00     0.201 A 
BRANCH  21  22
HETATM   22  N   UNL     1      27.642  40.599  53.406  1.00  0.00    -0.379 N 
HETATM   23  H   UNL     1      26.739  40.617  53.873  1.00  0.00     0.158 HD
HETATM   24  H   UNL     1      28.132  39.708  53.464  1.00  0.00     0.158 HD
ENDBRANCH  21  22
ENDBRANCH   7  17
ENDBRANCH   1   5
BRANCH   2  25
HETATM   25  N   UNL     1      22.365  45.472  48.647  1.00  0.00    -0.184 NA
HETATM   26  C   UNL     1      22.428  46.764  48.711  1.00  0.00     0.150 C 
BRANCH  26  27
HETATM   27  C   UNL     1      21.296  47.598  48.251  1.00  0.00    -0.016 A 
HETATM   28  C   UNL     1      20.555  47.221  47.127  1.00  0.00     0.023 A 
HETATM   29  C   UNL     1      19.475  47.987  46.651  1.00  0.00    -0.016 A 
HETATM   30  C   UNL     1      19.194  49.180  47.370  1.00  0.00     0.079 A 
HETATM   31  C   UNL     1      19.934  49.595  48.519  1.00  0.00    -0.016 A 
HETATM   32  C   UNL     1      20.987  48.766  48.942  1.00  0.00     0.023 A 
BRANCH  29  33
HETATM   33  C   UNL     1      18.687  47.492  45.408  1.00  0.00    -0.021 C 
HETATM   34  C   UNL     1      18.424  48.602  44.347  1.00  0.00     0.019 C 
HETATM   35  C   UNL     1      19.478  46.400  44.653  1.00  0.00     0.019 C 
HETATM   36  C   UNL     1      17.284  46.987  45.818  1.00  0.00     0.019 C 
ENDBRANCH  29  33
BRANCH  30  37
HETATM   37  O   UNL     1      18.177  50.017  47.001  1.00  0.00    -0.360 OA
HETATM   38  H   UNL     1      17.595  50.217  47.742  1.00  0.00     0.217 HD
ENDBRANCH  30  37
BRANCH  31  39
HETATM   39  C   UNL     1      19.620  50.916  49.275  1.00  0.00    -0.021 C 
HETATM   40  C   UNL     1      19.672  52.126  48.315  1.00  0.00     0.019 C 
HETATM   41  C   UNL     1      18.206  50.944  49.917  1.00  0.00     0.019 C 
HETATM   42  C   UNL     1      20.616  51.119  50.440  1.00  0.00     0.019 C 
ENDBRANCH  31  39
ENDBRANCH  26  27
ENDBRANCH   2  25
TORSDOF 12
ENDMDL
MODEL 8
REMARK VINA RESULT:      -8.4      3.025      5.146
REMARK  12 active torsions:
REMARK  status: ('A' for Active; 'I' for Inactive)
REMARK    1  A    between atoms: C_2  and  N_3 
REMARK    2  A    between atoms: N_3  and  C_5 
REMARK    3  A    between atoms: N_3  and  C_37 
REMARK    4  A    between atoms: C_5  and  C_6 
REMARK    5  A    between atoms: N_7  and  C_8 
REMARK    6  A    between atoms: C_12  and  N_13 
REMARK    7  A    between atoms: C_16  and  C_17 
REMARK       I    between atoms: C_17  and  N_18 
REMARK    8  A    between atoms: N_18  and  N_19 
REMARK    9  A    between atoms: C_20  and  C_21 
REMARK   10  A    between atoms: C_23  and  C_24 
REMARK   11  A    between atoms: C_28  and  O_29 
REMARK   12  A    between atoms: C_30  and  C_31 
ROOT
HETATM    1  C   UNL     1      23.174  43.834  49.923  1.00  0.00     0.293 C 
HETATM    2  N   UNL     1      23.379  44.794  48.951  1.00  0.00    -0.242 N 
HETATM    3  O   UNL     1      22.090  43.536  50.420  1.00  0.00    -0.264 OA
HETATM    4  H   UNL     1      24.309  44.979  48.586  1.00  0.00     0.192 HD
ENDROOT
BRANCH   1   5
HETATM    5  C   UNL     1      24.384  43.157  50.368  1.00  0.00     0.170 A 
HETATM    6  C   UNL     1      25.247  43.587  51.366  1.00  0.00     0.096 A 
HETATM    7  N   UNL     1      26.290  42.666  51.340  1.00  0.00    -0.215 N 
HETATM    8  N   UNL     1      25.977  41.680  50.457  1.00  0.00     0.012 NA
HETATM    9  N   UNL     1      24.844  41.985  49.846  1.00  0.00    -0.152 NA
BRANCH   6  10
HETATM   10  C   UNL     1      25.093  44.697  52.338  1.00  0.00     0.296 C 
BRANCH  10  11
HETATM   11  N   UNL     1      25.940  45.934  52.096  1.00  0.00    -0.066 N 
HETATM   12  H   UNL     1      26.754  45.624  51.543  1.00  0.00     0.280 HD
BRANCH  11  13
HETATM   13  C   UNL     1      26.469  46.496  53.411  1.00  0.00     0.231 C 
HETATM   14  C   UNL     1      26.575  45.419  54.474  1.00  0.00     0.034 C 
ENDBRANCH  11  13
BRANCH  11  15
HETATM   15  C   UNL     1      25.199  47.001  51.302  1.00  0.00     0.231 C 
HETATM   16  C   UNL     1      25.856  47.227  49.949  1.00  0.00     0.034 C 
ENDBRANCH  11  15
ENDBRANCH  10  11
ENDBRANCH   6  10
BRANCH   7  17
HETATM   17  C   UNL     1      27.520  42.709  52.036  1.00  0.00     0.225 A 
HETATM   18  N   UNL     1      28.364  43.726  51.833  1.00  0.00    -0.081 NA
HETATM   19  O   UNL     1      29.453  43.417  52.656  1.00  0.00    -0.103 OA
HETATM   20  N   UNL     1      29.260  42.211  53.312  1.00  0.00    -0.083 NA
HETATM   21  C   UNL     1      28.064  41.769  52.927  1.00  0.00     0.201 A 
BRANCH  21  22
HETATM   22  N   UNL     1      27.504  40.624  53.344  1.00  0.00    -0.379 N 
HETATM   23  H   UNL     1      27.874  40.138  54.158  1.00  0.00     0.158 HD
HETATM   24  H   UNL     1      26.835  40.085  52.796  1.00  0.00     0.158 HD
ENDBRANCH  21  22
ENDBRANCH   7  17
ENDBRANCH   1   5
BRANCH   2  25
HETATM   25  N   UNL     1      22.306  45.483  48.482  1.00  0.00    -0.184 NA
HETATM   26  C   UNL     1      22.315  46.768  48.647  1.00  0.00     0.150 C 
BRANCH  26  27
HETATM   27  C   UNL     1      21.192  47.600  48.162  1.00  0.00    -0.016 A 
HETATM   28  C   UNL     1      20.837  48.768  48.843  1.00  0.00     0.023 A 
HETATM   29  C   UNL     1      19.772  49.586  48.421  1.00  0.00    -0.016 A 
HETATM   30  C   UNL     1      19.066  49.143  47.270  1.00  0.00     0.079 A 
HETATM   31  C   UNL     1      19.400  47.953  46.555  1.00  0.00    -0.016 A 
HETATM   32  C   UNL     1      20.488  47.200  47.030  1.00  0.00     0.023 A 
BRANCH  29  33
HETATM   33  C   UNL     1      19.451  50.879  49.218  1.00  0.00    -0.021 C 
HETATM   34  C   UNL     1      20.434  51.153  50.395  1.00  0.00     0.019 C 
HETATM   35  C   UNL     1      19.560  52.127  48.312  1.00  0.00     0.019 C 
HETATM   36  C   UNL     1      18.055  50.782  49.874  1.00  0.00     0.019 C 
ENDBRANCH  29  33
BRANCH  30  37
HETATM   37  O   UNL     1      18.005  49.843  46.767  1.00  0.00    -0.360 OA
HETATM   38  H   UNL     1      17.370  49.264  46.332  1.00  0.00     0.217 HD
ENDBRANCH  30  37
BRANCH  31  39
HETATM   39  C   UNL     1      18.598  47.479  45.312  1.00  0.00    -0.021 C 
HETATM   40  C   UNL     1      17.189  46.991  45.720  1.00  0.00     0.019 C 
HETATM   41  C   UNL     1      18.371  48.594  44.256  1.00  0.00     0.019 C 
HETATM   42  C   UNL     1      19.359  46.352  44.578  1.00  0.00     0.019 C 
ENDBRANCH  31  39
ENDBRANCH  26  27
ENDBRANCH   2  25
TORSDOF 12
ENDMDL
MODEL 9
REMARK VINA RESULT:      -8.3      4.889     11.377
REMARK  12 active torsions:
REMARK  status: ('A' for Active; 'I' for Inactive)
REMARK    1  A    between atoms: C_2  and  N_3 
REMARK    2  A    between atoms: N_3  and  C_5 
REMARK    3  A    between atoms: N_3  and  C_37 
REMARK    4  A    between atoms: C_5  and  C_6 
REMARK    5  A    between atoms: N_7  and  C_8 
REMARK    6  A    between atoms: C_12  and  N_13 
REMARK    7  A    between atoms: C_16  and  C_17 
REMARK       I    between atoms: C_17  and  N_18 
REMARK    8  A    between atoms: N_18  and  N_19 
REMARK    9  A    between atoms: C_20  and  C_21 
REMARK   10  A    between atoms: C_23  and  C_24 
REMARK   11  A    between atoms: C_28  and  O_29 
REMARK   12  A    between atoms: C_30  and  C_31 
ROOT
HETATM    1  C   UNL     1      21.612  45.088  48.581  1.00  0.00     0.293 C 
HETATM    2  N   UNL     1      21.816  44.395  49.759  1.00  0.00    -0.242 N 
HETATM    3  O   UNL     1      22.492  45.477  47.816  1.00  0.00    -0.264 OA
HETATM    4  H   UNL     1      21.032  44.103  50.336  1.00  0.00     0.192 HD
ENDROOT
BRANCH   1   5
HETATM    5  C   UNL     1      20.216  45.367  48.278  1.00  0.00     0.170 A 
HETATM    6  C   UNL     1      19.632  46.622  48.174  1.00  0.00     0.096 A 
HETATM    7  N   UNL     1      18.280  46.358  47.980  1.00  0.00    -0.215 N 
HETATM    8  N   UNL     1      18.114  45.014  47.849  1.00  0.00     0.012 NA
HETATM    9  N   UNL     1      19.272  44.409  48.057  1.00  0.00    -0.152 NA
BRANCH   6  10
HETATM   10  C   UNL     1      20.266  47.964  48.155  1.00  0.00     0.296 C 
BRANCH  10  11
HETATM   11  N   UNL     1      20.596  48.577  49.504  1.00  0.00    -0.066 N 
HETATM   12  H   UNL     1      20.737  47.789  50.155  1.00  0.00     0.280 HD
BRANCH  11  13
HETATM   13  C   UNL     1      19.424  49.398  50.029  1.00  0.00     0.231 C 
HETATM   14  C   UNL     1      18.683  48.666  51.133  1.00  0.00     0.034 C 
ENDBRANCH  11  13
BRANCH  11  15
HETATM   15  C   UNL     1      21.874  49.405  49.471  1.00  0.00     0.231 C 
HETATM   16  C   UNL     1      23.094  48.517  49.285  1.00  0.00     0.034 C 
ENDBRANCH  11  15
ENDBRANCH  10  11
ENDBRANCH   6  10
BRANCH   7  17
HETATM   17  C   UNL     1      17.197  47.268  47.968  1.00  0.00     0.225 A 
HETATM   18  N   UNL     1      16.290  47.234  48.949  1.00  0.00    -0.081 NA
HETATM   19  O   UNL     1      15.384  48.238  48.592  1.00  0.00    -0.103 OA
HETATM   20  N   UNL     1      15.742  48.834  47.393  1.00  0.00    -0.083 NA
HETATM   21  C   UNL     1      16.864  48.232  47.003  1.00  0.00     0.201 A 
BRANCH  21  22
HETATM   22  N   UNL     1      17.537  48.526  45.880  1.00  0.00    -0.379 N 
HETATM   23  H   UNL     1      17.072  49.011  45.116  1.00  0.00     0.158 HD
HETATM   24  H   UNL     1      18.448  48.138  45.644  1.00  0.00     0.158 HD
ENDBRANCH  21  22
ENDBRANCH   7  17
ENDBRANCH   1   5
BRANCH   2  25
HETATM   25  N   UNL     1      23.090  44.098  50.126  1.00  0.00    -0.184 NA
HETATM   26  C   UNL     1      23.503  42.893  49.889  1.00  0.00     0.150 C 
BRANCH  26  27
HETATM   27  C   UNL     1      24.878  42.482  50.249  1.00  0.00    -0.016 A 
HETATM   28  C   UNL     1      25.507  41.445  49.553  1.00  0.00     0.023 A 
HETATM   29  C   UNL     1      26.811  41.017  49.865  1.00  0.00    -0.016 A 
HETATM   30  C   UNL     1      27.444  41.690  50.944  1.00  0.00     0.079 A 
HETATM   31  C   UNL     1      26.829  42.749  51.677  1.00  0.00    -0.016 A 
HETATM   32  C   UNL     1      25.532  43.130  51.292  1.00  0.00     0.023 A 
BRANCH  29  33
HETATM   33  C   UNL     1      27.449  39.872  49.034  1.00  0.00    -0.021 C 
HETATM   34  C   UNL     1      28.221  38.826  49.892  1.00  0.00     0.019 C 
HETATM   35  C   UNL     1      26.364  39.055  48.295  1.00  0.00     0.019 C 
HETATM   36  C   UNL     1      28.497  40.434  48.046  1.00  0.00     0.019 C 
ENDBRANCH  29  33
BRANCH  30  37
HETATM   37  O   UNL     1      28.707  41.359  51.352  1.00  0.00    -0.360 OA
HETATM   38  H   UNL     1      29.069  42.015  51.957  1.00  0.00     0.217 HD
ENDBRANCH  30  37
BRANCH  31  39
HETATM   39  C   UNL     1      27.536  43.454  52.868  1.00  0.00    -0.021 C 
HETATM   40  C   UNL     1      29.039  43.657  52.574  1.00  0.00     0.019 C 
HETATM   41  C   UNL     1      26.970  44.866  53.179  1.00  0.00     0.019 C 
HETATM   42  C   UNL     1      27.353  42.633  54.165  1.00  0.00     0.019 C 
ENDBRANCH  31  39
ENDBRANCH  26  27
ENDBRANCH   2  25
TORSDOF 12
ENDMDL
MODEL 10
REMARK VINA RESULT:      -8.2      4.940     11.140
REMARK  12 active torsions:
REMARK  status: ('A' for Active; 'I' for Inactive)
REMARK    1  A    between atoms: C_2  and  N_3 
REMARK    2  A    between atoms: N_3  and  C_5 
REMARK    3  A    between atoms: N_3  and  C_37 
REMARK    4  A    between atoms: C_5  and  C_6 
REMARK    5  A    between atoms: N_7  and  C_8 
REMARK    6  A    between atoms: C_12  and  N_13 
REMARK    7  A    between atoms: C_16  and  C_17 
REMARK       I    between atoms: C_17  and  N_18 
REMARK    8  A    between atoms: N_18  and  N_19 
REMARK    9  A    between atoms: C_20  and  C_21 
REMARK   10  A    between atoms: C_23  and  C_24 
REMARK   11  A    between atoms: C_28  and  O_29 
REMARK   12  A    between atoms: C_30  and  C_31 
ROOT
HETATM    1  C   UNL     1      21.497  45.013  48.561  1.00  0.00     0.293 C 
HETATM    2  N   UNL     1      21.690  44.332  49.747  1.00  0.00    -0.242 N 
HETATM    3  O   UNL     1      22.382  45.362  47.782  1.00  0.00    -0.264 OA
HETATM    4  H   UNL     1      20.903  44.074  50.336  1.00  0.00     0.192 HD
ENDROOT
BRANCH   1   5
HETATM    5  C   UNL     1      20.108  45.333  48.266  1.00  0.00     0.170 A 
HETATM    6  C   UNL     1      19.561  46.605  48.161  1.00  0.00     0.096 A 
HETATM    7  N   UNL     1      18.200  46.380  47.977  1.00  0.00    -0.215 N 
HETATM    8  N   UNL     1      17.993  45.042  47.853  1.00  0.00     0.012 NA
HETATM    9  N   UNL     1      19.134  44.403  48.056  1.00  0.00    -0.152 NA
BRANCH   6  10
HETATM   10  C   UNL     1      20.235  47.926  48.131  1.00  0.00     0.296 C 
BRANCH  10  11
HETATM   11  N   UNL     1      20.661  48.500  49.471  1.00  0.00    -0.066 N 
HETATM   12  H   UNL     1      20.863  47.694  50.081  1.00  0.00     0.280 HD
BRANCH  11  13
HETATM   13  C   UNL     1      19.523  49.285  50.113  1.00  0.00     0.231 C 
HETATM   14  C   UNL     1      19.735  50.781  49.980  1.00  0.00     0.034 C 
ENDBRANCH  11  13
BRANCH  11  15
HETATM   15  C   UNL     1      21.921  49.349  49.366  1.00  0.00     0.231 C 
HETATM   16  C   UNL     1      22.865  48.794  48.311  1.00  0.00     0.034 C 
ENDBRANCH  11  15
ENDBRANCH  10  11
ENDBRANCH   6  10
BRANCH   7  17
HETATM   17  C   UNL     1      17.145  47.322  47.969  1.00  0.00     0.225 A 
HETATM   18  N   UNL     1      16.239  47.313  48.951  1.00  0.00    -0.081 NA
HETATM   19  O   UNL     1      15.362  48.345  48.598  1.00  0.00    -0.103 OA
HETATM   20  N   UNL     1      15.737  48.933  47.399  1.00  0.00    -0.083 NA
HETATM   21  C   UNL     1      16.840  48.299  47.007  1.00  0.00     0.201 A 
BRANCH  21  22
HETATM   22  N   UNL     1      17.520  48.576  45.884  1.00  0.00    -0.379 N 
HETATM   23  H   UNL     1      18.264  49.270  45.892  1.00  0.00     0.158 HD
HETATM   24  H   UNL     1      17.231  48.275  44.955  1.00  0.00     0.158 HD
ENDBRANCH  21  22
ENDBRANCH   7  17
ENDBRANCH   1   5
BRANCH   2  25
HETATM   25  N   UNL     1      22.957  43.999  50.107  1.00  0.00    -0.184 NA
HETATM   26  C   UNL     1      23.353  42.799  49.820  1.00  0.00     0.150 C 
BRANCH  26  27
HETATM   27  C   UNL     1      24.719  42.352  50.168  1.00  0.00    -0.016 A 
HETATM   28  C   UNL     1      25.405  42.947  51.231  1.00  0.00     0.023 A 
HETATM   29  C   UNL     1      26.708  42.557  51.593  1.00  0.00    -0.016 A 
HETATM   30  C   UNL     1      27.293  41.534  50.800  1.00  0.00     0.079 A 
HETATM   31  C   UNL     1      26.622  40.909  49.706  1.00  0.00    -0.016 A 
HETATM   32  C   UNL     1      25.316  41.342  49.419  1.00  0.00     0.023 A 
BRANCH  29  33
HETATM   33  C   UNL     1      27.397  43.251  52.799  1.00  0.00    -0.021 C 
HETATM   34  C   UNL     1      27.647  42.306  54.011  1.00  0.00     0.019 C 
HETATM   35  C   UNL     1      28.797  43.774  52.408  1.00  0.00     0.019 C 
HETATM   36  C   UNL     1      26.508  44.389  53.353  1.00  0.00     0.019 C 
ENDBRANCH  29  33
BRANCH  30  37
HETATM   37  O   UNL     1      28.559  41.075  51.043  1.00  0.00    -0.360 OA
HETATM   38  H   UNL     1      28.587  40.113  51.081  1.00  0.00     0.217 HD
ENDBRANCH  30  37
BRANCH  31  39
HETATM   39  C   UNL     1      27.294  39.807  48.840  1.00  0.00    -0.021 C 
HETATM   40  C   UNL     1      26.452  39.509  47.579  1.00  0.00     0.019 C 
HETATM   41  C   UNL     1      28.706  40.195  48.326  1.00  0.00     0.019 C 
HETATM   42  C   UNL     1      27.487  38.515  49.668  1.00  0.00     0.019 C 
ENDBRANCH  31  39
ENDBRANCH  26  27
ENDBRANCH   2  25
TORSDOF 12
ENDMDL
