MODEL 1
REMARK VINA RESULT:      -8.3      0.000      0.000
REMARK  5 active torsions:
REMARK  status: ('A' for Active; 'I' for Inactive)
REMARK    1  A    between atoms: C_2  and  C_3 
REMARK    2  A    between atoms: C_3  and  N_4 
REMARK    3  A    between atoms: C_3  and  C_19 
REMARK       I    between atoms: N_4  and  C_5 
REMARK       I    between atoms: C_5  and  N_6 
REMARK    4  A    between atoms: N_6  and  C_7 
REMARK    5  A    between atoms: C_12  and  C_13 
ROOT
HETATM    1  N   UNL     1      26.398  46.631  51.498  1.00  0.00    -0.334 N 
HETATM    2  C   UNL     1      26.070  46.822  52.792  1.00  0.00     0.321 C 
HETATM    3  N   UNL     1      26.531  45.975  53.743  1.00  0.00    -0.306 N 
HETATM    4  O   UNL     1      25.333  47.738  53.158  1.00  0.00    -0.247 OA
HETATM    5  H   UNL     1      27.188  46.041  51.304  1.00  0.00     0.165 HD
HETATM    6  H   UNL     1      26.128  46.258  54.629  1.00  0.00     0.171 HD
ENDROOT
BRANCH   1   7
HETATM    7  C   UNL     1      26.047  47.601  50.475  1.00  0.00     0.122 C 
BRANCH   7   8
HETATM    8  C   UNL     1      27.178  47.769  49.438  1.00  0.00     0.026 C 
HETATM    9  C   UNL     1      27.478  49.215  49.058  1.00  0.00     0.007 C 
ENDBRANCH   7   8
BRANCH   7  10
HETATM   10  C   UNL     1      24.733  47.239  49.847  1.00  0.00     0.001 A 
HETATM   11  C   UNL     1      23.683  48.034  49.422  1.00  0.00     0.122 A 
HETATM   12  N   UNL     1      22.730  47.191  48.929  1.00  0.00    -0.285 N 
HETATM   13  C   UNL     1      21.454  47.556  48.363  1.00  0.00     0.179 C 
HETATM   14  N   UNL     1      23.071  45.895  49.007  1.00  0.00    -0.185 NA
HETATM   15  C   UNL     1      24.287  45.924  49.553  1.00  0.00     0.149 A 
ENDBRANCH   7  10
ENDBRANCH   1   7
BRANCH   3  16
HETATM   16  C   UNL     1      27.388  44.855  53.792  1.00  0.00     0.075 A 
HETATM   17  C   UNL     1      27.320  43.697  53.012  1.00  0.00     0.143 A 
HETATM   18  F   UNL     1      26.392  43.529  52.064  1.00  0.00    -0.204 F 
HETATM   19  C   UNL     1      28.246  42.661  53.164  1.00  0.00     0.045 A 
HETATM   20  C   UNL     1      29.273  42.766  54.098  1.00  0.00     0.019 A 
HETATM   21  C   UNL     1      29.378  43.910  54.895  1.00  0.00     0.050 A 
HETATM   22  C   UNL     1      28.434  44.944  54.729  1.00  0.00     0.049 A 
BRANCH  21  23
HETATM   23  C   UNL     1      30.502  44.067  55.891  1.00  0.00     0.417 C 
HETATM   24  F   UNL     1      30.906  42.889  56.441  1.00  0.00    -0.166 F 
HETATM   25  F   UNL     1      31.611  44.621  55.332  1.00  0.00    -0.166 F 
HETATM   26  F   UNL     1      30.167  44.873  56.937  1.00  0.00    -0.166 F 
ENDBRANCH  21  23
ENDBRANCH   3  16
TORSDOF 5
ENDMDL
MODEL 2
REMARK VINA RESULT:      -8.2      2.276      3.565
REMARK  5 active torsions:
REMARK  status: ('A' for Active; 'I' for Inactive)
REMARK    1  A    between atoms: C_2  and  C_3 
REMARK    2  A    between atoms: C_3  and  N_4 
REMARK    3  A    between atoms: C_3  and  C_19 
REMARK       I    between atoms: N_4  and  C_5 
REMARK       I    between atoms: C_5  and  N_6 
REMARK    4  A    between atoms: N_6  and  C_7 
REMARK    5  A    between atoms: C_12  and  C_13 
ROOT
HETATM    1  N   UNL     1      27.059  44.717  51.944  1.00  0.00    -0.334 N 
HETATM    2  C   UNL     1      27.829  43.619  52.086  1.00  0.00     0.321 C 
HETATM    3  N   UNL     1      28.687  43.520  53.129  1.00  0.00    -0.306 N 
HETATM    4  O   UNL     1      27.806  42.688  51.281  1.00  0.00    -0.247 OA
HETATM    5  H   UNL     1      26.939  45.304  52.751  1.00  0.00     0.165 HD
HETATM    6  H   UNL     1      29.204  42.654  53.021  1.00  0.00     0.171 HD
ENDROOT
BRANCH   1   7
HETATM    7  C   UNL     1      26.024  44.793  50.927  1.00  0.00     0.122 C 
BRANCH   7   8
HETATM    8  C   UNL     1      24.680  44.233  51.440  1.00  0.00     0.026 C 
HETATM    9  C   UNL     1      24.217  42.959  50.741  1.00  0.00     0.007 C 
ENDBRANCH   7   8
BRANCH   7  10
HETATM   10  C   UNL     1      25.909  46.196  50.409  1.00  0.00     0.001 A 
HETATM   11  C   UNL     1      26.802  46.974  49.693  1.00  0.00     0.122 A 
HETATM   12  N   UNL     1      26.191  48.175  49.482  1.00  0.00    -0.285 N 
HETATM   13  C   UNL     1      26.728  49.311  48.773  1.00  0.00     0.179 C 
HETATM   14  N   UNL     1      24.962  48.251  50.016  1.00  0.00    -0.185 NA
HETATM   15  C   UNL     1      24.787  47.050  50.568  1.00  0.00     0.149 A 
ENDBRANCH   7  10
ENDBRANCH   1   7
BRANCH   3  16
HETATM   16  C   UNL     1      29.018  44.290  54.264  1.00  0.00     0.075 A 
HETATM   17  C   UNL     1      28.479  45.523  54.642  1.00  0.00     0.143 A 
HETATM   18  F   UNL     1      27.518  46.128  53.934  1.00  0.00    -0.204 F 
HETATM   19  C   UNL     1      28.897  46.175  55.805  1.00  0.00     0.045 A 
HETATM   20  C   UNL     1      29.863  45.600  56.627  1.00  0.00     0.019 A 
HETATM   21  C   UNL     1      30.423  44.365  56.286  1.00  0.00     0.050 A 
HETATM   22  C   UNL     1      29.990  43.723  55.109  1.00  0.00     0.049 A 
BRANCH  21  23
HETATM   23  C   UNL     1      31.447  43.701  57.176  1.00  0.00     0.417 C 
HETATM   24  F   UNL     1      32.676  43.594  56.601  1.00  0.00    -0.166 F 
HETATM   25  F   UNL     1      31.633  44.379  58.341  1.00  0.00    -0.166 F 
HETATM   26  F   UNL     1      31.089  42.436  57.532  1.00  0.00    -0.166 F 
ENDBRANCH  21  23
ENDBRANCH   3  16
TORSDOF 5
ENDMDL
MODEL 3
REMARK VINA RESULT:      -8.0      2.157      3.307
REMARK  5 active torsions:
REMARK  status: ('A' for Active; 'I' for Inactive)
REMARK    1  A    between atoms: C_2  and  C_3 
REMARK    2  A    between atoms: C_3  and  N_4 
REMARK    3  A    between atoms: C_3  and  C_19 
REMARK       I    between atoms: N_4  and  C_5 
REMARK       I    between atoms: C_5  and  N_6 
REMARK    4  A    between atoms: N_6  and  C_7 
REMARK    5  A    between atoms: C_12  and  C_13 
ROOT
HETATM    1  N   UNL     1      26.270  46.146  53.035  1.00  0.00    -0.334 N 
HETATM    2  C   UNL     1      26.361  46.957  54.108  1.00  0.00     0.321 C 
HETATM    3  N   UNL     1      27.293  46.722  55.062  1.00  0.00    -0.306 N 
HETATM    4  O   UNL     1      25.603  47.913  54.279  1.00  0.00    -0.247 OA
HETATM    5  H   UNL     1      27.061  45.561  52.830  1.00  0.00     0.165 HD
HETATM    6  H   UNL     1      27.158  47.404  55.800  1.00  0.00     0.171 HD
ENDROOT
BRANCH   1   7
HETATM    7  C   UNL     1      25.387  46.454  51.923  1.00  0.00     0.122 C 
BRANCH   7   8
HETATM    8  C   UNL     1      26.107  47.278  50.834  1.00  0.00     0.026 C 
HETATM    9  C   UNL     1      26.864  46.445  49.806  1.00  0.00     0.007 C 
ENDBRANCH   7   8
BRANCH   7  10
HETATM   10  C   UNL     1      24.772  45.195  51.385  1.00  0.00     0.001 A 
HETATM   11  C   UNL     1      23.873  44.995  50.352  1.00  0.00     0.122 A 
HETATM   12  N   UNL     1      23.644  43.652  50.289  1.00  0.00    -0.285 N 
HETATM   13  C   UNL     1      22.780  42.959  49.363  1.00  0.00     0.179 C 
HETATM   14  N   UNL     1      24.319  42.950  51.213  1.00  0.00    -0.185 NA
HETATM   15  C   UNL     1      25.010  43.883  51.870  1.00  0.00     0.149 A 
ENDBRANCH   7  10
ENDBRANCH   1   7
BRANCH   3  16
HETATM   16  C   UNL     1      28.346  45.805  55.265  1.00  0.00     0.075 A 
HETATM   17  C   UNL     1      29.251  45.772  56.329  1.00  0.00     0.143 A 
HETATM   18  F   UNL     1      29.198  46.648  57.339  1.00  0.00    -0.204 F 
HETATM   19  C   UNL     1      30.247  44.795  56.408  1.00  0.00     0.045 A 
HETATM   20  C   UNL     1      30.354  43.816  55.423  1.00  0.00     0.019 A 
HETATM   21  C   UNL     1      29.463  43.812  54.345  1.00  0.00     0.050 A 
HETATM   22  C   UNL     1      28.466  44.806  54.281  1.00  0.00     0.049 A 
BRANCH  21  23
HETATM   23  C   UNL     1      29.532  42.742  53.280  1.00  0.00     0.417 C 
HETATM   24  F   UNL     1      28.844  41.613  53.603  1.00  0.00    -0.166 F 
HETATM   25  F   UNL     1      29.023  43.167  52.092  1.00  0.00    -0.166 F 
HETATM   26  F   UNL     1      30.807  42.342  53.020  1.00  0.00    -0.166 F 
ENDBRANCH  21  23
ENDBRANCH   3  16
TORSDOF 5
ENDMDL
MODEL 4
REMARK VINA RESULT:      -7.9      2.109      3.086
REMARK  5 active torsions:
REMARK  status: ('A' for Active; 'I' for Inactive)
REMARK    1  A    between atoms: C_2  and  C_3 
REMARK    2  A    between atoms: C_3  and  N_4 
REMARK    3  A    between atoms: C_3  and  C_19 
REMARK       I    between atoms: N_4  and  C_5 
REMARK       I    between atoms: C_5  and  N_6 
REMARK    4  A    between atoms: N_6  and  C_7 
REMARK    5  A    between atoms: C_12  and  C_13 
ROOT
HETATM    1  N   UNL     1      26.318  43.980  50.893  1.00  0.00    -0.334 N 
HETATM    2  C   UNL     1      25.495  43.763  51.939  1.00  0.00     0.321 C 
HETATM    3  N   UNL     1      26.007  43.518  53.168  1.00  0.00    -0.306 N 
HETATM    4  O   UNL     1      24.269  43.753  51.823  1.00  0.00    -0.247 OA
HETATM    5  H   UNL     1      27.271  44.227  51.098  1.00  0.00     0.165 HD
HETATM    6  H   UNL     1      25.231  43.329  53.793  1.00  0.00     0.171 HD
ENDROOT
BRANCH   1   7
HETATM    7  C   UNL     1      25.807  44.393  49.597  1.00  0.00     0.122 C 
BRANCH   7   8
HETATM    8  C   UNL     1      24.755  43.399  49.058  1.00  0.00     0.026 C 
HETATM    9  C   UNL     1      25.323  42.055  48.617  1.00  0.00     0.007 C 
ENDBRANCH   7   8
BRANCH   7  10
HETATM   10  C   UNL     1      25.293  45.801  49.666  1.00  0.00     0.001 A 
HETATM   11  C   UNL     1      24.044  46.324  49.380  1.00  0.00     0.122 A 
HETATM   12  N   UNL     1      24.122  47.667  49.610  1.00  0.00    -0.285 N 
HETATM   13  C   UNL     1      23.066  48.638  49.457  1.00  0.00     0.179 C 
HETATM   14  N   UNL     1      25.336  48.070  50.016  1.00  0.00    -0.185 NA
HETATM   15  C   UNL     1      26.042  46.939  50.060  1.00  0.00     0.149 A 
ENDBRANCH   7  10
ENDBRANCH   1   7
BRANCH   3  16
HETATM   16  C   UNL     1      27.289  43.463  53.754  1.00  0.00     0.075 A 
HETATM   17  C   UNL     1      28.198  42.402  53.716  1.00  0.00     0.143 A 
HETATM   18  F   UNL     1      27.938  41.265  53.061  1.00  0.00    -0.204 F 
HETATM   19  C   UNL     1      29.445  42.488  54.339  1.00  0.00     0.045 A 
HETATM   20  C   UNL     1      29.819  43.649  55.010  1.00  0.00     0.019 A 
HETATM   21  C   UNL     1      28.941  44.736  55.067  1.00  0.00     0.050 A 
HETATM   22  C   UNL     1      27.686  44.630  54.434  1.00  0.00     0.049 A 
BRANCH  21  23
HETATM   23  C   UNL     1      29.333  46.021  55.756  1.00  0.00     0.417 C 
HETATM   24  F   UNL     1      28.939  47.137  55.084  1.00  0.00    -0.166 F 
HETATM   25  F   UNL     1      28.793  46.121  57.001  1.00  0.00    -0.166 F 
HETATM   26  F   UNL     1      30.679  46.138  55.921  1.00  0.00    -0.166 F 
ENDBRANCH  21  23
ENDBRANCH   3  16
TORSDOF 5
ENDMDL
MODEL 5
REMARK VINA RESULT:      -7.9      3.213      4.666
REMARK  5 active torsions:
REMARK  status: ('A' for Active; 'I' for Inactive)
REMARK    1  A    between atoms: C_2  and  C_3 
REMARK    2  A    between atoms: C_3  and  N_4 
REMARK    3  A    between atoms: C_3  and  C_19 
REMARK       I    between atoms: N_4  and  C_5 
REMARK       I    between atoms: C_5  and  N_6 
REMARK    4  A    between atoms: N_6  and  C_7 
REMARK    5  A    between atoms: C_12  and  C_13 
ROOT
HETATM    1  N   UNL     1      26.640  43.938  51.834  1.00  0.00    -0.334 N 
HETATM    2  C   UNL     1      25.693  44.116  52.777  1.00  0.00     0.321 C 
HETATM    3  N   UNL     1      26.025  44.627  53.986  1.00  0.00    -0.306 N 
HETATM    4  O   UNL     1      24.515  43.806  52.596  1.00  0.00    -0.247 OA
HETATM    5  H   UNL     1      27.505  44.438  51.947  1.00  0.00     0.165 HD
HETATM    6  H   UNL     1      25.189  44.627  54.560  1.00  0.00     0.171 HD
ENDROOT
BRANCH   1   7
HETATM    7  C   UNL     1      26.298  43.535  50.480  1.00  0.00     0.122 C 
BRANCH   7   8
HETATM    8  C   UNL     1      26.514  44.684  49.472  1.00  0.00     0.026 C 
HETATM    9  C   UNL     1      25.536  45.845  49.617  1.00  0.00     0.007 C 
ENDBRANCH   7   8
BRANCH   7  10
HETATM   10  C   UNL     1      27.044  42.287  50.107  1.00  0.00     0.001 A 
HETATM   11  C   UNL     1      27.241  41.683  48.877  1.00  0.00     0.122 A 
HETATM   12  N   UNL     1      27.992  40.568  49.106  1.00  0.00    -0.285 N 
HETATM   13  C   UNL     1      28.459  39.617  48.127  1.00  0.00     0.179 C 
HETATM   14  N   UNL     1      28.298  40.386  50.401  1.00  0.00    -0.185 NA
HETATM   15  C   UNL     1      27.733  41.432  51.005  1.00  0.00     0.149 A 
ENDBRANCH   7  10
ENDBRANCH   1   7
BRANCH   3  16
HETATM   16  C   UNL     1      27.189  45.129  54.605  1.00  0.00     0.075 A 
HETATM   17  C   UNL     1      27.376  46.396  55.164  1.00  0.00     0.143 A 
HETATM   18  F   UNL     1      26.403  47.314  55.192  1.00  0.00    -0.204 F 
HETATM   19  C   UNL     1      28.589  46.760  55.755  1.00  0.00     0.045 A 
HETATM   20  C   UNL     1      29.646  45.855  55.810  1.00  0.00     0.019 A 
HETATM   21  C   UNL     1      29.497  44.575  55.266  1.00  0.00     0.050 A 
HETATM   22  C   UNL     1      28.267  44.227  54.672  1.00  0.00     0.049 A 
BRANCH  21  23
HETATM   23  C   UNL     1      30.613  43.560  55.341  1.00  0.00     0.417 C 
HETATM   24  F   UNL     1      30.882  42.962  54.148  1.00  0.00    -0.166 F 
HETATM   25  F   UNL     1      31.784  44.115  55.757  1.00  0.00    -0.166 F 
HETATM   26  F   UNL     1      30.345  42.551  56.214  1.00  0.00    -0.166 F 
ENDBRANCH  21  23
ENDBRANCH   3  16
TORSDOF 5
ENDMDL
MODEL 6
REMARK VINA RESULT:      -7.8      3.781      8.250
REMARK  5 active torsions:
REMARK  status: ('A' for Active; 'I' for Inactive)
REMARK    1  A    between atoms: C_2  and  C_3 
REMARK    2  A    between atoms: C_3  and  N_4 
REMARK    3  A    between atoms: C_3  and  C_19 
REMARK       I    between atoms: N_4  and  C_5 
REMARK       I    between atoms: C_5  and  N_6 
REMARK    4  A    between atoms: N_6  and  C_7 
REMARK    5  A    between atoms: C_12  and  C_13 
ROOT
HETATM    1  N   UNL     1      25.985  45.739  52.052  1.00  0.00    -0.334 N 
HETATM    2  C   UNL     1      24.803  45.462  51.465  1.00  0.00     0.321 C 
HETATM    3  N   UNL     1      24.299  46.296  50.524  1.00  0.00    -0.306 N 
HETATM    4  O   UNL     1      24.131  44.475  51.767  1.00  0.00    -0.247 OA
HETATM    5  H   UNL     1      26.588  46.397  51.589  1.00  0.00     0.165 HD
HETATM    6  H   UNL     1      23.388  45.941  50.254  1.00  0.00     0.171 HD
ENDROOT
BRANCH   1   7
HETATM    7  C   UNL     1      26.625  44.795  52.953  1.00  0.00     0.122 C 
BRANCH   7   8
HETATM    8  C   UNL     1      27.696  43.953  52.226  1.00  0.00     0.026 C 
HETATM    9  C   UNL     1      27.617  42.455  52.500  1.00  0.00     0.007 C 
ENDBRANCH   7   8
BRANCH   7  10
HETATM   10  C   UNL     1      27.166  45.510  54.155  1.00  0.00     0.001 A 
HETATM   11  C   UNL     1      28.024  45.083  55.154  1.00  0.00     0.122 A 
HETATM   12  N   UNL     1      28.186  46.135  56.006  1.00  0.00    -0.285 N 
HETATM   13  C   UNL     1      28.998  46.173  57.198  1.00  0.00     0.179 C 
HETATM   14  N   UNL     1      27.488  47.225  55.648  1.00  0.00    -0.185 NA
HETATM   15  C   UNL     1      26.880  46.850  54.522  1.00  0.00     0.149 A 
ENDBRANCH   7  10
ENDBRANCH   1   7
BRANCH   3  16
HETATM   16  C   UNL     1      24.713  47.475  49.869  1.00  0.00     0.075 A 
HETATM   17  C   UNL     1      26.012  47.830  49.498  1.00  0.00     0.143 A 
HETATM   18  F   UNL     1      27.061  47.031  49.720  1.00  0.00    -0.204 F 
HETATM   19  C   UNL     1      26.279  49.035  48.842  1.00  0.00     0.045 A 
HETATM   20  C   UNL     1      25.243  49.913  48.532  1.00  0.00     0.019 A 
HETATM   21  C   UNL     1      23.928  49.591  48.882  1.00  0.00     0.050 A 
HETATM   22  C   UNL     1      23.678  48.372  49.544  1.00  0.00     0.049 A 
BRANCH  21  23
HETATM   23  C   UNL     1      22.780  50.506  48.527  1.00  0.00     0.417 C 
HETATM   24  F   UNL     1      21.774  50.493  49.445  1.00  0.00    -0.166 F 
HETATM   25  F   UNL     1      23.172  51.804  48.417  1.00  0.00    -0.166 F 
HETATM   26  F   UNL     1      22.203  50.186  47.336  1.00  0.00    -0.166 F 
ENDBRANCH  21  23
ENDBRANCH   3  16
TORSDOF 5
ENDMDL
MODEL 7
REMARK VINA RESULT:      -7.7      5.425      9.200
REMARK  5 active torsions:
REMARK  status: ('A' for Active; 'I' for Inactive)
REMARK    1  A    between atoms: C_2  and  C_3 
REMARK    2  A    between atoms: C_3  and  N_4 
REMARK    3  A    between atoms: C_3  and  C_19 
REMARK       I    between atoms: N_4  and  C_5 
REMARK       I    between atoms: C_5  and  N_6 
REMARK    4  A    between atoms: N_6  and  C_7 
REMARK    5  A    between atoms: C_12  and  C_13 
ROOT
HETATM    1  N   UNL     1      24.323  47.555  49.873  1.00  0.00    -0.334 N 
HETATM    2  C   UNL     1      23.375  46.836  49.239  1.00  0.00     0.321 C 
HETATM    3  N   UNL     1      22.237  47.435  48.814  1.00  0.00    -0.306 N 
HETATM    4  O   UNL     1      23.486  45.625  49.042  1.00  0.00    -0.247 OA
HETATM    5  H   UNL     1      24.289  48.555  49.772  1.00  0.00     0.165 HD
HETATM    6  H   UNL     1      21.640  46.717  48.417  1.00  0.00     0.171 HD
ENDROOT
BRANCH   1   7
HETATM    7  C   UNL     1      25.615  46.980  50.208  1.00  0.00     0.122 C 
BRANCH   7   8
HETATM    8  C   UNL     1      26.767  47.970  49.933  1.00  0.00     0.026 C 
HETATM    9  C   UNL     1      26.422  49.084  48.951  1.00  0.00     0.007 C 
ENDBRANCH   7   8
BRANCH   7  10
HETATM   10  C   UNL     1      25.607  46.477  51.622  1.00  0.00     0.001 A 
HETATM   11  C   UNL     1      25.234  45.252  52.146  1.00  0.00     0.122 A 
HETATM   12  N   UNL     1      25.422  45.330  53.495  1.00  0.00    -0.285 N 
HETATM   13  C   UNL     1      25.178  44.295  54.469  1.00  0.00     0.179 C 
HETATM   14  N   UNL     1      25.884  46.523  53.901  1.00  0.00    -0.185 NA
HETATM   15  C   UNL     1      26.006  47.214  52.767  1.00  0.00     0.149 A 
ENDBRANCH   7  10
ENDBRANCH   1   7
BRANCH   3  16
HETATM   16  C   UNL     1      21.711  48.744  48.793  1.00  0.00     0.075 A 
HETATM   17  C   UNL     1      22.301  49.889  48.251  1.00  0.00     0.143 A 
HETATM   18  F   UNL     1      23.489  49.857  47.638  1.00  0.00    -0.204 F 
HETATM   19  C   UNL     1      21.659  51.130  48.295  1.00  0.00     0.045 A 
HETATM   20  C   UNL     1      20.400  51.252  48.877  1.00  0.00     0.019 A 
HETATM   21  C   UNL     1      19.774  50.128  49.427  1.00  0.00     0.050 A 
HETATM   22  C   UNL     1      20.438  48.886  49.374  1.00  0.00     0.049 A 
BRANCH  21  23
HETATM   23  C   UNL     1      18.394  50.222  50.033  1.00  0.00     0.417 C 
HETATM   24  F   UNL     1      18.015  51.498  50.320  1.00  0.00    -0.166 F 
HETATM   25  F   UNL     1      17.435  49.721  49.208  1.00  0.00    -0.166 F 
HETATM   26  F   UNL     1      18.286  49.528  51.199  1.00  0.00    -0.166 F 
ENDBRANCH  21  23
ENDBRANCH   3  16
TORSDOF 5
ENDMDL
MODEL 8
REMARK VINA RESULT:      -7.6      2.185      2.907
REMARK  5 active torsions:
REMARK  status: ('A' for Active; 'I' for Inactive)
REMARK    1  A    between atoms: C_2  and  C_3 
REMARK    2  A    between atoms: C_3  and  N_4 
REMARK    3  A    between atoms: C_3  and  C_19 
REMARK       I    between atoms: N_4  and  C_5 
REMARK       I    between atoms: C_5  and  N_6 
REMARK    4  A    between atoms: N_6  and  C_7 
REMARK    5  A    between atoms: C_12  and  C_13 
ROOT
HETATM    1  N   UNL     1      26.360  44.596  51.430  1.00  0.00    -0.334 N 
HETATM    2  C   UNL     1      25.736  44.181  52.551  1.00  0.00     0.321 C 
HETATM    3  N   UNL     1      26.454  43.667  53.578  1.00  0.00    -0.306 N 
HETATM    4  O   UNL     1      24.513  44.228  52.681  1.00  0.00    -0.247 OA
HETATM    5  H   UNL     1      27.349  44.768  51.488  1.00  0.00     0.165 HD
HETATM    6  H   UNL     1      25.798  43.369  54.292  1.00  0.00     0.171 HD
ENDROOT
BRANCH   1   7
HETATM    7  C   UNL     1      25.643  45.288  50.372  1.00  0.00     0.122 C 
BRANCH   7   8
HETATM    8  C   UNL     1      26.530  46.344  49.680  1.00  0.00     0.026 C 
HETATM    9  C   UNL     1      26.282  47.777  50.136  1.00  0.00     0.007 C 
ENDBRANCH   7   8
BRANCH   7  10
HETATM   10  C   UNL     1      25.058  44.298  49.408  1.00  0.00     0.001 A 
HETATM   11  C   UNL     1      25.412  42.990  49.127  1.00  0.00     0.122 A 
HETATM   12  N   UNL     1      24.551  42.551  48.164  1.00  0.00    -0.285 N 
HETATM   13  C   UNL     1      24.522  41.244  47.553  1.00  0.00     0.179 C 
HETATM   14  N   UNL     1      23.660  43.479  47.781  1.00  0.00    -0.185 NA
HETATM   15  C   UNL     1      23.960  44.533  48.541  1.00  0.00     0.149 A 
ENDBRANCH   7  10
ENDBRANCH   1   7
BRANCH   3  16
HETATM   16  C   UNL     1      27.817  43.455  53.875  1.00  0.00     0.075 A 
HETATM   17  C   UNL     1      28.684  42.536  53.280  1.00  0.00     0.143 A 
HETATM   18  F   UNL     1      28.293  41.723  52.291  1.00  0.00    -0.204 F 
HETATM   19  C   UNL     1      30.022  42.438  53.670  1.00  0.00     0.045 A 
HETATM   20  C   UNL     1      30.529  43.272  54.663  1.00  0.00     0.019 A 
HETATM   21  C   UNL     1      29.695  44.210  55.279  1.00  0.00     0.050 A 
HETATM   22  C   UNL     1      28.347  44.292  54.874  1.00  0.00     0.049 A 
BRANCH  21  23
HETATM   23  C   UNL     1      30.225  45.152  56.335  1.00  0.00     0.417 C 
HETATM   24  F   UNL     1      29.303  45.475  57.283  1.00  0.00    -0.166 F 
HETATM   25  F   UNL     1      31.286  44.627  57.005  1.00  0.00    -0.166 F 
HETATM   26  F   UNL     1      30.656  46.333  55.813  1.00  0.00    -0.166 F 
ENDBRANCH  21  23
ENDBRANCH   3  16
TORSDOF 5
ENDMDL
MODEL 9
REMARK VINA RESULT:      -7.5      4.568      8.802
REMARK  5 active torsions:
REMARK  status: ('A' for Active; 'I' for Inactive)
REMARK    1  A    between atoms: C_2  and  C_3 
REMARK    2  A    between atoms: C_3  and  N_4 
REMARK    3  A    between atoms: C_3  and  C_19 
REMARK       I    between atoms: N_4  and  C_5 
REMARK       I    between atoms: C_5  and  N_6 
REMARK    4  A    between atoms: N_6  and  C_7 
REMARK    5  A    between atoms: C_12  and  C_13 
ROOT
HETATM    1  N   UNL     1      24.774  46.528  50.622  1.00  0.00    -0.334 N 
HETATM    2  C   UNL     1      23.750  46.143  49.833  1.00  0.00     0.321 C 
HETATM    3  N   UNL     1      23.029  47.067  49.155  1.00  0.00    -0.306 N 
HETATM    4  O   UNL     1      23.416  44.963  49.715  1.00  0.00    -0.247 OA
HETATM    5  H   UNL     1      25.149  47.449  50.475  1.00  0.00     0.165 HD
HETATM    6  H   UNL     1      22.281  46.580  48.673  1.00  0.00     0.171 HD
ENDROOT
BRANCH   1   7
HETATM    7  C   UNL     1      25.661  45.559  51.244  1.00  0.00     0.122 C 
BRANCH   7   8
HETATM    8  C   UNL     1      26.838  45.187  50.316  1.00  0.00     0.026 C 
HETATM    9  C   UNL     1      26.931  43.704  49.975  1.00  0.00     0.007 C 
ENDBRANCH   7   8
BRANCH   7  10
HETATM   10  C   UNL     1      26.113  46.055  52.585  1.00  0.00     0.001 A 
HETATM   11  C   UNL     1      25.845  47.239  53.250  1.00  0.00     0.122 A 
HETATM   12  N   UNL     1      26.512  47.178  54.439  1.00  0.00    -0.285 N 
HETATM   13  C   UNL     1      26.531  48.179  55.478  1.00  0.00     0.179 C 
HETATM   14  N   UNL     1      27.210  46.044  54.602  1.00  0.00    -0.185 NA
HETATM   15  C   UNL     1      26.961  45.359  53.485  1.00  0.00     0.149 A 
ENDBRANCH   7  10
ENDBRANCH   1   7
BRANCH   3  16
HETATM   16  C   UNL     1      23.065  48.465  48.971  1.00  0.00     0.075 A 
HETATM   17  C   UNL     1      24.174  49.253  48.651  1.00  0.00     0.143 A 
HETATM   18  F   UNL     1      25.388  48.728  48.452  1.00  0.00    -0.204 F 
HETATM   19  C   UNL     1      24.063  50.636  48.490  1.00  0.00     0.045 A 
HETATM   20  C   UNL     1      22.829  51.266  48.637  1.00  0.00     0.019 A 
HETATM   21  C   UNL     1      21.694  50.512  48.952  1.00  0.00     0.050 A 
HETATM   22  C   UNL     1      21.826  49.118  49.112  1.00  0.00     0.049 A 
BRANCH  21  23
HETATM   23  C   UNL     1      20.337  51.162  49.082  1.00  0.00     0.417 C 
HETATM   24  F   UNL     1      20.024  51.508  50.361  1.00  0.00    -0.166 F 
HETATM   25  F   UNL     1      20.241  52.303  48.348  1.00  0.00    -0.166 F 
HETATM   26  F   UNL     1      19.327  50.355  48.655  1.00  0.00    -0.166 F 
ENDBRANCH  21  23
ENDBRANCH   3  16
TORSDOF 5
ENDMDL
MODEL 10
REMARK VINA RESULT:      -7.5      3.066      4.903
REMARK  5 active torsions:
REMARK  status: ('A' for Active; 'I' for Inactive)
REMARK    1  A    between atoms: C_2  and  C_3 
REMARK    2  A    between atoms: C_3  and  N_4 
REMARK    3  A    between atoms: C_3  and  C_19 
REMARK       I    between atoms: N_4  and  C_5 
REMARK       I    between atoms: C_5  and  N_6 
REMARK    4  A    between atoms: N_6  and  C_7 
REMARK    5  A    between atoms: C_12  and  C_13 
ROOT
HETATM    1  N   UNL     1      25.829  44.928  52.152  1.00  0.00    -0.334 N 
HETATM    2  C   UNL     1      25.004  43.942  51.747  1.00  0.00     0.321 C 
HETATM    3  N   UNL     1      25.466  42.675  51.625  1.00  0.00    -0.306 N 
HETATM    4  O   UNL     1      23.825  44.146  51.454  1.00  0.00    -0.247 OA
HETATM    5  H   UNL     1      26.681  44.658  52.613  1.00  0.00     0.165 HD
HETATM    6  H   UNL     1      24.711  42.105  51.259  1.00  0.00     0.171 HD
ENDROOT
BRANCH   1   7
HETATM    7  C   UNL     1      25.333  46.264  52.438  1.00  0.00     0.122 C 
BRANCH   7   8
HETATM    8  C   UNL     1      25.980  46.851  53.711  1.00  0.00     0.026 C 
HETATM    9  C   UNL     1      27.199  46.085  54.212  1.00  0.00     0.007 C 
ENDBRANCH   7   8
BRANCH   7  10
HETATM   10  C   UNL     1      25.506  47.149  51.238  1.00  0.00     0.001 A 
HETATM   11  C   UNL     1      26.640  47.728  50.696  1.00  0.00     0.122 A 
HETATM   12  N   UNL     1      26.231  48.440  49.606  1.00  0.00    -0.285 N 
HETATM   13  C   UNL     1      27.059  49.211  48.711  1.00  0.00     0.179 C 
HETATM   14  N   UNL     1      24.907  48.382  49.396  1.00  0.00    -0.185 NA
HETATM   15  C   UNL     1      24.469  47.592  50.377  1.00  0.00     0.149 A 
ENDBRANCH   7  10
ENDBRANCH   1   7
BRANCH   3  16
HETATM   16  C   UNL     1      26.679  41.997  51.868  1.00  0.00     0.075 A 
HETATM   17  C   UNL     1      27.472  42.056  53.017  1.00  0.00     0.143 A 
HETATM   18  F   UNL     1      27.130  42.791  54.081  1.00  0.00    -0.204 F 
HETATM   19  C   UNL     1      28.654  41.319  53.126  1.00  0.00     0.045 A 
HETATM   20  C   UNL     1      29.068  40.493  52.084  1.00  0.00     0.019 A 
HETATM   21  C   UNL     1      28.300  40.402  50.919  1.00  0.00     0.050 A 
HETATM   22  C   UNL     1      27.111  41.154  50.827  1.00  0.00     0.049 A 
BRANCH  21  23
HETATM   23  C   UNL     1      28.705  39.488  49.787  1.00  0.00     0.417 C 
HETATM   24  F   UNL     1      29.688  38.610  50.126  1.00  0.00    -0.166 F 
HETATM   25  F   UNL     1      27.665  38.735  49.338  1.00  0.00    -0.166 F 
HETATM   26  F   UNL     1      29.170  40.170  48.703  1.00  0.00    -0.166 F 
ENDBRANCH  21  23
ENDBRANCH   3  16
TORSDOF 5
ENDMDL
