MODEL 1
REMARK VINA RESULT:      -9.7      0.000      0.000
REMARK  7 active torsions:
REMARK  status: ('A' for Active; 'I' for Inactive)
REMARK    1  A    between atoms: C_2  and  C_3 
REMARK    2  A    between atoms: C_6  and  C_7 
REMARK    3  A    between atoms: N_9  and  C_10 
REMARK    4  A    between atoms: C_10  and  C_11 
REMARK    5  A    between atoms: C_18  and  C_19 
REMARK       I    between atoms: C_19  and  N_20 
REMARK    6  A    between atoms: N_20  and  C_21 
REMARK    7  A    between atoms: C_24  and  O_25 
ROOT
HETATM    1  C   UNL     1      26.937  44.486  51.446  1.00  0.00     0.104 A 
HETATM    2  N   UNL     1      26.296  45.661  51.611  1.00  0.00    -0.171 NA
HETATM    3  N   UNL     1      25.506  45.777  50.539  1.00  0.00    -0.275 N 
HETATM    4  C   UNL     1      25.622  44.737  49.669  1.00  0.00     0.132 A 
HETATM    5  C   UNL     1      26.512  43.836  50.235  1.00  0.00     0.080 A 
ENDROOT
BRANCH   5   6
HETATM    6  C   UNL     1      26.893  42.531  49.693  1.00  0.00     0.255 C 
HETATM    7  N   UNL     1      26.587  41.465  50.511  1.00  0.00    -0.352 N 
HETATM    8  H   UNL     1      26.254  41.684  51.438  1.00  0.00     0.163 HD
HETATM    9  O   UNL     1      27.445  42.401  48.609  1.00  0.00    -0.268 OA
BRANCH   7  10
HETATM   10  C   UNL     1      26.850  40.048  50.263  1.00  0.00     0.084 C 
HETATM   11  C   UNL     1      26.083  39.469  49.067  1.00  0.00     0.028 C 
HETATM   12  C   UNL     1      26.845  39.461  47.743  1.00  0.00     0.034 C 
HETATM   13  C   UNL     1      28.268  38.935  47.892  1.00  0.00     0.118 C 
HETATM   14  C   UNL     1      29.048  39.701  48.955  1.00  0.00     0.034 C 
HETATM   15  C   UNL     1      28.340  39.687  50.309  1.00  0.00     0.028 C 
BRANCH  13  16
HETATM   16  O   UNL     1      28.206  37.554  48.254  1.00  0.00    -0.396 OA
HETATM   17  H   UNL     1      27.840  37.511  49.154  1.00  0.00     0.210 HD
ENDBRANCH  13  16
ENDBRANCH   7  10
ENDBRANCH   5   6
BRANCH   1  18
HETATM   18  C   UNL     1      27.884  44.063  52.480  1.00  0.00    -0.005 A 
HETATM   19  C   UNL     1      27.676  44.460  53.808  1.00  0.00     0.014 A 
HETATM   20  C   UNL     1      28.595  44.133  54.813  1.00  0.00     0.008 A 
HETATM   21  C   UNL     1      29.751  43.408  54.511  1.00  0.00    -0.059 A 
HETATM   22  C   UNL     1      29.954  43.007  53.180  1.00  0.00     0.008 A 
HETATM   23  C   UNL     1      29.037  43.339  52.174  1.00  0.00     0.014 A 
BRANCH  21  24
HETATM   24  C   UNL     1      30.792  43.027  55.539  1.00  0.00     0.034 C 
HETATM   25  C   UNL     1      31.161  44.088  56.568  1.00  0.00     0.010 C 
ENDBRANCH  21  24
ENDBRANCH   1  18
BRANCH   3  26
HETATM   26  C   UNL     1      24.628  46.936  50.409  1.00  0.00     0.189 C 
BRANCH  26  27
HETATM   27  C   UNL     1      25.267  48.044  49.606  1.00  0.00    -0.038 A 
HETATM   28  C   UNL     1      24.486  48.928  48.844  1.00  0.00     0.009 A 
HETATM   29  C   UNL     1      25.082  49.956  48.113  1.00  0.00     0.001 A 
HETATM   30  C   UNL     1      26.465  50.124  48.148  1.00  0.00     0.000 A 
HETATM   31  C   UNL     1      27.251  49.267  48.916  1.00  0.00     0.001 A 
HETATM   32  C   UNL     1      26.656  48.235  49.644  1.00  0.00     0.009 A 
ENDBRANCH  26  27
ENDBRANCH   3  26
TORSDOF 7
ENDMDL
MODEL 2
REMARK VINA RESULT:      -9.4      5.882     10.713
REMARK  7 active torsions:
REMARK  status: ('A' for Active; 'I' for Inactive)
REMARK    1  A    between atoms: C_2  and  C_3 
REMARK    2  A    between atoms: C_6  and  C_7 
REMARK    3  A    between atoms: N_9  and  C_10 
REMARK    4  A    between atoms: C_10  and  C_11 
REMARK    5  A    between atoms: C_18  and  C_19 
REMARK       I    between atoms: C_19  and  N_20 
REMARK    6  A    between atoms: N_20  and  C_21 
REMARK    7  A    between atoms: C_24  and  O_25 
ROOT
HETATM    1  C   UNL     1      21.936  49.021  49.125  1.00  0.00     0.104 A 
HETATM    2  N   UNL     1      23.180  49.362  49.516  1.00  0.00    -0.171 NA
HETATM    3  N   UNL     1      23.931  48.286  49.259  1.00  0.00    -0.275 N 
HETATM    4  C   UNL     1      23.222  47.247  48.738  1.00  0.00     0.132 A 
HETATM    5  C   UNL     1      21.915  47.688  48.584  1.00  0.00     0.080 A 
ENDROOT
BRANCH   5   6
HETATM    6  C   UNL     1      20.807  46.937  47.991  1.00  0.00     0.255 C 
HETATM    7  N   UNL     1      19.700  47.702  47.691  1.00  0.00    -0.352 N 
HETATM    8  H   UNL     1      19.706  48.657  48.015  1.00  0.00     0.163 HD
HETATM    9  O   UNL     1      20.858  45.732  47.790  1.00  0.00    -0.268 OA
BRANCH   7  10
HETATM   10  C   UNL     1      18.437  47.248  47.110  1.00  0.00     0.084 C 
HETATM   11  C   UNL     1      17.495  46.571  48.113  1.00  0.00     0.028 C 
HETATM   12  C   UNL     1      16.447  47.484  48.746  1.00  0.00     0.034 C 
HETATM   13  C   UNL     1      15.745  48.366  47.720  1.00  0.00     0.118 C 
HETATM   14  C   UNL     1      16.737  49.179  46.896  1.00  0.00     0.034 C 
HETATM   15  C   UNL     1      17.773  48.293  46.204  1.00  0.00     0.028 C 
BRANCH  13  16
HETATM   16  O   UNL     1      14.981  47.529  46.850  1.00  0.00    -0.396 OA
HETATM   17  H   UNL     1      14.144  47.992  46.670  1.00  0.00     0.210 HD
ENDBRANCH  13  16
ENDBRANCH   7  10
ENDBRANCH   5   6
BRANCH   1  18
HETATM   18  C   UNL     1      20.868  50.012  49.272  1.00  0.00    -0.005 A 
HETATM   19  C   UNL     1      19.825  49.771  50.178  1.00  0.00     0.014 A 
HETATM   20  C   UNL     1      18.751  50.661  50.298  1.00  0.00     0.008 A 
HETATM   21  C   UNL     1      18.688  51.811  49.506  1.00  0.00    -0.059 A 
HETATM   22  C   UNL     1      19.737  52.052  48.602  1.00  0.00     0.008 A 
HETATM   23  C   UNL     1      20.808  51.158  48.479  1.00  0.00     0.014 A 
BRANCH  21  24
HETATM   24  C   UNL     1      17.557  52.812  49.573  1.00  0.00     0.034 C 
HETATM   25  C   UNL     1      16.144  52.247  49.649  1.00  0.00     0.010 C 
ENDBRANCH  21  24
ENDBRANCH   1  18
BRANCH   3  26
HETATM   26  C   UNL     1      25.364  48.321  49.531  1.00  0.00     0.189 C 
BRANCH  26  27
HETATM   27  C   UNL     1      25.821  47.117  50.321  1.00  0.00    -0.038 A 
HETATM   28  C   UNL     1      25.465  46.961  51.671  1.00  0.00     0.009 A 
HETATM   29  C   UNL     1      25.881  45.842  52.391  1.00  0.00     0.001 A 
HETATM   30  C   UNL     1      26.643  44.856  51.769  1.00  0.00     0.000 A 
HETATM   31  C   UNL     1      26.986  44.987  50.424  1.00  0.00     0.001 A 
HETATM   32  C   UNL     1      26.575  46.110  49.703  1.00  0.00     0.009 A 
ENDBRANCH  26  27
ENDBRANCH   3  26
TORSDOF 7
ENDMDL
MODEL 3
REMARK VINA RESULT:      -9.3      2.570      3.483
REMARK  7 active torsions:
REMARK  status: ('A' for Active; 'I' for Inactive)
REMARK    1  A    between atoms: C_2  and  C_3 
REMARK    2  A    between atoms: C_6  and  C_7 
REMARK    3  A    between atoms: N_9  and  C_10 
REMARK    4  A    between atoms: C_10  and  C_11 
REMARK    5  A    between atoms: C_18  and  C_19 
REMARK       I    between atoms: C_19  and  N_20 
REMARK    6  A    between atoms: N_20  and  C_21 
REMARK    7  A    between atoms: C_24  and  O_25 
ROOT
HETATM    1  C   UNL     1      25.220  46.538  51.347  1.00  0.00     0.104 A 
HETATM    2  N   UNL     1      25.064  47.767  50.817  1.00  0.00    -0.171 NA
HETATM    3  N   UNL     1      24.350  47.575  49.702  1.00  0.00    -0.275 N 
HETATM    4  C   UNL     1      24.055  46.266  49.471  1.00  0.00     0.132 A 
HETATM    5  C   UNL     1      24.559  45.544  50.544  1.00  0.00     0.080 A 
ENDROOT
BRANCH   5   6
HETATM    6  C   UNL     1      24.418  44.105  50.767  1.00  0.00     0.255 C 
HETATM    7  N   UNL     1      25.555  43.374  50.495  1.00  0.00    -0.352 N 
HETATM    8  H   UNL     1      26.318  43.867  50.057  1.00  0.00     0.163 HD
HETATM    9  O   UNL     1      23.376  43.595  51.154  1.00  0.00    -0.268 OA
BRANCH   7  10
HETATM   10  C   UNL     1      25.728  41.926  50.603  1.00  0.00     0.084 C 
HETATM   11  C   UNL     1      25.873  41.211  49.253  1.00  0.00     0.028 C 
HETATM   12  C   UNL     1      27.309  40.975  48.789  1.00  0.00     0.034 C 
HETATM   13  C   UNL     1      28.196  40.416  49.895  1.00  0.00     0.118 C 
HETATM   14  C   UNL     1      28.173  41.295  51.140  1.00  0.00     0.034 C 
HETATM   15  C   UNL     1      26.754  41.512  51.665  1.00  0.00     0.028 C 
BRANCH  13  16
HETATM   16  O   UNL     1      27.731  39.108  50.231  1.00  0.00    -0.396 OA
HETATM   17  H   UNL     1      27.574  38.636  49.395  1.00  0.00     0.210 HD
ENDBRANCH  13  16
ENDBRANCH   7  10
ENDBRANCH   5   6
BRANCH   1  18
HETATM   18  C   UNL     1      25.964  46.415  52.602  1.00  0.00    -0.005 A 
HETATM   19  C   UNL     1      25.838  47.414  53.578  1.00  0.00     0.014 A 
HETATM   20  C   UNL     1      26.585  47.367  54.762  1.00  0.00     0.008 A 
HETATM   21  C   UNL     1      27.485  46.324  54.994  1.00  0.00    -0.059 A 
HETATM   22  C   UNL     1      27.606  45.322  54.016  1.00  0.00     0.008 A 
HETATM   23  C   UNL     1      26.863  45.372  52.830  1.00  0.00     0.014 A 
BRANCH  21  24
HETATM   24  C   UNL     1      28.331  46.211  56.242  1.00  0.00     0.034 C 
HETATM   25  C   UNL     1      29.776  45.765  56.054  1.00  0.00     0.010 C 
ENDBRANCH  21  24
ENDBRANCH   1  18
BRANCH   3  26
HETATM   26  C   UNL     1      23.961  48.720  48.884  1.00  0.00     0.189 C 
BRANCH  26  27
HETATM   27  C   UNL     1      22.567  49.202  49.211  1.00  0.00    -0.038 A 
HETATM   28  C   UNL     1      21.455  48.360  49.047  1.00  0.00     0.009 A 
HETATM   29  C   UNL     1      20.171  48.808  49.360  1.00  0.00     0.001 A 
HETATM   30  C   UNL     1      19.985  50.096  49.858  1.00  0.00     0.000 A 
HETATM   31  C   UNL     1      21.082  50.935  50.046  1.00  0.00     0.001 A 
HETATM   32  C   UNL     1      22.367  50.490  49.727  1.00  0.00     0.009 A 
ENDBRANCH  26  27
ENDBRANCH   3  26
TORSDOF 7
ENDMDL
MODEL 4
REMARK VINA RESULT:      -9.1      1.369      6.279
REMARK  7 active torsions:
REMARK  status: ('A' for Active; 'I' for Inactive)
REMARK    1  A    between atoms: C_2  and  C_3 
REMARK    2  A    between atoms: C_6  and  C_7 
REMARK    3  A    between atoms: N_9  and  C_10 
REMARK    4  A    between atoms: C_10  and  C_11 
REMARK    5  A    between atoms: C_18  and  C_19 
REMARK       I    between atoms: C_19  and  N_20 
REMARK    6  A    between atoms: N_20  and  C_21 
REMARK    7  A    between atoms: C_24  and  O_25 
ROOT
HETATM    1  C   UNL     1      25.846  45.638  51.454  1.00  0.00     0.104 A 
HETATM    2  N   UNL     1      26.079  45.825  52.769  1.00  0.00    -0.171 NA
HETATM    3  N   UNL     1      26.265  44.597  53.265  1.00  0.00    -0.275 N 
HETATM    4  C   UNL     1      26.137  43.614  52.332  1.00  0.00     0.132 A 
HETATM    5  C   UNL     1      25.910  44.242  51.115  1.00  0.00     0.080 A 
ENDROOT
BRANCH   5   6
HETATM    6  C   UNL     1      25.781  43.590  49.811  1.00  0.00     0.255 C 
HETATM    7  N   UNL     1      26.414  42.369  49.721  1.00  0.00    -0.352 N 
HETATM    8  H   UNL     1      26.998  42.102  50.499  1.00  0.00     0.163 HD
HETATM    9  O   UNL     1      25.170  44.093  48.878  1.00  0.00    -0.268 OA
BRANCH   7  10
HETATM   10  C   UNL     1      26.482  41.486  48.558  1.00  0.00     0.084 C 
HETATM   11  C   UNL     1      27.883  41.367  47.944  1.00  0.00     0.028 C 
HETATM   12  C   UNL     1      28.711  40.179  48.430  1.00  0.00     0.034 C 
HETATM   13  C   UNL     1      27.916  38.878  48.440  1.00  0.00     0.118 C 
HETATM   14  C   UNL     1      26.631  39.004  49.251  1.00  0.00     0.034 C 
HETATM   15  C   UNL     1      25.751  40.153  48.760  1.00  0.00     0.028 C 
BRANCH  13  16
HETATM   16  O   UNL     1      27.592  38.534  47.092  1.00  0.00    -0.396 OA
HETATM   17  H   UNL     1      27.952  37.646  46.928  1.00  0.00     0.210 HD
ENDBRANCH  13  16
ENDBRANCH   7  10
ENDBRANCH   5   6
BRANCH   1  18
HETATM   18  C   UNL     1      25.610  46.817  50.619  1.00  0.00    -0.005 A 
HETATM   19  C   UNL     1      24.297  47.155  50.259  1.00  0.00     0.014 A 
HETATM   20  C   UNL     1      24.036  48.235  49.406  1.00  0.00     0.008 A 
HETATM   21  C   UNL     1      25.084  48.998  48.884  1.00  0.00    -0.059 A 
HETATM   22  C   UNL     1      26.398  48.660  49.250  1.00  0.00     0.008 A 
HETATM   23  C   UNL     1      26.659  47.577  50.098  1.00  0.00     0.014 A 
BRANCH  21  24
HETATM   24  C   UNL     1      24.880  50.170  47.951  1.00  0.00     0.034 C 
HETATM   25  C   UNL     1      23.491  50.796  47.928  1.00  0.00     0.010 C 
ENDBRANCH  21  24
ENDBRANCH   1  18
BRANCH   3  26
HETATM   26  C   UNL     1      26.582  44.428  54.680  1.00  0.00     0.189 C 
BRANCH  26  27
HETATM   27  C   UNL     1      28.071  44.346  54.920  1.00  0.00    -0.038 A 
HETATM   28  C   UNL     1      28.745  45.352  55.632  1.00  0.00     0.009 A 
HETATM   29  C   UNL     1      30.118  45.265  55.860  1.00  0.00     0.001 A 
HETATM   30  C   UNL     1      30.833  44.164  55.395  1.00  0.00     0.000 A 
HETATM   31  C   UNL     1      30.174  43.147  54.704  1.00  0.00     0.001 A 
HETATM   32  C   UNL     1      28.801  43.236  54.471  1.00  0.00     0.009 A 
ENDBRANCH  26  27
ENDBRANCH   3  26
TORSDOF 7
ENDMDL
MODEL 5
REMARK VINA RESULT:      -8.9      3.296      8.494
REMARK  7 active torsions:
REMARK  status: ('A' for Active; 'I' for Inactive)
REMARK    1  A    between atoms: C_2  and  C_3 
REMARK    2  A    between atoms: C_6  and  C_7 
REMARK    3  A    between atoms: N_9  and  C_10 
REMARK    4  A    between atoms: C_10  and  C_11 
REMARK    5  A    between atoms: C_18  and  C_19 
REMARK       I    between atoms: C_19  and  N_20 
REMARK    6  A    between atoms: N_20  and  C_21 
REMARK    7  A    between atoms: C_24  and  O_25 
ROOT
HETATM    1  C   UNL     1      25.055  45.194  51.660  1.00  0.00     0.104 A 
HETATM    2  N   UNL     1      25.406  44.865  52.920  1.00  0.00    -0.171 NA
HETATM    3  N   UNL     1      25.888  45.994  53.450  1.00  0.00    -0.275 N 
HETATM    4  C   UNL     1      25.889  47.041  52.580  1.00  0.00     0.132 A 
HETATM    5  C   UNL     1      25.309  46.586  51.404  1.00  0.00     0.080 A 
ENDROOT
BRANCH   5   6
HETATM    6  C   UNL     1      25.030  47.382  50.207  1.00  0.00     0.255 C 
HETATM    7  N   UNL     1      23.701  47.705  50.037  1.00  0.00    -0.352 N 
HETATM    8  H   UNL     1      23.043  47.269  50.665  1.00  0.00     0.163 HD
HETATM    9  O   UNL     1      25.904  47.721  49.421  1.00  0.00    -0.268 OA
BRANCH   7  10
HETATM   10  C   UNL     1      23.105  48.469  48.942  1.00  0.00     0.084 C 
HETATM   11  C   UNL     1      21.690  48.016  48.561  1.00  0.00     0.028 C 
HETATM   12  C   UNL     1      20.553  48.789  49.226  1.00  0.00     0.034 C 
HETATM   13  C   UNL     1      20.765  50.297  49.175  1.00  0.00     0.118 C 
HETATM   14  C   UNL     1      22.110  50.703  49.770  1.00  0.00     0.034 C 
HETATM   15  C   UNL     1      23.277  49.986  49.093  1.00  0.00     0.028 C 
BRANCH  13  16
HETATM   16  O   UNL     1      20.706  50.718  47.811  1.00  0.00    -0.396 OA
HETATM   17  H   UNL     1      19.876  51.215  47.701  1.00  0.00     0.210 HD
ENDBRANCH  13  16
ENDBRANCH   7  10
ENDBRANCH   5   6
BRANCH   1  18
HETATM   18  C   UNL     1      24.474  44.153  50.809  1.00  0.00    -0.005 A 
HETATM   19  C   UNL     1      25.257  43.049  50.441  1.00  0.00     0.014 A 
HETATM   20  C   UNL     1      24.760  42.068  49.574  1.00  0.00     0.008 A 
HETATM   21  C   UNL     1      23.470  42.173  49.046  1.00  0.00    -0.059 A 
HETATM   22  C   UNL     1      22.687  43.277  49.421  1.00  0.00     0.008 A 
HETATM   23  C   UNL     1      23.186  44.261  50.284  1.00  0.00     0.014 A 
BRANCH  21  24
HETATM   24  C   UNL     1      22.870  41.159  48.099  1.00  0.00     0.034 C 
HETATM   25  C   UNL     1      23.845  40.343  47.258  1.00  0.00     0.010 C 
ENDBRANCH  21  24
ENDBRANCH   1  18
BRANCH   3  26
HETATM   26  C   UNL     1      26.333  46.008  54.840  1.00  0.00     0.189 C 
BRANCH  26  27
HETATM   27  C   UNL     1      27.691  45.367  55.006  1.00  0.00    -0.038 A 
HETATM   28  C   UNL     1      28.683  45.970  55.797  1.00  0.00     0.009 A 
HETATM   29  C   UNL     1      29.931  45.368  55.955  1.00  0.00     0.001 A 
HETATM   30  C   UNL     1      30.198  44.146  55.339  1.00  0.00     0.000 A 
HETATM   31  C   UNL     1      29.216  43.526  54.569  1.00  0.00     0.001 A 
HETATM   32  C   UNL     1      27.968  44.131  54.405  1.00  0.00     0.009 A 
ENDBRANCH  26  27
ENDBRANCH   3  26
TORSDOF 7
ENDMDL
MODEL 6
REMARK VINA RESULT:      -8.5      3.127      4.505
REMARK  7 active torsions:
REMARK  status: ('A' for Active; 'I' for Inactive)
REMARK    1  A    between atoms: C_2  and  C_3 
REMARK    2  A    between atoms: C_6  and  C_7 
REMARK    3  A    between atoms: N_9  and  C_10 
REMARK    4  A    between atoms: C_10  and  C_11 
REMARK    5  A    between atoms: C_18  and  C_19 
REMARK       I    between atoms: C_19  and  N_20 
REMARK    6  A    between atoms: N_20  and  C_21 
REMARK    7  A    between atoms: C_24  and  O_25 
ROOT
HETATM    1  C   UNL     1      24.585  46.874  49.886  1.00  0.00     0.104 A 
HETATM    2  N   UNL     1      24.771  48.205  49.785  1.00  0.00    -0.171 NA
HETATM    3  N   UNL     1      23.774  48.636  49.005  1.00  0.00    -0.275 N 
HETATM    4  C   UNL     1      22.958  47.635  48.572  1.00  0.00     0.132 A 
HETATM    5  C   UNL     1      23.414  46.463  49.158  1.00  0.00     0.080 A 
ENDROOT
BRANCH   5   6
HETATM    6  C   UNL     1      22.804  45.137  49.041  1.00  0.00     0.255 C 
HETATM    7  N   UNL     1      23.710  44.102  48.946  1.00  0.00    -0.352 N 
HETATM    8  H   UNL     1      24.681  44.356  48.841  1.00  0.00     0.163 HD
HETATM    9  O   UNL     1      21.594  44.966  49.019  1.00  0.00    -0.268 OA
BRANCH   7  10
HETATM   10  C   UNL     1      23.420  42.677  48.804  1.00  0.00     0.084 C 
HETATM   11  C   UNL     1      22.961  42.269  47.399  1.00  0.00     0.028 C 
HETATM   12  C   UNL     1      24.063  41.757  46.473  1.00  0.00     0.034 C 
HETATM   13  C   UNL     1      24.975  40.744  47.156  1.00  0.00     0.118 C 
HETATM   14  C   UNL     1      25.571  41.295  48.447  1.00  0.00     0.034 C 
HETATM   15  C   UNL     1      24.493  41.771  49.420  1.00  0.00     0.028 C 
BRANCH  13  16
HETATM   16  O   UNL     1      24.211  39.573  47.450  1.00  0.00    -0.396 OA
HETATM   17  H   UNL     1      23.824  39.265  46.612  1.00  0.00     0.210 HD
ENDBRANCH  13  16
ENDBRANCH   7  10
ENDBRANCH   5   6
BRANCH   1  18
HETATM   18  C   UNL     1      25.527  46.103  50.699  1.00  0.00    -0.005 A 
HETATM   19  C   UNL     1      26.505  45.322  50.065  1.00  0.00     0.014 A 
HETATM   20  C   UNL     1      27.380  44.518  50.806  1.00  0.00     0.008 A 
HETATM   21  C   UNL     1      27.292  44.467  52.200  1.00  0.00    -0.059 A 
HETATM   22  C   UNL     1      26.315  45.255  52.832  1.00  0.00     0.008 A 
HETATM   23  C   UNL     1      25.436  46.055  52.091  1.00  0.00     0.014 A 
BRANCH  21  24
HETATM   24  C   UNL     1      28.195  43.617  53.065  1.00  0.00     0.034 C 
HETATM   25  C   UNL     1      28.756  44.271  54.322  1.00  0.00     0.010 C 
ENDBRANCH  21  24
ENDBRANCH   1  18
BRANCH   3  26
HETATM   26  C   UNL     1      23.647  50.060  48.712  1.00  0.00     0.189 C 
BRANCH  26  27
HETATM   27  C   UNL     1      22.229  50.551  48.892  1.00  0.00    -0.038 A 
HETATM   28  C   UNL     1      21.394  50.769  47.784  1.00  0.00     0.009 A 
HETATM   29  C   UNL     1      20.083  51.212  47.958  1.00  0.00     0.001 A 
HETATM   30  C   UNL     1      19.584  51.426  49.241  1.00  0.00     0.000 A 
HETATM   31  C   UNL     1      20.395  51.194  50.351  1.00  0.00     0.001 A 
HETATM   32  C   UNL     1      21.709  50.756  50.178  1.00  0.00     0.009 A 
ENDBRANCH  26  27
ENDBRANCH   3  26
TORSDOF 7
ENDMDL
MODEL 7
REMARK VINA RESULT:      -8.4      2.674      8.391
REMARK  7 active torsions:
REMARK  status: ('A' for Active; 'I' for Inactive)
REMARK    1  A    between atoms: C_2  and  C_3 
REMARK    2  A    between atoms: C_6  and  C_7 
REMARK    3  A    between atoms: N_9  and  C_10 
REMARK    4  A    between atoms: C_10  and  C_11 
REMARK    5  A    between atoms: C_18  and  C_19 
REMARK       I    between atoms: C_19  and  N_20 
REMARK    6  A    between atoms: N_20  and  C_21 
REMARK    7  A    between atoms: C_24  and  O_25 
ROOT
HETATM    1  C   UNL     1      26.872  43.358  50.246  1.00  0.00     0.104 A 
HETATM    2  N   UNL     1      27.127  42.659  49.122  1.00  0.00    -0.171 NA
HETATM    3  N   UNL     1      27.788  41.572  49.533  1.00  0.00    -0.275 N 
HETATM    4  C   UNL     1      27.997  41.546  50.879  1.00  0.00     0.132 A 
HETATM    5  C   UNL     1      27.375  42.669  51.404  1.00  0.00     0.080 A 
ENDROOT
BRANCH   5   6
HETATM    6  C   UNL     1      27.272  43.024  52.821  1.00  0.00     0.255 C 
HETATM    7  N   UNL     1      26.918  44.336  53.053  1.00  0.00    -0.352 N 
HETATM    8  H   UNL     1      26.889  44.947  52.251  1.00  0.00     0.163 HD
HETATM    9  O   UNL     1      27.490  42.225  53.720  1.00  0.00    -0.268 OA
BRANCH   7  10
HETATM   10  C   UNL     1      26.750  44.996  54.346  1.00  0.00     0.084 C 
HETATM   11  C   UNL     1      28.069  45.345  55.047  1.00  0.00     0.028 C 
HETATM   12  C   UNL     1      28.581  46.764  54.808  1.00  0.00     0.034 C 
HETATM   13  C   UNL     1      27.489  47.814  54.966  1.00  0.00     0.118 C 
HETATM   14  C   UNL     1      26.286  47.521  54.076  1.00  0.00     0.034 C 
HETATM   15  C   UNL     1      25.713  46.126  54.324  1.00  0.00     0.028 C 
BRANCH  13  16
HETATM   16  O   UNL     1      27.072  47.833  56.333  1.00  0.00    -0.396 OA
HETATM   17  H   UNL     1      26.403  48.534  56.418  1.00  0.00     0.210 HD
ENDBRANCH  13  16
ENDBRANCH   7  10
ENDBRANCH   5   6
BRANCH   1  18
HETATM   18  C   UNL     1      26.137  44.619  50.126  1.00  0.00    -0.005 A 
HETATM   19  C   UNL     1      24.735  44.599  50.101  1.00  0.00     0.014 A 
HETATM   20  C   UNL     1      23.998  45.776  49.918  1.00  0.00     0.008 A 
HETATM   21  C   UNL     1      24.647  47.002  49.746  1.00  0.00    -0.059 A 
HETATM   22  C   UNL     1      26.052  47.019  49.777  1.00  0.00     0.008 A 
HETATM   23  C   UNL     1      26.788  45.841  49.954  1.00  0.00     0.014 A 
BRANCH  21  24
HETATM   24  C   UNL     1      23.920  48.310  49.535  1.00  0.00     0.034 C 
HETATM   25  C   UNL     1      24.552  49.298  48.562  1.00  0.00     0.010 C 
ENDBRANCH  21  24
ENDBRANCH   1  18
BRANCH   3  26
HETATM   26  C   UNL     1      28.195  40.561  48.563  1.00  0.00     0.189 C 
BRANCH  26  27
HETATM   27  C   UNL     1      28.081  39.162  49.120  1.00  0.00    -0.038 A 
HETATM   28  C   UNL     1      26.878  38.442  49.027  1.00  0.00     0.009 A 
HETATM   29  C   UNL     1      26.782  37.147  49.534  1.00  0.00     0.001 A 
HETATM   30  C   UNL     1      27.891  36.547  50.127  1.00  0.00     0.000 A 
HETATM   31  C   UNL     1      29.097  37.241  50.209  1.00  0.00     0.001 A 
HETATM   32  C   UNL     1      29.193  38.540  49.706  1.00  0.00     0.009 A 
ENDBRANCH  26  27
ENDBRANCH   3  26
TORSDOF 7
ENDMDL
MODEL 8
REMARK VINA RESULT:      -8.3      2.471      6.506
REMARK  7 active torsions:
REMARK  status: ('A' for Active; 'I' for Inactive)
REMARK    1  A    between atoms: C_2  and  C_3 
REMARK    2  A    between atoms: C_6  and  C_7 
REMARK    3  A    between atoms: N_9  and  C_10 
REMARK    4  A    between atoms: C_10  and  C_11 
REMARK    5  A    between atoms: C_18  and  C_19 
REMARK       I    between atoms: C_19  and  N_20 
REMARK    6  A    between atoms: N_20  and  C_21 
REMARK    7  A    between atoms: C_24  and  O_25 
ROOT
HETATM    1  C   UNL     1      27.154  44.068  52.544  1.00  0.00     0.104 A 
HETATM    2  N   UNL     1      27.379  45.208  53.229  1.00  0.00    -0.171 NA
HETATM    3  N   UNL     1      28.315  44.891  54.130  1.00  0.00    -0.275 N 
HETATM    4  C   UNL     1      28.693  43.584  54.077  1.00  0.00     0.132 A 
HETATM    5  C   UNL     1      27.999  43.007  53.023  1.00  0.00     0.080 A 
ENDROOT
BRANCH   5   6
HETATM    6  C   UNL     1      28.136  41.632  52.540  1.00  0.00     0.255 C 
HETATM    7  N   UNL     1      27.790  41.458  51.217  1.00  0.00    -0.352 N 
HETATM    8  H   UNL     1      27.364  42.245  50.752  1.00  0.00     0.163 HD
HETATM    9  O   UNL     1      28.517  40.715  53.254  1.00  0.00    -0.268 OA
BRANCH   7  10
HETATM   10  C   UNL     1      27.802  40.213  50.451  1.00  0.00     0.084 C 
HETATM   11  C   UNL     1      26.408  39.649  50.151  1.00  0.00     0.028 C 
HETATM   12  C   UNL     1      25.821  40.041  48.797  1.00  0.00     0.034 C 
HETATM   13  C   UNL     1      26.822  39.883  47.658  1.00  0.00     0.118 C 
HETATM   14  C   UNL     1      28.113  40.649  47.926  1.00  0.00     0.034 C 
HETATM   15  C   UNL     1      28.757  40.245  49.251  1.00  0.00     0.028 C 
BRANCH  13  16
HETATM   16  O   UNL     1      27.120  38.494  47.506  1.00  0.00    -0.396 OA
HETATM   17  H   UNL     1      26.275  38.034  47.361  1.00  0.00     0.210 HD
ENDBRANCH  13  16
ENDBRANCH   7  10
ENDBRANCH   5   6
BRANCH   1  18
HETATM   18  C   UNL     1      26.168  44.094  51.462  1.00  0.00    -0.005 A 
HETATM   19  C   UNL     1      26.442  44.828  50.299  1.00  0.00     0.014 A 
HETATM   20  C   UNL     1      25.497  44.933  49.271  1.00  0.00     0.008 A 
HETATM   21  C   UNL     1      24.249  44.313  49.386  1.00  0.00    -0.059 A 
HETATM   22  C   UNL     1      23.980  43.574  50.550  1.00  0.00     0.008 A 
HETATM   23  C   UNL     1      24.924  43.474  51.580  1.00  0.00     0.014 A 
BRANCH  21  24
HETATM   24  C   UNL     1      23.177  44.389  48.323  1.00  0.00     0.034 C 
HETATM   25  C   UNL     1      22.119  45.473  48.492  1.00  0.00     0.010 C 
ENDBRANCH  21  24
ENDBRANCH   1  18
BRANCH   3  26
HETATM   26  C   UNL     1      28.830  45.918  55.031  1.00  0.00     0.189 C 
BRANCH  26  27
HETATM   27  C   UNL     1      29.758  45.342  56.074  1.00  0.00    -0.038 A 
HETATM   28  C   UNL     1      29.779  45.851  57.383  1.00  0.00     0.009 A 
HETATM   29  C   UNL     1      30.632  45.307  58.344  1.00  0.00     0.001 A 
HETATM   30  C   UNL     1      31.462  44.238  58.015  1.00  0.00     0.000 A 
HETATM   31  C   UNL     1      31.437  43.709  56.725  1.00  0.00     0.001 A 
HETATM   32  C   UNL     1      30.588  44.256  55.760  1.00  0.00     0.009 A 
ENDBRANCH  26  27
ENDBRANCH   3  26
TORSDOF 7
ENDMDL
MODEL 9
REMARK VINA RESULT:      -8.3      4.933      9.403
REMARK  7 active torsions:
REMARK  status: ('A' for Active; 'I' for Inactive)
REMARK    1  A    between atoms: C_2  and  C_3 
REMARK    2  A    between atoms: C_6  and  C_7 
REMARK    3  A    between atoms: N_9  and  C_10 
REMARK    4  A    between atoms: C_10  and  C_11 
REMARK    5  A    between atoms: C_18  and  C_19 
REMARK       I    between atoms: C_19  and  N_20 
REMARK    6  A    between atoms: N_20  and  C_21 
REMARK    7  A    between atoms: C_24  and  O_25 
ROOT
HETATM    1  C   UNL     1      22.797  48.036  49.226  1.00  0.00     0.104 A 
HETATM    2  N   UNL     1      23.990  48.365  49.760  1.00  0.00    -0.171 NA
HETATM    3  N   UNL     1      24.670  47.215  49.823  1.00  0.00    -0.275 N 
HETATM    4  C   UNL     1      23.959  46.145  49.374  1.00  0.00     0.132 A 
HETATM    5  C   UNL     1      22.739  46.631  48.925  1.00  0.00     0.080 A 
ENDROOT
BRANCH   5   6
HETATM    6  C   UNL     1      21.674  45.855  48.289  1.00  0.00     0.255 C 
HETATM    7  N   UNL     1      21.621  45.981  46.917  1.00  0.00    -0.352 N 
HETATM    8  H   UNL     1      22.223  46.676  46.501  1.00  0.00     0.163 HD
HETATM    9  O   UNL     1      20.891  45.162  48.923  1.00  0.00    -0.268 OA
BRANCH   7  10
HETATM   10  C   UNL     1      20.671  45.351  46.001  1.00  0.00     0.084 C 
HETATM   11  C   UNL     1      19.343  46.105  45.863  1.00  0.00     0.028 C 
HETATM   12  C   UNL     1      19.262  47.077  44.687  1.00  0.00     0.034 C 
HETATM   13  C   UNL     1      19.777  46.468  43.389  1.00  0.00     0.118 C 
HETATM   14  C   UNL     1      21.194  45.925  43.539  1.00  0.00     0.034 C 
HETATM   15  C   UNL     1      21.303  44.909  44.676  1.00  0.00     0.028 C 
BRANCH  13  16
HETATM   16  O   UNL     1      18.902  45.404  43.008  1.00  0.00    -0.396 OA
HETATM   17  H   UNL     1      18.490  45.067  43.822  1.00  0.00     0.210 HD
ENDBRANCH  13  16
ENDBRANCH   7  10
ENDBRANCH   5   6
BRANCH   1  18
HETATM   18  C   UNL     1      21.815  49.102  49.017  1.00  0.00    -0.005 A 
HETATM   19  C   UNL     1      22.236  50.334  48.494  1.00  0.00     0.014 A 
HETATM   20  C   UNL     1      21.340  51.399  48.344  1.00  0.00     0.008 A 
HETATM   21  C   UNL     1      20.002  51.263  48.723  1.00  0.00    -0.059 A 
HETATM   22  C   UNL     1      19.582  50.026  49.242  1.00  0.00     0.008 A 
HETATM   23  C   UNL     1      20.479  48.963  49.397  1.00  0.00     0.014 A 
BRANCH  21  24
HETATM   24  C   UNL     1      18.980  52.370  48.598  1.00  0.00     0.034 C 
HETATM   25  C   UNL     1      17.878  52.410  49.650  1.00  0.00     0.010 C 
ENDBRANCH  21  24
ENDBRANCH   1  18
BRANCH   3  26
HETATM   26  C   UNL     1      26.040  47.210  50.326  1.00  0.00     0.189 C 
BRANCH  26  27
HETATM   27  C   UNL     1      26.149  46.519  51.664  1.00  0.00    -0.038 A 
HETATM   28  C   UNL     1      25.794  47.181  52.851  1.00  0.00     0.009 A 
HETATM   29  C   UNL     1      25.887  46.533  54.083  1.00  0.00     0.001 A 
HETATM   30  C   UNL     1      26.320  45.210  54.144  1.00  0.00     0.000 A 
HETATM   31  C   UNL     1      26.656  44.533  52.972  1.00  0.00     0.001 A 
HETATM   32  C   UNL     1      26.569  45.182  51.739  1.00  0.00     0.009 A 
ENDBRANCH  26  27
ENDBRANCH   3  26
TORSDOF 7
ENDMDL
MODEL 10
REMARK VINA RESULT:      -8.2     10.115     13.755
REMARK  7 active torsions:
REMARK  status: ('A' for Active; 'I' for Inactive)
REMARK    1  A    between atoms: C_2  and  C_3 
REMARK    2  A    between atoms: C_6  and  C_7 
REMARK    3  A    between atoms: N_9  and  C_10 
REMARK    4  A    between atoms: C_10  and  C_11 
REMARK    5  A    between atoms: C_18  and  C_19 
REMARK       I    between atoms: C_19  and  N_20 
REMARK    6  A    between atoms: N_20  and  C_21 
REMARK    7  A    between atoms: C_24  and  O_25 
ROOT
HETATM    1  C   UNL     1      16.758  52.424  49.185  1.00  0.00     0.104 A 
HETATM    2  N   UNL     1      16.241  52.907  50.332  1.00  0.00    -0.171 NA
HETATM    3  N   UNL     1      15.012  53.323  50.010  1.00  0.00    -0.275 N 
HETATM    4  C   UNL     1      14.714  53.154  48.692  1.00  0.00     0.132 A 
HETATM    5  C   UNL     1      15.806  52.523  48.111  1.00  0.00     0.080 A 
ENDROOT
BRANCH   5   6
HETATM    6  C   UNL     1      15.913  52.073  46.723  1.00  0.00     0.255 C 
HETATM    7  N   UNL     1      16.238  50.741  46.581  1.00  0.00    -0.352 N 
HETATM    8  H   UNL     1      16.490  50.243  47.422  1.00  0.00     0.163 HD
HETATM    9  O   UNL     1      15.737  52.820  45.770  1.00  0.00    -0.268 OA
BRANCH   7  10
HETATM   10  C   UNL     1      16.432  50.001  45.336  1.00  0.00     0.084 C 
HETATM   11  C   UNL     1      17.902  49.826  44.934  1.00  0.00     0.028 C 
HETATM   12  C   UNL     1      18.551  48.517  45.380  1.00  0.00     0.034 C 
HETATM   13  C   UNL     1      17.673  47.304  45.095  1.00  0.00     0.118 C 
HETATM   14  C   UNL     1      16.285  47.451  45.709  1.00  0.00     0.034 C 
HETATM   15  C   UNL     1      15.583  48.726  45.245  1.00  0.00     0.028 C 
BRANCH  13  16
HETATM   16  O   UNL     1      17.550  47.155  43.679  1.00  0.00    -0.396 OA
HETATM   17  H   UNL     1      17.211  46.258  43.515  1.00  0.00     0.210 HD
ENDBRANCH  13  16
ENDBRANCH   7  10
ENDBRANCH   5   6
BRANCH   1  18
HETATM   18  C   UNL     1      18.115  51.875  49.214  1.00  0.00    -0.005 A 
HETATM   19  C   UNL     1      18.432  50.871  50.140  1.00  0.00     0.014 A 
HETATM   20  C   UNL     1      19.735  50.369  50.245  1.00  0.00     0.008 A 
HETATM   21  C   UNL     1      20.757  50.866  49.431  1.00  0.00    -0.059 A 
HETATM   22  C   UNL     1      20.435  51.869  48.501  1.00  0.00     0.008 A 
HETATM   23  C   UNL     1      19.133  52.374  48.400  1.00  0.00     0.014 A 
BRANCH  21  24
HETATM   24  C   UNL     1      22.187  50.380  49.493  1.00  0.00     0.034 C 
HETATM   25  C   UNL     1      23.147  50.937  48.449  1.00  0.00     0.010 C 
ENDBRANCH  21  24
ENDBRANCH   1  18
BRANCH   3  26
HETATM   26  C   UNL     1      14.142  53.879  51.042  1.00  0.00     0.189 C 
BRANCH  26  27
HETATM   27  C   UNL     1      14.552  55.279  51.435  1.00  0.00    -0.038 A 
HETATM   28  C   UNL     1      14.664  55.647  52.786  1.00  0.00     0.009 A 
HETATM   29  C   UNL     1      15.054  56.938  53.142  1.00  0.00     0.001 A 
HETATM   30  C   UNL     1      15.354  57.873  52.154  1.00  0.00     0.000 A 
HETATM   31  C   UNL     1      15.267  57.516  50.809  1.00  0.00     0.001 A 
HETATM   32  C   UNL     1      14.871  56.226  50.451  1.00  0.00     0.009 A 
ENDBRANCH  26  27
ENDBRANCH   3  26
TORSDOF 7
ENDMDL
