MODEL 1
REMARK VINA RESULT:      -8.7      0.000      0.000
REMARK  7 active torsions:
REMARK  status: ('A' for Active; 'I' for Inactive)
REMARK    1  A    between atoms: C_2  and  C_3 
REMARK    2  A    between atoms: C_3  and  C_4 
REMARK    3  A    between atoms: C_4  and  O_5 
REMARK    4  A    between atoms: O_5  and  C_6 
REMARK    5  A    between atoms: C_9  and  C_10 
REMARK       I    between atoms: C_10  and  N_11 
REMARK    6  A    between atoms: N_11  and  C_12 
REMARK    7  A    between atoms: C_19  and  C_20 
REMARK       I    between atoms: C_20  and  N_21 
ROOT
HETATM    1  C   UNL     1      26.177  44.795  52.736  1.00  0.00     0.256 C 
HETATM    2  N   UNL     1      27.554  44.847  52.598  1.00  0.00    -0.323 N 
HETATM    3  O   UNL     1      25.562  44.282  53.664  1.00  0.00    -0.267 OA
HETATM    4  H   UNL     1      27.925  45.292  51.773  1.00  0.00     0.169 HD
ENDROOT
BRANCH   2   5
HETATM    5  C   UNL     1      28.526  44.396  53.521  1.00  0.00     0.036 A 
HETATM    6  C   UNL     1      28.737  44.974  54.779  1.00  0.00     0.046 A 
HETATM    7  C   UNL     1      29.767  44.481  55.612  1.00  0.00     0.030 A 
HETATM    8  C   UNL     1      30.533  43.411  55.166  1.00  0.00     0.063 A 
HETATM    9  C   UNL     1      30.306  44.811  56.892  1.00  0.00     0.156 A 
HETATM   10  N   UNL     1      31.425  43.158  56.171  1.00  0.00    -0.277 N 
HETATM   11  C   UNL     1      30.344  42.802  53.924  1.00  0.00     0.034 A 
HETATM   12  H   UNL     1      32.137  42.438  56.192  1.00  0.00     0.189 HD
HETATM   13  N   UNL     1      31.324  43.985  57.224  1.00  0.00    -0.168 NA
HETATM   14  C   UNL     1      29.332  43.325  53.109  1.00  0.00     0.032 A 
BRANCH   9  15
HETATM   15  C   UNL     1      29.887  45.896  57.790  1.00  0.00     0.270 C 
HETATM   16  N   UNL     1      30.897  46.403  58.561  1.00  0.00    -0.365 N 
HETATM   17  H   UNL     1      31.830  46.021  58.452  1.00  0.00     0.159 HD
HETATM   18  H   UNL     1      30.709  47.169  59.187  1.00  0.00     0.159 HD
HETATM   19  O   UNL     1      28.748  46.346  57.864  1.00  0.00    -0.266 OA
ENDBRANCH   9  15
ENDBRANCH   2   5
BRANCH   1  20
HETATM   20  C   UNL     1      25.386  45.457  51.650  1.00  0.00     0.032 A 
HETATM   21  C   UNL     1      25.381  46.841  51.435  1.00  0.00     0.020 A 
HETATM   22  C   UNL     1      24.581  47.400  50.427  1.00  0.00     0.038 A 
HETATM   23  C   UNL     1      23.791  46.582  49.620  1.00  0.00     0.068 A 
HETATM   24  C   UNL     1      23.833  45.199  49.801  1.00  0.00     0.038 A 
HETATM   25  C   UNL     1      24.621  44.638  50.809  1.00  0.00     0.020 A 
BRANCH  23  26
HETATM   26  O   UNL     1      22.969  47.006  48.615  1.00  0.00    -0.351 OA
BRANCH  26  27
HETATM   27  C   UNL     1      22.067  48.070  48.932  1.00  0.00     0.176 C 
BRANCH  27  28
HETATM   28  C   UNL     1      22.078  49.050  47.759  1.00  0.00     0.030 C 
BRANCH  28  29
HETATM   29  C   UNL     1      22.849  50.350  48.043  1.00  0.00    -0.021 C 
HETATM   30  C   UNL     1      24.361  50.173  47.892  1.00  0.00     0.009 C 
HETATM   31  C   UNL     1      22.528  50.847  49.454  1.00  0.00     0.009 C 
ENDBRANCH  28  29
ENDBRANCH  27  28
ENDBRANCH  26  27
ENDBRANCH  23  26
ENDBRANCH   1  20
TORSDOF 7
ENDMDL
MODEL 2
REMARK VINA RESULT:      -8.6      3.739     10.038
REMARK  7 active torsions:
REMARK  status: ('A' for Active; 'I' for Inactive)
REMARK    1  A    between atoms: C_2  and  C_3 
REMARK    2  A    between atoms: C_3  and  C_4 
REMARK    3  A    between atoms: C_4  and  O_5 
REMARK    4  A    between atoms: O_5  and  C_6 
REMARK    5  A    between atoms: C_9  and  C_10 
REMARK       I    between atoms: C_10  and  N_11 
REMARK    6  A    between atoms: N_11  and  C_12 
REMARK    7  A    between atoms: C_19  and  C_20 
REMARK       I    between atoms: C_20  and  N_21 
ROOT
HETATM    1  C   UNL     1      25.689  46.939  51.739  1.00  0.00     0.256 C 
HETATM    2  N   UNL     1      25.630  47.078  50.362  1.00  0.00    -0.323 N 
HETATM    3  O   UNL     1      25.114  47.641  52.561  1.00  0.00    -0.267 OA
HETATM    4  H   UNL     1      26.167  46.433  49.803  1.00  0.00     0.169 HD
ENDROOT
BRANCH   2   5
HETATM    5  C   UNL     1      24.845  47.995  49.626  1.00  0.00     0.036 A 
HETATM    6  C   UNL     1      23.449  47.932  49.534  1.00  0.00     0.046 A 
HETATM    7  C   UNL     1      22.757  48.868  48.733  1.00  0.00     0.030 A 
HETATM    8  C   UNL     1      23.485  49.850  48.072  1.00  0.00     0.063 A 
HETATM    9  C   UNL     1      21.399  49.104  48.361  1.00  0.00     0.156 A 
HETATM   10  N   UNL     1      22.560  50.597  47.398  1.00  0.00    -0.277 N 
HETATM   11  C   UNL     1      24.875  49.952  48.150  1.00  0.00     0.034 A 
HETATM   12  H   UNL     1      22.733  51.406  46.813  1.00  0.00     0.189 HD
HETATM   13  N   UNL     1      21.293  50.175  47.541  1.00  0.00    -0.168 NA
HETATM   14  C   UNL     1      25.538  48.997  48.931  1.00  0.00     0.032 A 
BRANCH   9  15
HETATM   15  C   UNL     1      20.214  48.329  48.752  1.00  0.00     0.270 C 
HETATM   16  N   UNL     1      19.841  48.503  50.058  1.00  0.00    -0.365 N 
HETATM   17  H   UNL     1      20.376  49.141  50.635  1.00  0.00     0.159 HD
HETATM   18  H   UNL     1      19.021  48.033  50.408  1.00  0.00     0.159 HD
HETATM   19  O   UNL     1      19.580  47.591  48.006  1.00  0.00    -0.266 OA
ENDBRANCH   9  15
ENDBRANCH   2   5
BRANCH   1  20
HETATM   20  C   UNL     1      26.520  45.800  52.245  1.00  0.00     0.032 A 
HETATM   21  C   UNL     1      26.802  45.596  53.603  1.00  0.00     0.020 A 
HETATM   22  C   UNL     1      27.626  44.535  54.005  1.00  0.00     0.038 A 
HETATM   23  C   UNL     1      28.162  43.662  53.059  1.00  0.00     0.068 A 
HETATM   24  C   UNL     1      27.843  43.835  51.712  1.00  0.00     0.038 A 
HETATM   25  C   UNL     1      27.031  44.896  51.305  1.00  0.00     0.020 A 
BRANCH  23  26
HETATM   26  O   UNL     1      28.980  42.600  53.325  1.00  0.00    -0.351 OA
BRANCH  26  27
HETATM   27  C   UNL     1      30.311  42.907  53.750  1.00  0.00     0.176 C 
BRANCH  27  28
HETATM   28  C   UNL     1      30.334  42.846  55.277  1.00  0.00     0.030 C 
BRANCH  28  29
HETATM   29  C   UNL     1      31.236  43.908  55.927  1.00  0.00    -0.021 C 
HETATM   30  C   UNL     1      31.884  43.409  57.220  1.00  0.00     0.009 C 
HETATM   31  C   UNL     1      30.425  45.174  56.213  1.00  0.00     0.009 C 
ENDBRANCH  28  29
ENDBRANCH  27  28
ENDBRANCH  26  27
ENDBRANCH  23  26
ENDBRANCH   1  20
TORSDOF 7
ENDMDL
MODEL 3
REMARK VINA RESULT:      -8.4      3.107      4.846
REMARK  7 active torsions:
REMARK  status: ('A' for Active; 'I' for Inactive)
REMARK    1  A    between atoms: C_2  and  C_3 
REMARK    2  A    between atoms: C_3  and  C_4 
REMARK    3  A    between atoms: C_4  and  O_5 
REMARK    4  A    between atoms: O_5  and  C_6 
REMARK    5  A    between atoms: C_9  and  C_10 
REMARK       I    between atoms: C_10  and  N_11 
REMARK    6  A    between atoms: N_11  and  C_12 
REMARK    7  A    between atoms: C_19  and  C_20 
REMARK       I    between atoms: C_20  and  N_21 
ROOT
HETATM    1  C   UNL     1      25.740  47.792  49.976  1.00  0.00     0.256 C 
HETATM    2  N   UNL     1      25.371  47.345  51.233  1.00  0.00    -0.323 N 
HETATM    3  O   UNL     1      26.826  47.617  49.437  1.00  0.00    -0.267 OA
HETATM    4  H   UNL     1      24.443  47.573  51.557  1.00  0.00     0.169 HD
ENDROOT
BRANCH   2   5
HETATM    5  C   UNL     1      26.128  46.538  52.114  1.00  0.00     0.036 A 
HETATM    6  C   UNL     1      26.471  45.205  51.853  1.00  0.00     0.046 A 
HETATM    7  C   UNL     1      27.192  44.467  52.819  1.00  0.00     0.030 A 
HETATM    8  C   UNL     1      27.566  45.097  54.000  1.00  0.00     0.063 A 
HETATM    9  C   UNL     1      27.675  43.130  52.946  1.00  0.00     0.156 A 
HETATM   10  N   UNL     1      28.243  44.151  54.718  1.00  0.00    -0.277 N 
HETATM   11  C   UNL     1      27.253  46.426  54.289  1.00  0.00     0.034 A 
HETATM   12  H   UNL     1      28.667  44.260  55.631  1.00  0.00     0.189 HD
HETATM   13  N   UNL     1      28.324  42.951  54.119  1.00  0.00    -0.168 NA
HETATM   14  C   UNL     1      26.517  47.128  53.326  1.00  0.00     0.032 A 
BRANCH   9  15
HETATM   15  C   UNL     1      27.520  42.025  51.989  1.00  0.00     0.270 C 
HETATM   16  N   UNL     1      27.268  40.813  52.574  1.00  0.00    -0.365 N 
HETATM   17  H   UNL     1      27.193  40.768  53.584  1.00  0.00     0.159 HD
HETATM   18  H   UNL     1      27.119  40.002  51.995  1.00  0.00     0.159 HD
HETATM   19  O   UNL     1      27.589  42.137  50.770  1.00  0.00    -0.266 OA
ENDBRANCH   9  15
ENDBRANCH   2   5
BRANCH   1  20
HETATM   20  C   UNL     1      24.688  48.536  49.211  1.00  0.00     0.032 A 
HETATM   21  C   UNL     1      24.940  49.722  48.509  1.00  0.00     0.020 A 
HETATM   22  C   UNL     1      23.898  50.392  47.851  1.00  0.00     0.038 A 
HETATM   23  C   UNL     1      22.602  49.877  47.878  1.00  0.00     0.068 A 
HETATM   24  C   UNL     1      22.360  48.670  48.535  1.00  0.00     0.038 A 
HETATM   25  C   UNL     1      23.392  48.004  49.200  1.00  0.00     0.020 A 
BRANCH  23  26
HETATM   26  O   UNL     1      21.508  50.439  47.284  1.00  0.00    -0.351 OA
BRANCH  26  27
HETATM   27  C   UNL     1      20.281  50.383  48.017  1.00  0.00     0.176 C 
BRANCH  27  28
HETATM   28  C   UNL     1      20.154  51.685  48.807  1.00  0.00     0.030 C 
BRANCH  28  29
HETATM   29  C   UNL     1      19.126  51.621  49.949  1.00  0.00    -0.021 C 
HETATM   30  C   UNL     1      18.763  50.182  50.323  1.00  0.00     0.009 C 
HETATM   31  C   UNL     1      17.860  52.385  49.552  1.00  0.00     0.009 C 
ENDBRANCH  28  29
ENDBRANCH  27  28
ENDBRANCH  26  27
ENDBRANCH  23  26
ENDBRANCH   1  20
TORSDOF 7
ENDMDL
MODEL 4
REMARK VINA RESULT:      -8.1      3.497      9.625
REMARK  7 active torsions:
REMARK  status: ('A' for Active; 'I' for Inactive)
REMARK    1  A    between atoms: C_2  and  C_3 
REMARK    2  A    between atoms: C_3  and  C_4 
REMARK    3  A    between atoms: C_4  and  O_5 
REMARK    4  A    between atoms: O_5  and  C_6 
REMARK    5  A    between atoms: C_9  and  C_10 
REMARK       I    between atoms: C_10  and  N_11 
REMARK    6  A    between atoms: N_11  and  C_12 
REMARK    7  A    between atoms: C_19  and  C_20 
REMARK       I    between atoms: C_20  and  N_21 
ROOT
HETATM    1  C   UNL     1      25.218  44.442  51.644  1.00  0.00     0.256 C 
HETATM    2  N   UNL     1      25.396  45.490  50.757  1.00  0.00    -0.323 N 
HETATM    3  O   UNL     1      24.167  43.855  51.868  1.00  0.00    -0.267 OA
HETATM    4  H   UNL     1      26.320  45.888  50.683  1.00  0.00     0.169 HD
ENDROOT
BRANCH   2   5
HETATM    5  C   UNL     1      24.435  46.044  49.881  1.00  0.00     0.036 A 
HETATM    6  C   UNL     1      23.994  47.372  49.941  1.00  0.00     0.046 A 
HETATM    7  C   UNL     1      22.994  47.818  49.049  1.00  0.00     0.030 A 
HETATM    8  C   UNL     1      22.488  46.927  48.111  1.00  0.00     0.063 A 
HETATM    9  C   UNL     1      22.276  49.032  48.828  1.00  0.00     0.156 A 
HETATM   10  N   UNL     1      21.560  47.635  47.399  1.00  0.00    -0.277 N 
HETATM   11  C   UNL     1      22.911  45.601  48.012  1.00  0.00     0.034 A 
HETATM   12  H   UNL     1      20.995  47.304  46.627  1.00  0.00     0.189 HD
HETATM   13  N   UNL     1      21.399  48.905  47.806  1.00  0.00    -0.168 NA
HETATM   14  C   UNL     1      23.886  45.177  48.924  1.00  0.00     0.032 A 
BRANCH   9  15
HETATM   15  C   UNL     1      22.394  50.294  49.573  1.00  0.00     0.270 C 
HETATM   16  N   UNL     1      21.297  50.597  50.334  1.00  0.00    -0.365 N 
HETATM   17  H   UNL     1      20.519  49.948  50.343  1.00  0.00     0.159 HD
HETATM   18  H   UNL     1      21.300  51.429  50.901  1.00  0.00     0.159 HD
HETATM   19  O   UNL     1      23.373  51.032  49.552  1.00  0.00    -0.266 OA
ENDBRANCH   9  15
ENDBRANCH   2   5
BRANCH   1  20
HETATM   20  C   UNL     1      26.447  43.982  52.368  1.00  0.00     0.032 A 
HETATM   21  C   UNL     1      27.673  43.747  51.731  1.00  0.00     0.020 A 
HETATM   22  C   UNL     1      28.773  43.273  52.462  1.00  0.00     0.038 A 
HETATM   23  C   UNL     1      28.661  43.044  53.833  1.00  0.00     0.068 A 
HETATM   24  C   UNL     1      27.456  43.325  54.477  1.00  0.00     0.038 A 
HETATM   25  C   UNL     1      26.355  43.788  53.752  1.00  0.00     0.020 A 
BRANCH  23  26
HETATM   26  O   UNL     1      29.654  42.579  54.648  1.00  0.00    -0.351 OA
BRANCH  26  27
HETATM   27  C   UNL     1      30.752  43.463  54.889  1.00  0.00     0.176 C 
BRANCH  27  28
HETATM   28  C   UNL     1      30.857  43.670  56.400  1.00  0.00     0.030 C 
BRANCH  28  29
HETATM   29  C   UNL     1      30.753  45.142  56.833  1.00  0.00    -0.021 C 
HETATM   30  C   UNL     1      30.458  45.289  58.328  1.00  0.00     0.009 C 
HETATM   31  C   UNL     1      29.663  45.847  56.022  1.00  0.00     0.009 C 
ENDBRANCH  28  29
ENDBRANCH  27  28
ENDBRANCH  26  27
ENDBRANCH  23  26
ENDBRANCH   1  20
TORSDOF 7
ENDMDL
MODEL 5
REMARK VINA RESULT:      -8.1     16.126     18.636
REMARK  7 active torsions:
REMARK  status: ('A' for Active; 'I' for Inactive)
REMARK    1  A    between atoms: C_2  and  C_3 
REMARK    2  A    between atoms: C_3  and  C_4 
REMARK    3  A    between atoms: C_4  and  O_5 
REMARK    4  A    between atoms: O_5  and  C_6 
REMARK    5  A    between atoms: C_9  and  C_10 
REMARK       I    between atoms: C_10  and  N_11 
REMARK    6  A    between atoms: N_11  and  C_12 
REMARK    7  A    between atoms: C_19  and  C_20 
REMARK       I    between atoms: C_20  and  N_21 
ROOT
HETATM    1  C   UNL     1      39.350  40.561  63.411  1.00  0.00     0.256 C 
HETATM    2  N   UNL     1      39.834  40.079  64.616  1.00  0.00    -0.323 N 
HETATM    3  O   UNL     1      39.415  39.995  62.327  1.00  0.00    -0.267 OA
HETATM    4  H   UNL     1      39.721  40.661  65.432  1.00  0.00     0.169 HD
ENDROOT
BRANCH   2   5
HETATM    5  C   UNL     1      40.426  38.818  64.859  1.00  0.00     0.036 A 
HETATM    6  C   UNL     1      39.801  37.785  65.568  1.00  0.00     0.046 A 
HETATM    7  C   UNL     1      40.496  36.576  65.799  1.00  0.00     0.030 A 
HETATM    8  C   UNL     1      41.781  36.436  65.292  1.00  0.00     0.063 A 
HETATM    9  C   UNL     1      40.234  35.351  66.485  1.00  0.00     0.156 A 
HETATM   10  N   UNL     1      42.184  35.183  65.663  1.00  0.00    -0.277 N 
HETATM   11  C   UNL     1      42.431  37.438  64.571  1.00  0.00     0.034 A 
HETATM   12  H   UNL     1      43.071  34.737  65.459  1.00  0.00     0.189 HD
HETATM   13  N   UNL     1      41.282  34.501  66.389  1.00  0.00    -0.168 NA
HETATM   14  C   UNL     1      41.730  38.635  64.376  1.00  0.00     0.032 A 
BRANCH   9  15
HETATM   15  C   UNL     1      39.026  34.982  67.235  1.00  0.00     0.270 C 
HETATM   16  N   UNL     1      38.054  34.394  66.472  1.00  0.00    -0.365 N 
HETATM   17  H   UNL     1      38.235  34.244  65.486  1.00  0.00     0.159 HD
HETATM   18  H   UNL     1      37.200  34.082  66.907  1.00  0.00     0.159 HD
HETATM   19  O   UNL     1      38.866  35.157  68.438  1.00  0.00    -0.266 OA
ENDBRANCH   9  15
ENDBRANCH   2   5
BRANCH   1  20
HETATM   20  C   UNL     1      38.663  41.891  63.468  1.00  0.00     0.032 A 
HETATM   21  C   UNL     1      37.494  42.124  64.207  1.00  0.00     0.020 A 
HETATM   22  C   UNL     1      36.877  43.383  64.180  1.00  0.00     0.038 A 
HETATM   23  C   UNL     1      37.427  44.421  63.428  1.00  0.00     0.068 A 
HETATM   24  C   UNL     1      38.617  44.205  62.733  1.00  0.00     0.038 A 
HETATM   25  C   UNL     1      39.230  42.950  62.748  1.00  0.00     0.020 A 
BRANCH  23  26
HETATM   26  O   UNL     1      36.916  45.684  63.317  1.00  0.00    -0.351 OA
BRANCH  26  27
HETATM   27  C   UNL     1      37.012  46.518  64.475  1.00  0.00     0.176 C 
BRANCH  27  28
HETATM   28  C   UNL     1      36.823  47.965  64.020  1.00  0.00     0.030 C 
BRANCH  28  29
HETATM   29  C   UNL     1      37.502  48.997  64.936  1.00  0.00    -0.021 C 
HETATM   30  C   UNL     1      39.014  49.064  64.716  1.00  0.00     0.009 C 
HETATM   31  C   UNL     1      37.208  48.664  66.401  1.00  0.00     0.009 C 
ENDBRANCH  28  29
ENDBRANCH  27  28
ENDBRANCH  26  27
ENDBRANCH  23  26
ENDBRANCH   1  20
TORSDOF 7
ENDMDL
MODEL 6
REMARK VINA RESULT:      -7.9      5.400      7.768
REMARK  7 active torsions:
REMARK  status: ('A' for Active; 'I' for Inactive)
REMARK    1  A    between atoms: C_2  and  C_3 
REMARK    2  A    between atoms: C_3  and  C_4 
REMARK    3  A    between atoms: C_4  and  O_5 
REMARK    4  A    between atoms: O_5  and  C_6 
REMARK    5  A    between atoms: C_9  and  C_10 
REMARK       I    between atoms: C_10  and  N_11 
REMARK    6  A    between atoms: N_11  and  C_12 
REMARK    7  A    between atoms: C_19  and  C_20 
REMARK       I    between atoms: C_20  and  N_21 
ROOT
HETATM    1  C   UNL     1      22.408  49.315  48.778  1.00  0.00     0.256 C 
HETATM    2  N   UNL     1      22.931  48.525  49.787  1.00  0.00    -0.323 N 
HETATM    3  O   UNL     1      22.900  49.494  47.671  1.00  0.00    -0.267 OA
HETATM    4  H   UNL     1      22.423  48.479  50.657  1.00  0.00     0.169 HD
ENDROOT
BRANCH   2   5
HETATM    5  C   UNL     1      24.085  47.710  49.727  1.00  0.00     0.036 A 
HETATM    6  C   UNL     1      24.057  46.310  49.767  1.00  0.00     0.046 A 
HETATM    7  C   UNL     1      25.270  45.585  49.749  1.00  0.00     0.030 A 
HETATM    8  C   UNL     1      26.467  46.286  49.666  1.00  0.00     0.063 A 
HETATM    9  C   UNL     1      25.651  44.211  49.815  1.00  0.00     0.156 A 
HETATM   10  N   UNL     1      27.446  45.333  49.659  1.00  0.00    -0.277 N 
HETATM   11  C   UNL     1      26.534  47.679  49.611  1.00  0.00     0.034 A 
HETATM   12  H   UNL     1      28.447  45.481  49.601  1.00  0.00     0.189 HD
HETATM   13  N   UNL     1      26.995  44.071  49.755  1.00  0.00    -0.168 NA
HETATM   14  C   UNL     1      25.319  48.374  49.655  1.00  0.00     0.032 A 
BRANCH   9  15
HETATM   15  C   UNL     1      24.772  43.041  49.949  1.00  0.00     0.270 C 
HETATM   16  N   UNL     1      24.992  42.307  51.084  1.00  0.00    -0.365 N 
HETATM   17  H   UNL     1      25.704  42.618  51.733  1.00  0.00     0.159 HD
HETATM   18  H   UNL     1      24.417  41.502  51.274  1.00  0.00     0.159 HD
HETATM   19  O   UNL     1      23.901  42.722  49.148  1.00  0.00    -0.266 OA
ENDBRANCH   9  15
ENDBRANCH   2   5
BRANCH   1  20
HETATM   20  C   UNL     1      21.102  49.984  49.082  1.00  0.00     0.032 A 
HETATM   21  C   UNL     1      20.748  51.245  48.584  1.00  0.00     0.020 A 
HETATM   22  C   UNL     1      19.527  51.833  48.946  1.00  0.00     0.038 A 
HETATM   23  C   UNL     1      18.646  51.163  49.794  1.00  0.00     0.068 A 
HETATM   24  C   UNL     1      18.975  49.886  50.250  1.00  0.00     0.038 A 
HETATM   25  C   UNL     1      20.194  49.300  49.901  1.00  0.00     0.020 A 
BRANCH  23  26
HETATM   26  O   UNL     1      17.436  51.633  50.222  1.00  0.00    -0.351 OA
BRANCH  26  27
HETATM   27  C   UNL     1      16.846  52.681  49.448  1.00  0.00     0.176 C 
BRANCH  27  28
HETATM   28  C   UNL     1      15.617  52.102  48.746  1.00  0.00     0.030 C 
BRANCH  28  29
HETATM   29  C   UNL     1      15.933  51.411  47.409  1.00  0.00    -0.021 C 
HETATM   30  C   UNL     1      15.127  51.997  46.248  1.00  0.00     0.009 C 
HETATM   31  C   UNL     1      15.658  49.910  47.522  1.00  0.00     0.009 C 
ENDBRANCH  28  29
ENDBRANCH  27  28
ENDBRANCH  26  27
ENDBRANCH  23  26
ENDBRANCH   1  20
TORSDOF 7
ENDMDL
MODEL 7
REMARK VINA RESULT:      -7.9      1.750      2.404
REMARK  7 active torsions:
REMARK  status: ('A' for Active; 'I' for Inactive)
REMARK    1  A    between atoms: C_2  and  C_3 
REMARK    2  A    between atoms: C_3  and  C_4 
REMARK    3  A    between atoms: C_4  and  O_5 
REMARK    4  A    between atoms: O_5  and  C_6 
REMARK    5  A    between atoms: C_9  and  C_10 
REMARK       I    between atoms: C_10  and  N_11 
REMARK    6  A    between atoms: N_11  and  C_12 
REMARK    7  A    between atoms: C_19  and  C_20 
REMARK       I    between atoms: C_20  and  N_21 
ROOT
HETATM    1  C   UNL     1      24.892  45.156  51.055  1.00  0.00     0.256 C 
HETATM    2  N   UNL     1      26.275  45.221  51.050  1.00  0.00    -0.323 N 
HETATM    3  O   UNL     1      24.205  44.415  51.748  1.00  0.00    -0.267 OA
HETATM    4  H   UNL     1      26.711  45.873  50.416  1.00  0.00     0.169 HD
ENDROOT
BRANCH   2   5
HETATM    5  C   UNL     1      27.170  44.512  51.885  1.00  0.00     0.036 A 
HETATM    6  C   UNL     1      27.669  45.009  53.095  1.00  0.00     0.046 A 
HETATM    7  C   UNL     1      28.597  44.243  53.836  1.00  0.00     0.030 A 
HETATM    8  C   UNL     1      28.973  42.996  53.351  1.00  0.00     0.063 A 
HETATM    9  C   UNL     1      29.341  44.408  55.043  1.00  0.00     0.156 A 
HETATM   10  N   UNL     1      29.857  42.500  54.269  1.00  0.00    -0.277 N 
HETATM   11  C   UNL     1      28.487  42.463  52.156  1.00  0.00     0.034 A 
HETATM   12  H   UNL     1      30.331  41.605  54.243  1.00  0.00     0.189 HD
HETATM   13  N   UNL     1      30.109  43.324  55.299  1.00  0.00    -0.168 NA
HETATM   14  C   UNL     1      27.588  43.253  51.429  1.00  0.00     0.032 A 
BRANCH   9  15
HETATM   15  C   UNL     1      29.347  45.571  55.942  1.00  0.00     0.270 C 
HETATM   16  N   UNL     1      30.238  45.471  56.976  1.00  0.00    -0.365 N 
HETATM   17  H   UNL     1      30.819  44.643  57.038  1.00  0.00     0.159 HD
HETATM   18  H   UNL     1      30.332  46.233  57.628  1.00  0.00     0.159 HD
HETATM   19  O   UNL     1      28.644  46.566  55.807  1.00  0.00    -0.266 OA
ENDBRANCH   9  15
ENDBRANCH   2   5
BRANCH   1  20
HETATM   20  C   UNL     1      24.189  46.110  50.138  1.00  0.00     0.032 A 
HETATM   21  C   UNL     1      24.359  47.500  50.196  1.00  0.00     0.020 A 
HETATM   22  C   UNL     1      23.634  48.340  49.336  1.00  0.00     0.038 A 
HETATM   23  C   UNL     1      22.749  47.799  48.405  1.00  0.00     0.068 A 
HETATM   24  C   UNL     1      22.617  46.413  48.313  1.00  0.00     0.038 A 
HETATM   25  C   UNL     1      23.328  45.573  49.173  1.00  0.00     0.020 A 
BRANCH  23  26
HETATM   26  O   UNL     1      21.985  48.510  47.523  1.00  0.00    -0.351 OA
BRANCH  26  27
HETATM   27  C   UNL     1      22.110  49.933  47.569  1.00  0.00     0.176 C 
BRANCH  27  28
HETATM   28  C   UNL     1      20.699  50.521  47.599  1.00  0.00     0.030 C 
BRANCH  28  29
HETATM   29  C   UNL     1      20.462  51.508  48.754  1.00  0.00    -0.021 C 
HETATM   30  C   UNL     1      20.338  50.802  50.106  1.00  0.00     0.009 C 
HETATM   31  C   UNL     1      19.200  52.331  48.484  1.00  0.00     0.009 C 
ENDBRANCH  28  29
ENDBRANCH  27  28
ENDBRANCH  26  27
ENDBRANCH  23  26
ENDBRANCH   1  20
TORSDOF 7
ENDMDL
MODEL 8
REMARK VINA RESULT:      -7.8      2.458      4.061
REMARK  7 active torsions:
REMARK  status: ('A' for Active; 'I' for Inactive)
REMARK    1  A    between atoms: C_2  and  C_3 
REMARK    2  A    between atoms: C_3  and  C_4 
REMARK    3  A    between atoms: C_4  and  O_5 
REMARK    4  A    between atoms: O_5  and  C_6 
REMARK    5  A    between atoms: C_9  and  C_10 
REMARK       I    between atoms: C_10  and  N_11 
REMARK    6  A    between atoms: N_11  and  C_12 
REMARK    7  A    between atoms: C_19  and  C_20 
REMARK       I    between atoms: C_20  and  N_21 
ROOT
HETATM    1  C   UNL     1      25.360  47.710  49.866  1.00  0.00     0.256 C 
HETATM    2  N   UNL     1      25.004  46.863  50.902  1.00  0.00    -0.323 N 
HETATM    3  O   UNL     1      26.487  47.861  49.410  1.00  0.00    -0.267 OA
HETATM    4  H   UNL     1      24.036  46.850  51.184  1.00  0.00     0.169 HD
ENDROOT
BRANCH   2   5
HETATM    5  C   UNL     1      25.838  45.951  51.589  1.00  0.00     0.036 A 
HETATM    6  C   UNL     1      26.430  46.214  52.830  1.00  0.00     0.046 A 
HETATM    7  C   UNL     1      27.287  45.254  53.414  1.00  0.00     0.030 A 
HETATM    8  C   UNL     1      27.501  44.055  52.747  1.00  0.00     0.063 A 
HETATM    9  C   UNL     1      28.083  45.166  54.596  1.00  0.00     0.156 A 
HETATM   10  N   UNL     1      28.351  43.341  53.545  1.00  0.00    -0.277 N 
HETATM   11  C   UNL     1      26.919  43.752  51.515  1.00  0.00     0.034 A 
HETATM   12  H   UNL     1      28.718  42.413  53.375  1.00  0.00     0.189 HD
HETATM   13  N   UNL     1      28.730  43.980  54.665  1.00  0.00    -0.168 NA
HETATM   14  C   UNL     1      26.093  44.730  50.947  1.00  0.00     0.032 A 
BRANCH   9  15
HETATM   15  C   UNL     1      28.252  46.183  55.644  1.00  0.00     0.270 C 
HETATM   16  N   UNL     1      29.334  45.973  56.454  1.00  0.00    -0.365 N 
HETATM   17  H   UNL     1      29.929  45.173  56.272  1.00  0.00     0.159 HD
HETATM   18  H   UNL     1      29.546  46.635  57.183  1.00  0.00     0.159 HD
HETATM   19  O   UNL     1      27.520  47.153  55.804  1.00  0.00    -0.266 OA
ENDBRANCH   9  15
ENDBRANCH   2   5
BRANCH   1  20
HETATM   20  C   UNL     1      24.240  48.487  49.243  1.00  0.00     0.032 A 
HETATM   21  C   UNL     1      24.399  49.772  48.707  1.00  0.00     0.020 A 
HETATM   22  C   UNL     1      23.298  50.462  48.179  1.00  0.00     0.038 A 
HETATM   23  C   UNL     1      22.035  49.870  48.169  1.00  0.00     0.068 A 
HETATM   24  C   UNL     1      21.886  48.571  48.656  1.00  0.00     0.038 A 
HETATM   25  C   UNL     1      22.977  47.884  49.193  1.00  0.00     0.020 A 
BRANCH  23  26
HETATM   26  O   UNL     1      20.890  50.440  47.690  1.00  0.00    -0.351 OA
BRANCH  26  27
HETATM   27  C   UNL     1      20.434  51.620  48.358  1.00  0.00     0.176 C 
BRANCH  27  28
HETATM   28  C   UNL     1      20.032  51.221  49.778  1.00  0.00     0.030 C 
BRANCH  28  29
HETATM   29  C   UNL     1      18.512  51.171  50.002  1.00  0.00    -0.021 C 
HETATM   30  C   UNL     1      17.857  49.991  49.283  1.00  0.00     0.009 C 
HETATM   31  C   UNL     1      17.874  52.480  49.532  1.00  0.00     0.009 C 
ENDBRANCH  28  29
ENDBRANCH  27  28
ENDBRANCH  26  27
ENDBRANCH  23  26
ENDBRANCH   1  20
TORSDOF 7
ENDMDL
MODEL 9
REMARK VINA RESULT:      -7.7      4.506     10.263
REMARK  7 active torsions:
REMARK  status: ('A' for Active; 'I' for Inactive)
REMARK    1  A    between atoms: C_2  and  C_3 
REMARK    2  A    between atoms: C_3  and  C_4 
REMARK    3  A    between atoms: C_4  and  O_5 
REMARK    4  A    between atoms: O_5  and  C_6 
REMARK    5  A    between atoms: C_9  and  C_10 
REMARK       I    between atoms: C_10  and  N_11 
REMARK    6  A    between atoms: N_11  and  C_12 
REMARK    7  A    between atoms: C_19  and  C_20 
REMARK       I    between atoms: C_20  and  N_21 
ROOT
HETATM    1  C   UNL     1      24.727  46.715  50.559  1.00  0.00     0.256 C 
HETATM    2  N   UNL     1      23.921  46.971  49.463  1.00  0.00    -0.323 N 
HETATM    3  O   UNL     1      24.995  47.502  51.459  1.00  0.00    -0.267 OA
HETATM    4  H   UNL     1      23.797  46.230  48.790  1.00  0.00     0.169 HD
ENDROOT
BRANCH   2   5
HETATM    5  C   UNL     1      23.187  48.149  49.194  1.00  0.00     0.036 A 
HETATM    6  C   UNL     1      21.789  48.203  49.135  1.00  0.00     0.046 A 
HETATM    7  C   UNL     1      21.149  49.421  48.812  1.00  0.00     0.030 A 
HETATM    8  C   UNL     1      21.930  50.548  48.586  1.00  0.00     0.063 A 
HETATM    9  C   UNL     1      19.805  49.860  48.618  1.00  0.00     0.156 A 
HETATM   10  N   UNL     1      21.046  51.553  48.309  1.00  0.00    -0.277 N 
HETATM   11  C   UNL     1      23.324  50.535  48.648  1.00  0.00     0.034 A 
HETATM   12  H   UNL     1      21.263  52.521  48.100  1.00  0.00     0.189 HD
HETATM   13  N   UNL     1      19.757  51.177  48.313  1.00  0.00    -0.168 NA
HETATM   14  C   UNL     1      23.935  49.310  48.946  1.00  0.00     0.032 A 
BRANCH   9  15
HETATM   15  C   UNL     1      18.577  49.057  48.701  1.00  0.00     0.270 C 
HETATM   16  N   UNL     1      17.901  48.947  47.516  1.00  0.00    -0.365 N 
HETATM   17  H   UNL     1      18.289  49.395  46.693  1.00  0.00     0.159 HD
HETATM   18  H   UNL     1      17.063  48.391  47.470  1.00  0.00     0.159 HD
HETATM   19  O   UNL     1      18.165  48.507  49.717  1.00  0.00    -0.266 OA
ENDBRANCH   9  15
ENDBRANCH   2   5
BRANCH   1  20
HETATM   20  C   UNL     1      25.292  45.330  50.646  1.00  0.00     0.032 A 
HETATM   21  C   UNL     1      24.523  44.203  50.965  1.00  0.00     0.020 A 
HETATM   22  C   UNL     1      25.126  42.941  51.075  1.00  0.00     0.038 A 
HETATM   23  C   UNL     1      26.494  42.792  50.853  1.00  0.00     0.068 A 
HETATM   24  C   UNL     1      27.252  43.905  50.486  1.00  0.00     0.038 A 
HETATM   25  C   UNL     1      26.659  45.166  50.386  1.00  0.00     0.020 A 
BRANCH  23  26
HETATM   26  O   UNL     1      27.194  41.622  50.935  1.00  0.00    -0.351 OA
BRANCH  26  27
HETATM   27  C   UNL     1      28.415  41.656  51.679  1.00  0.00     0.176 C 
BRANCH  27  28
HETATM   28  C   UNL     1      28.054  41.589  53.163  1.00  0.00     0.030 C 
BRANCH  28  29
HETATM   29  C   UNL     1      28.826  42.593  54.036  1.00  0.00    -0.021 C 
HETATM   30  C   UNL     1      28.069  43.910  54.215  1.00  0.00     0.009 C 
HETATM   31  C   UNL     1      30.200  42.868  53.420  1.00  0.00     0.009 C 
ENDBRANCH  28  29
ENDBRANCH  27  28
ENDBRANCH  26  27
ENDBRANCH  23  26
ENDBRANCH   1  20
TORSDOF 7
ENDMDL
MODEL 10
REMARK VINA RESULT:      -7.6      3.522     10.242
REMARK  7 active torsions:
REMARK  status: ('A' for Active; 'I' for Inactive)
REMARK    1  A    between atoms: C_2  and  C_3 
REMARK    2  A    between atoms: C_3  and  C_4 
REMARK    3  A    between atoms: C_4  and  O_5 
REMARK    4  A    between atoms: O_5  and  C_6 
REMARK    5  A    between atoms: C_9  and  C_10 
REMARK       I    between atoms: C_10  and  N_11 
REMARK    6  A    between atoms: N_11  and  C_12 
REMARK    7  A    between atoms: C_19  and  C_20 
REMARK       I    between atoms: C_20  and  N_21 
ROOT
HETATM    1  C   UNL     1      25.122  44.816  51.796  1.00  0.00     0.256 C 
HETATM    2  N   UNL     1      25.355  45.807  50.857  1.00  0.00    -0.323 N 
HETATM    3  O   UNL     1      24.031  44.342  52.090  1.00  0.00    -0.267 OA
HETATM    4  H   UNL     1      26.308  46.111  50.726  1.00  0.00     0.169 HD
ENDROOT
BRANCH   2   5
HETATM    5  C   UNL     1      24.411  46.415  49.999  1.00  0.00     0.036 A 
HETATM    6  C   UNL     1      23.600  45.708  49.102  1.00  0.00     0.046 A 
HETATM    7  C   UNL     1      22.718  46.413  48.251  1.00  0.00     0.030 A 
HETATM    8  C   UNL     1      22.662  47.798  48.345  1.00  0.00     0.063 A 
HETATM    9  C   UNL     1      21.797  46.076  47.214  1.00  0.00     0.156 A 
HETATM   10  N   UNL     1      21.733  48.187  47.421  1.00  0.00    -0.277 N 
HETATM   11  C   UNL     1      23.446  48.535  49.234  1.00  0.00     0.034 A 
HETATM   12  H   UNL     1      21.429  49.132  47.218  1.00  0.00     0.189 HD
HETATM   13  N   UNL     1      21.195  47.180  46.715  1.00  0.00    -0.168 NA
HETATM   14  C   UNL     1      24.328  47.815  50.049  1.00  0.00     0.032 A 
BRANCH   9  15
HETATM   15  C   UNL     1      21.492  44.740  46.682  1.00  0.00     0.270 C 
HETATM   16  N   UNL     1      22.057  44.484  45.462  1.00  0.00    -0.365 N 
HETATM   17  H   UNL     1      22.637  45.198  45.036  1.00  0.00     0.159 HD
HETATM   18  H   UNL     1      21.926  43.582  45.033  1.00  0.00     0.159 HD
HETATM   19  O   UNL     1      20.808  43.897  47.252  1.00  0.00    -0.266 OA
ENDBRANCH   9  15
ENDBRANCH   2   5
BRANCH   1  20
HETATM   20  C   UNL     1      26.334  44.270  52.485  1.00  0.00     0.032 A 
HETATM   21  C   UNL     1      27.580  44.131  51.859  1.00  0.00     0.020 A 
HETATM   22  C   UNL     1      28.663  43.569  52.550  1.00  0.00     0.038 A 
HETATM   23  C   UNL     1      28.516  43.154  53.873  1.00  0.00     0.068 A 
HETATM   24  C   UNL     1      27.290  43.337  54.514  1.00  0.00     0.038 A 
HETATM   25  C   UNL     1      26.205  43.887  53.827  1.00  0.00     0.020 A 
BRANCH  23  26
HETATM   26  O   UNL     1      29.490  42.588  54.646  1.00  0.00    -0.351 OA
BRANCH  26  27
HETATM   27  C   UNL     1      30.699  43.336  54.801  1.00  0.00     0.176 C 
BRANCH  27  28
HETATM   28  C   UNL     1      30.441  44.421  55.847  1.00  0.00     0.030 C 
BRANCH  28  29
HETATM   29  C   UNL     1      30.811  44.004  57.280  1.00  0.00    -0.021 C 
HETATM   30  C   UNL     1      30.938  45.203  58.220  1.00  0.00     0.009 C 
HETATM   31  C   UNL     1      32.124  43.216  57.269  1.00  0.00     0.009 C 
ENDBRANCH  28  29
ENDBRANCH  27  28
ENDBRANCH  26  27
ENDBRANCH  23  26
ENDBRANCH   1  20
TORSDOF 7
ENDMDL
