MODEL 1
REMARK VINA RESULT:     -10.9      0.000      0.000
REMARK  5 active torsions:
REMARK  status: ('A' for Active; 'I' for Inactive)
REMARK    1  A    between atoms: C_9  and  C_10 
REMARK    2  A    between atoms: C_10  and  C_11 
REMARK       I    between atoms: C_11  and  N_12 
REMARK    3  A    between atoms: N_12  and  C_13 
REMARK    4  A    between atoms: C_13  and  C_14 
REMARK    5  A    between atoms: N_16  and  C_17 
ROOT
HETATM    1  C   UNL     1      24.220  47.373  49.569  1.00  0.00     0.084 A 
HETATM    2  N   UNL     1      23.041  47.731  49.148  1.00  0.00    -0.171 NA
HETATM    3  N   UNL     1      22.887  48.918  48.478  1.00  0.00    -0.229 N 
HETATM    4  C   UNL     1      23.942  49.777  48.170  1.00  0.00     0.275 A 
HETATM    5  O   UNL     1      23.819  50.821  47.533  1.00  0.00    -0.266 OA
HETATM    6  C   UNL     1      25.280  49.373  48.638  1.00  0.00     0.046 A 
HETATM    7  C   UNL     1      25.442  48.171  49.319  1.00  0.00     0.008 A 
HETATM    8  C   UNL     1      26.386  50.194  48.370  1.00  0.00     0.018 A 
HETATM    9  C   UNL     1      27.659  49.805  48.782  1.00  0.00     0.001 A 
HETATM   10  C   UNL     1      27.828  48.597  49.453  1.00  0.00     0.001 A 
HETATM   11  C   UNL     1      26.726  47.778  49.719  1.00  0.00     0.014 A 
ENDROOT
BRANCH   1  12
HETATM   12  C   UNL     1      24.317  46.044  50.317  1.00  0.00     0.184 C 
BRANCH  12  13
HETATM   13  N   UNL     1      25.142  46.207  51.498  1.00  0.00    -0.355 N 
HETATM   14  C   UNL     1      25.095  45.294  52.527  1.00  0.00     0.222 C 
HETATM   15  O   UNL     1      24.382  44.293  52.486  1.00  0.00    -0.273 OA
HETATM   16  H   UNL     1      25.536  47.130  51.661  1.00  0.00     0.162 HD
BRANCH  14  17
HETATM   17  C   UNL     1      26.027  45.593  53.680  1.00  0.00     0.143 C 
BRANCH  17  18
HETATM   18  C   UNL     1      27.209  44.688  53.846  1.00  0.00    -0.021 A 
HETATM   19  C   UNL     1      28.378  44.800  54.677  1.00  0.00    -0.001 A 
HETATM   20  C   UNL     1      29.172  43.669  54.439  1.00  0.00     0.044 A 
HETATM   21  C   UNL     1      28.848  45.746  55.615  1.00  0.00     0.014 A 
HETATM   22  N   UNL     1      28.507  42.894  53.519  1.00  0.00    -0.360 N 
HETATM   23  C   UNL     1      30.402  43.461  55.088  1.00  0.00     0.030 A 
HETATM   24  C   UNL     1      28.968  41.617  53.020  1.00  0.00     0.155 C 
HETATM   25  C   UNL     1      27.339  43.496  53.151  1.00  0.00     0.099 A 
HETATM   26  C   UNL     1      30.839  44.420  56.001  1.00  0.00     0.002 A 
HETATM   27  C   UNL     1      30.073  45.548  56.265  1.00  0.00     0.001 A 
ENDBRANCH  17  18
ENDBRANCH  14  17
ENDBRANCH  12  13
ENDBRANCH   1  12
BRANCH   3  28
HETATM   28  C   UNL     1      21.568  49.215  47.927  1.00  0.00     0.114 C 
HETATM   29  C   UNL     1      20.737  47.954  47.694  1.00  0.00     0.027 C 
HETATM   30  C   UNL     1      19.316  48.472  47.500  1.00  0.00     0.002 C 
HETATM   31  C   UNL     1      19.260  49.835  48.194  1.00  0.00     0.002 C 
HETATM   32  C   UNL     1      20.640  50.054  48.807  1.00  0.00     0.027 C 
ENDBRANCH   3  28
TORSDOF 5
ENDMDL
MODEL 2
REMARK VINA RESULT:     -10.6      1.195      2.094
REMARK  5 active torsions:
REMARK  status: ('A' for Active; 'I' for Inactive)
REMARK    1  A    between atoms: C_9  and  C_10 
REMARK    2  A    between atoms: C_10  and  C_11 
REMARK       I    between atoms: C_11  and  N_12 
REMARK    3  A    between atoms: N_12  and  C_13 
REMARK    4  A    between atoms: C_13  and  C_14 
REMARK    5  A    between atoms: N_16  and  C_17 
ROOT
HETATM    1  C   UNL     1      24.768  46.753  49.706  1.00  0.00     0.084 A 
HETATM    2  N   UNL     1      23.498  46.695  49.422  1.00  0.00    -0.171 NA
HETATM    3  N   UNL     1      22.896  47.742  48.773  1.00  0.00    -0.229 N 
HETATM    4  C   UNL     1      23.575  48.884  48.347  1.00  0.00     0.275 A 
HETATM    5  O   UNL     1      23.051  49.808  47.729  1.00  0.00    -0.266 OA
HETATM    6  C   UNL     1      25.014  48.952  48.661  1.00  0.00     0.046 A 
HETATM    7  C   UNL     1      25.629  47.893  49.319  1.00  0.00     0.008 A 
HETATM    8  C   UNL     1      25.757  50.075  48.268  1.00  0.00     0.018 A 
HETATM    9  C   UNL     1      27.123  50.134  48.533  1.00  0.00     0.001 A 
HETATM   10  C   UNL     1      27.747  49.071  49.180  1.00  0.00     0.001 A 
HETATM   11  C   UNL     1      27.007  47.950  49.571  1.00  0.00     0.014 A 
ENDROOT
BRANCH   1  12
HETATM   12  C   UNL     1      25.372  45.555  50.439  1.00  0.00     0.184 C 
BRANCH  12  13
HETATM   13  N   UNL     1      25.782  45.953  51.771  1.00  0.00    -0.355 N 
HETATM   14  C   UNL     1      25.351  45.262  52.881  1.00  0.00     0.222 C 
HETATM   15  O   UNL     1      24.629  44.270  52.799  1.00  0.00    -0.273 OA
HETATM   16  H   UNL     1      26.159  46.891  51.876  1.00  0.00     0.162 HD
BRANCH  14  17
HETATM   17  C   UNL     1      25.879  45.789  54.197  1.00  0.00     0.143 C 
BRANCH  17  18
HETATM   18  C   UNL     1      27.261  45.364  54.589  1.00  0.00    -0.021 A 
HETATM   19  C   UNL     1      28.137  44.366  54.037  1.00  0.00    -0.001 A 
HETATM   20  C   UNL     1      29.319  44.379  54.791  1.00  0.00     0.044 A 
HETATM   21  C   UNL     1      28.053  43.446  52.967  1.00  0.00     0.014 A 
HETATM   22  N   UNL     1      29.176  45.357  55.749  1.00  0.00    -0.360 N 
HETATM   23  C   UNL     1      30.396  43.516  54.524  1.00  0.00     0.030 A 
HETATM   24  C   UNL     1      30.183  45.722  56.720  1.00  0.00     0.155 C 
HETATM   25  C   UNL     1      27.949  45.944  55.643  1.00  0.00     0.099 A 
HETATM   26  C   UNL     1      30.275  42.616  53.465  1.00  0.00     0.002 A 
HETATM   27  C   UNL     1      29.120  42.581  52.694  1.00  0.00     0.001 A 
ENDBRANCH  17  18
ENDBRANCH  14  17
ENDBRANCH  12  13
ENDBRANCH   1  12
BRANCH   3  28
HETATM   28  C   UNL     1      21.501  47.577  48.376  1.00  0.00     0.114 C 
HETATM   29  C   UNL     1      21.033  46.126  48.485  1.00  0.00     0.027 C 
HETATM   30  C   UNL     1      19.512  46.217  48.412  1.00  0.00     0.002 C 
HETATM   31  C   UNL     1      19.147  47.632  48.864  1.00  0.00     0.002 C 
HETATM   32  C   UNL     1      20.463  48.315  49.224  1.00  0.00     0.027 C 
ENDBRANCH   3  28
TORSDOF 5
ENDMDL
MODEL 3
REMARK VINA RESULT:     -10.4      3.961      8.795
REMARK  5 active torsions:
REMARK  status: ('A' for Active; 'I' for Inactive)
REMARK    1  A    between atoms: C_9  and  C_10 
REMARK    2  A    between atoms: C_10  and  C_11 
REMARK       I    between atoms: C_11  and  N_12 
REMARK    3  A    between atoms: N_12  and  C_13 
REMARK    4  A    between atoms: C_13  and  C_14 
REMARK    5  A    between atoms: N_16  and  C_17 
ROOT
HETATM    1  C   UNL     1      27.769  43.214  54.122  1.00  0.00     0.084 A 
HETATM    2  N   UNL     1      28.887  43.318  54.781  1.00  0.00    -0.171 NA
HETATM    3  N   UNL     1      29.346  44.556  55.154  1.00  0.00    -0.229 N 
HETATM    4  C   UNL     1      28.661  45.745  54.906  1.00  0.00     0.275 A 
HETATM    5  O   UNL     1      29.045  46.852  55.275  1.00  0.00    -0.266 OA
HETATM    6  C   UNL     1      27.391  45.632  54.167  1.00  0.00     0.046 A 
HETATM    7  C   UNL     1      26.921  44.380  53.784  1.00  0.00     0.008 A 
HETATM    8  C   UNL     1      26.652  46.789  53.877  1.00  0.00     0.018 A 
HETATM    9  C   UNL     1      25.436  46.689  53.205  1.00  0.00     0.001 A 
HETATM   10  C   UNL     1      24.954  45.438  52.832  1.00  0.00     0.001 A 
HETATM   11  C   UNL     1      25.690  44.284  53.122  1.00  0.00     0.014 A 
ENDROOT
BRANCH   1  12
HETATM   12  C   UNL     1      27.322  41.807  53.728  1.00  0.00     0.184 C 
BRANCH  12  13
HETATM   13  N   UNL     1      27.001  41.773  52.316  1.00  0.00    -0.355 N 
HETATM   14  C   UNL     1      27.872  41.221  51.404  1.00  0.00     0.222 C 
HETATM   15  O   UNL     1      28.939  40.711  51.739  1.00  0.00    -0.273 OA
HETATM   16  H   UNL     1      26.264  42.397  51.995  1.00  0.00     0.162 HD
BRANCH  14  17
HETATM   17  C   UNL     1      27.387  41.246  49.971  1.00  0.00     0.143 C 
BRANCH  17  18
HETATM   18  C   UNL     1      26.289  42.213  49.646  1.00  0.00    -0.021 A 
HETATM   19  C   UNL     1      26.266  43.651  49.639  1.00  0.00    -0.001 A 
HETATM   20  C   UNL     1      24.976  44.049  49.260  1.00  0.00     0.044 A 
HETATM   21  C   UNL     1      27.211  44.666  49.914  1.00  0.00     0.014 A 
HETATM   22  N   UNL     1      24.252  42.903  49.028  1.00  0.00    -0.360 N 
HETATM   23  C   UNL     1      24.603  45.400  49.157  1.00  0.00     0.030 A 
HETATM   24  C   UNL     1      22.876  42.866  48.585  1.00  0.00     0.155 C 
HETATM   25  C   UNL     1      25.022  41.802  49.264  1.00  0.00     0.099 A 
HETATM   26  C   UNL     1      25.559  46.375  49.443  1.00  0.00     0.002 A 
HETATM   27  C   UNL     1      26.848  46.015  49.815  1.00  0.00     0.001 A 
ENDBRANCH  17  18
ENDBRANCH  14  17
ENDBRANCH  12  13
ENDBRANCH   1  12
BRANCH   3  28
HETATM   28  C   UNL     1      30.543  44.607  55.990  1.00  0.00     0.114 C 
HETATM   29  C   UNL     1      30.251  45.138  57.393  1.00  0.00     0.027 C 
HETATM   30  C   UNL     1      31.487  44.760  58.201  1.00  0.00     0.002 C 
HETATM   31  C   UNL     1      32.125  43.573  57.476  1.00  0.00     0.002 C 
HETATM   32  C   UNL     1      31.220  43.267  56.286  1.00  0.00     0.027 C 
ENDBRANCH   3  28
TORSDOF 5
ENDMDL
MODEL 4
REMARK VINA RESULT:     -10.4      1.949      9.054
REMARK  5 active torsions:
REMARK  status: ('A' for Active; 'I' for Inactive)
REMARK    1  A    between atoms: C_9  and  C_10 
REMARK    2  A    between atoms: C_10  and  C_11 
REMARK       I    between atoms: C_11  and  N_12 
REMARK    3  A    between atoms: N_12  and  C_13 
REMARK    4  A    between atoms: C_13  and  C_14 
REMARK    5  A    between atoms: N_16  and  C_17 
ROOT
HETATM    1  C   UNL     1      27.180  44.635  53.942  1.00  0.00     0.084 A 
HETATM    2  N   UNL     1      27.336  43.835  52.927  1.00  0.00    -0.171 NA
HETATM    3  N   UNL     1      28.541  43.209  52.732  1.00  0.00    -0.229 N 
HETATM    4  C   UNL     1      29.632  43.340  53.591  1.00  0.00     0.275 A 
HETATM    5  O   UNL     1      30.700  42.750  53.446  1.00  0.00    -0.266 OA
HETATM    6  C   UNL     1      29.458  44.240  54.745  1.00  0.00     0.046 A 
HETATM    7  C   UNL     1      28.239  44.879  54.948  1.00  0.00     0.008 A 
HETATM    8  C   UNL     1      30.517  44.426  55.646  1.00  0.00     0.018 A 
HETATM    9  C   UNL     1      30.351  45.250  56.757  1.00  0.00     0.001 A 
HETATM   10  C   UNL     1      29.129  45.881  56.972  1.00  0.00     0.001 A 
HETATM   11  C   UNL     1      28.072  45.696  56.074  1.00  0.00     0.014 A 
ENDROOT
BRANCH   1  12
HETATM   12  C   UNL     1      25.815  45.307  54.094  1.00  0.00     0.184 C 
BRANCH  12  13
HETATM   13  N   UNL     1      25.172  45.406  52.799  1.00  0.00    -0.355 N 
HETATM   14  C   UNL     1      25.265  46.555  52.047  1.00  0.00     0.222 C 
HETATM   15  O   UNL     1      25.911  47.533  52.418  1.00  0.00    -0.273 OA
HETATM   16  H   UNL     1      24.446  44.726  52.592  1.00  0.00     0.162 HD
BRANCH  14  17
HETATM   17  C   UNL     1      24.556  46.496  50.712  1.00  0.00     0.143 C 
BRANCH  17  18
HETATM   18  C   UNL     1      24.656  47.711  49.840  1.00  0.00    -0.021 A 
HETATM   19  C   UNL     1      23.640  48.501  49.198  1.00  0.00    -0.001 A 
HETATM   20  C   UNL     1      24.287  49.527  48.496  1.00  0.00     0.044 A 
HETATM   21  C   UNL     1      22.229  48.456  49.140  1.00  0.00     0.014 A 
HETATM   22  N   UNL     1      25.636  49.380  48.716  1.00  0.00    -0.360 N 
HETATM   23  C   UNL     1      23.586  50.487  47.745  1.00  0.00     0.030 A 
HETATM   24  C   UNL     1      26.664  50.255  48.197  1.00  0.00     0.155 C 
HETATM   25  C   UNL     1      25.869  48.294  49.510  1.00  0.00     0.099 A 
HETATM   26  C   UNL     1      22.194  50.407  47.703  1.00  0.00     0.002 A 
HETATM   27  C   UNL     1      21.521  49.406  48.393  1.00  0.00     0.001 A 
ENDBRANCH  17  18
ENDBRANCH  14  17
ENDBRANCH  12  13
ENDBRANCH   1  12
BRANCH   3  28
HETATM   28  C   UNL     1      28.626  42.234  51.648  1.00  0.00     0.114 C 
HETATM   29  C   UNL     1      28.363  40.806  52.127  1.00  0.00     0.027 C 
HETATM   30  C   UNL     1      28.116  40.021  50.843  1.00  0.00     0.002 C 
HETATM   31  C   UNL     1      27.653  41.041  49.801  1.00  0.00     0.002 C 
HETATM   32  C   UNL     1      27.607  42.387  50.517  1.00  0.00     0.027 C 
ENDBRANCH   3  28
TORSDOF 5
ENDMDL
MODEL 5
REMARK VINA RESULT:     -10.3      2.286      4.055
REMARK  5 active torsions:
REMARK  status: ('A' for Active; 'I' for Inactive)
REMARK    1  A    between atoms: C_9  and  C_10 
REMARK    2  A    between atoms: C_10  and  C_11 
REMARK       I    between atoms: C_11  and  N_12 
REMARK    3  A    between atoms: N_12  and  C_13 
REMARK    4  A    between atoms: C_13  and  C_14 
REMARK    5  A    between atoms: N_16  and  C_17 
ROOT
HETATM    1  C   UNL     1      24.532  47.171  49.736  1.00  0.00     0.084 A 
HETATM    2  N   UNL     1      24.125  45.940  49.618  1.00  0.00    -0.171 NA
HETATM    3  N   UNL     1      22.989  45.664  48.900  1.00  0.00    -0.229 N 
HETATM    4  C   UNL     1      22.238  46.632  48.234  1.00  0.00     0.275 A 
HETATM    5  O   UNL     1      21.244  46.386  47.554  1.00  0.00    -0.266 OA
HETATM    6  C   UNL     1      22.698  48.026  48.359  1.00  0.00     0.046 A 
HETATM    7  C   UNL     1      23.849  48.313  49.086  1.00  0.00     0.008 A 
HETATM    8  C   UNL     1      21.986  49.052  47.720  1.00  0.00     0.018 A 
HETATM    9  C   UNL     1      22.432  50.369  47.807  1.00  0.00     0.001 A 
HETATM   10  C   UNL     1      23.589  50.660  48.523  1.00  0.00     0.001 A 
HETATM   11  C   UNL     1      24.301  49.637  49.159  1.00  0.00     0.014 A 
ENDROOT
BRANCH   1  12
HETATM   12  C   UNL     1      25.799  47.409  50.558  1.00  0.00     0.184 C 
BRANCH  12  13
HETATM   13  N   UNL     1      25.893  46.415  51.608  1.00  0.00    -0.355 N 
HETATM   14  C   UNL     1      25.673  46.752  52.925  1.00  0.00     0.222 C 
HETATM   15  O   UNL     1      25.364  47.890  53.270  1.00  0.00    -0.273 OA
HETATM   16  H   UNL     1      26.381  45.552  51.384  1.00  0.00     0.162 HD
BRANCH  14  17
HETATM   17  C   UNL     1      25.791  45.601  53.900  1.00  0.00     0.143 C 
BRANCH  17  18
HETATM   18  C   UNL     1      27.175  45.221  54.332  1.00  0.00    -0.021 A 
HETATM   19  C   UNL     1      28.095  44.247  53.811  1.00  0.00    -0.001 A 
HETATM   20  C   UNL     1      29.255  44.301  54.596  1.00  0.00     0.044 A 
HETATM   21  C   UNL     1      28.069  43.320  52.744  1.00  0.00     0.014 A 
HETATM   22  N   UNL     1      29.057  45.278  55.543  1.00  0.00    -0.360 N 
HETATM   23  C   UNL     1      30.364  43.470  54.364  1.00  0.00     0.030 A 
HETATM   24  C   UNL     1      30.025  45.679  56.539  1.00  0.00     0.155 C 
HETATM   25  C   UNL     1      27.815  45.828  55.401  1.00  0.00     0.099 A 
HETATM   26  C   UNL     1      30.300  42.560  53.307  1.00  0.00     0.002 A 
HETATM   27  C   UNL     1      29.169  42.486  52.505  1.00  0.00     0.001 A 
ENDBRANCH  17  18
ENDBRANCH  14  17
ENDBRANCH  12  13
ENDBRANCH   1  12
BRANCH   3  28
HETATM   28  C   UNL     1      22.642  44.259  48.702  1.00  0.00     0.114 C 
HETATM   29  C   UNL     1      23.326  43.658  47.475  1.00  0.00     0.027 C 
HETATM   30  C   UNL     1      23.162  42.153  47.654  1.00  0.00     0.002 C 
HETATM   31  C   UNL     1      22.969  41.921  49.154  1.00  0.00     0.002 C 
HETATM   32  C   UNL     1      23.064  43.294  49.811  1.00  0.00     0.027 C 
ENDBRANCH   3  28
TORSDOF 5
ENDMDL
MODEL 6
REMARK VINA RESULT:     -10.3      2.230      3.676
REMARK  5 active torsions:
REMARK  status: ('A' for Active; 'I' for Inactive)
REMARK    1  A    between atoms: C_9  and  C_10 
REMARK    2  A    between atoms: C_10  and  C_11 
REMARK       I    between atoms: C_11  and  N_12 
REMARK    3  A    between atoms: N_12  and  C_13 
REMARK    4  A    between atoms: C_13  and  C_14 
REMARK    5  A    between atoms: N_16  and  C_17 
ROOT
HETATM    1  C   UNL     1      24.363  47.032  49.748  1.00  0.00     0.084 A 
HETATM    2  N   UNL     1      23.990  45.801  49.545  1.00  0.00    -0.171 NA
HETATM    3  N   UNL     1      22.908  45.539  48.744  1.00  0.00    -0.229 N 
HETATM    4  C   UNL     1      22.179  46.525  48.078  1.00  0.00     0.275 A 
HETATM    5  O   UNL     1      21.235  46.294  47.326  1.00  0.00    -0.266 OA
HETATM    6  C   UNL     1      22.601  47.919  48.299  1.00  0.00     0.046 A 
HETATM    7  C   UNL     1      23.697  48.191  49.111  1.00  0.00     0.008 A 
HETATM    8  C   UNL     1      21.907  48.962  47.667  1.00  0.00     0.018 A 
HETATM    9  C   UNL     1      22.318  50.281  47.845  1.00  0.00     0.001 A 
HETATM   10  C   UNL     1      23.422  50.558  48.646  1.00  0.00     0.001 A 
HETATM   11  C   UNL     1      24.115  49.518  49.276  1.00  0.00     0.014 A 
ENDROOT
BRANCH   1  12
HETATM   12  C   UNL     1      25.570  47.252  50.659  1.00  0.00     0.184 C 
BRANCH  12  13
HETATM   13  N   UNL     1      25.600  46.231  51.686  1.00  0.00    -0.355 N 
HETATM   14  C   UNL     1      25.683  46.567  53.018  1.00  0.00     0.222 C 
HETATM   15  O   UNL     1      25.709  47.735  53.401  1.00  0.00    -0.273 OA
HETATM   16  H   UNL     1      25.829  45.285  51.390  1.00  0.00     0.162 HD
BRANCH  14  17
HETATM   17  C   UNL     1      25.687  45.391  53.969  1.00  0.00     0.143 C 
BRANCH  17  18
HETATM   18  C   UNL     1      26.908  44.523  53.965  1.00  0.00    -0.021 A 
HETATM   19  C   UNL     1      28.152  44.636  54.679  1.00  0.00    -0.001 A 
HETATM   20  C   UNL     1      28.954  43.550  54.301  1.00  0.00     0.044 A 
HETATM   21  C   UNL     1      28.685  45.551  55.615  1.00  0.00     0.014 A 
HETATM   22  N   UNL     1      28.223  42.798  53.412  1.00  0.00    -0.360 N 
HETATM   23  C   UNL     1      30.249  43.355  54.810  1.00  0.00     0.030 A 
HETATM   24  C   UNL     1      28.671  41.567  52.800  1.00  0.00     0.155 C 
HETATM   25  C   UNL     1      27.004  43.374  53.197  1.00  0.00     0.099 A 
HETATM   26  C   UNL     1      30.747  44.283  55.726  1.00  0.00     0.002 A 
HETATM   27  C   UNL     1      29.976  45.367  56.127  1.00  0.00     0.001 A 
ENDBRANCH  17  18
ENDBRANCH  14  17
ENDBRANCH  12  13
ENDBRANCH   1  12
BRANCH   3  28
HETATM   28  C   UNL     1      22.605  44.139  48.457  1.00  0.00     0.114 C 
HETATM   29  C   UNL     1      23.439  43.589  47.301  1.00  0.00     0.027 C 
HETATM   30  C   UNL     1      23.273  42.076  47.408  1.00  0.00     0.002 C 
HETATM   31  C   UNL     1      22.903  41.789  48.864  1.00  0.00     0.002 C 
HETATM   32  C   UNL     1      22.902  43.139  49.575  1.00  0.00     0.027 C 
ENDBRANCH   3  28
TORSDOF 5
ENDMDL
MODEL 7
REMARK VINA RESULT:     -10.2      2.088      8.916
REMARK  5 active torsions:
REMARK  status: ('A' for Active; 'I' for Inactive)
REMARK    1  A    between atoms: C_9  and  C_10 
REMARK    2  A    between atoms: C_10  and  C_11 
REMARK       I    between atoms: C_11  and  N_12 
REMARK    3  A    between atoms: N_12  and  C_13 
REMARK    4  A    between atoms: C_13  and  C_14 
REMARK    5  A    between atoms: N_16  and  C_17 
ROOT
HETATM    1  C   UNL     1      25.086  47.161  50.448  1.00  0.00     0.084 A 
HETATM    2  N   UNL     1      25.524  47.283  51.669  1.00  0.00    -0.171 NA
HETATM    3  N   UNL     1      25.356  46.254  52.560  1.00  0.00    -0.229 N 
HETATM    4  C   UNL     1      24.768  45.032  52.232  1.00  0.00     0.275 A 
HETATM    5  O   UNL     1      24.652  44.091  53.013  1.00  0.00    -0.266 OA
HETATM    6  C   UNL     1      24.277  44.886  50.850  1.00  0.00     0.046 A 
HETATM    7  C   UNL     1      24.443  45.926  49.942  1.00  0.00     0.008 A 
HETATM    8  C   UNL     1      23.668  43.686  50.454  1.00  0.00     0.018 A 
HETATM    9  C   UNL     1      23.229  43.527  49.141  1.00  0.00     0.001 A 
HETATM   10  C   UNL     1      23.404  44.561  48.225  1.00  0.00     0.001 A 
HETATM   11  C   UNL     1      24.013  45.757  48.619  1.00  0.00     0.014 A 
ENDROOT
BRANCH   1  12
HETATM   12  C   UNL     1      25.297  48.350  49.511  1.00  0.00     0.184 C 
BRANCH  12  13
HETATM   13  N   UNL     1      24.025  48.987  49.237  1.00  0.00    -0.355 N 
HETATM   14  C   UNL     1      23.873  49.832  48.161  1.00  0.00     0.222 C 
HETATM   15  O   UNL     1      24.788  50.065  47.373  1.00  0.00    -0.273 OA
HETATM   16  H   UNL     1      23.347  49.009  49.994  1.00  0.00     0.162 HD
BRANCH  14  17
HETATM   17  C   UNL     1      22.483  50.404  47.998  1.00  0.00     0.143 C 
BRANCH  17  18
HETATM   18  C   UNL     1      21.346  49.572  48.507  1.00  0.00    -0.021 A 
HETATM   19  C   UNL     1      20.813  48.316  48.050  1.00  0.00    -0.001 A 
HETATM   20  C   UNL     1      19.740  47.984  48.889  1.00  0.00     0.044 A 
HETATM   21  C   UNL     1      21.132  47.417  47.008  1.00  0.00     0.014 A 
HETATM   22  N   UNL     1      19.636  48.985  49.827  1.00  0.00    -0.360 N 
HETATM   23  C   UNL     1      18.984  46.812  48.720  1.00  0.00     0.030 A 
HETATM   24  C   UNL     1      18.673  49.016  50.906  1.00  0.00     0.155 C 
HETATM   25  C   UNL     1      20.583  49.942  49.603  1.00  0.00     0.099 A 
HETATM   26  C   UNL     1      19.322  45.951  47.676  1.00  0.00     0.002 A 
HETATM   27  C   UNL     1      20.383  46.247  46.830  1.00  0.00     0.001 A 
ENDBRANCH  17  18
ENDBRANCH  14  17
ENDBRANCH  12  13
ENDBRANCH   1  12
BRANCH   3  28
HETATM   28  C   UNL     1      25.967  46.398  53.878  1.00  0.00     0.114 C 
HETATM   29  C   UNL     1      27.320  45.693  53.973  1.00  0.00     0.027 C 
HETATM   30  C   UNL     1      27.951  46.264  55.238  1.00  0.00     0.002 C 
HETATM   31  C   UNL     1      27.287  47.623  55.470  1.00  0.00     0.002 C 
HETATM   32  C   UNL     1      26.315  47.822  54.312  1.00  0.00     0.027 C 
ENDBRANCH   3  28
TORSDOF 5
ENDMDL
MODEL 8
REMARK VINA RESULT:     -10.2      2.298      9.053
REMARK  5 active torsions:
REMARK  status: ('A' for Active; 'I' for Inactive)
REMARK    1  A    between atoms: C_9  and  C_10 
REMARK    2  A    between atoms: C_10  and  C_11 
REMARK       I    between atoms: C_11  and  N_12 
REMARK    3  A    between atoms: N_12  and  C_13 
REMARK    4  A    between atoms: C_13  and  C_14 
REMARK    5  A    between atoms: N_16  and  C_17 
ROOT
HETATM    1  C   UNL     1      26.357  43.947  52.641  1.00  0.00     0.084 A 
HETATM    2  N   UNL     1      26.456  42.920  51.847  1.00  0.00    -0.171 NA
HETATM    3  N   UNL     1      27.586  42.143  51.875  1.00  0.00    -0.229 N 
HETATM    4  C   UNL     1      28.653  42.356  52.749  1.00  0.00     0.275 A 
HETATM    5  O   UNL     1      29.649  41.639  52.809  1.00  0.00    -0.266 OA
HETATM    6  C   UNL     1      28.542  43.513  53.655  1.00  0.00     0.046 A 
HETATM    7  C   UNL     1      27.399  44.305  53.630  1.00  0.00     0.008 A 
HETATM    8  C   UNL     1      29.582  43.791  54.555  1.00  0.00     0.018 A 
HETATM    9  C   UNL     1      29.472  44.864  55.437  1.00  0.00     0.001 A 
HETATM   10  C   UNL     1      28.325  45.652  55.425  1.00  0.00     0.001 A 
HETATM   11  C   UNL     1      27.288  45.375  54.529  1.00  0.00     0.014 A 
ENDROOT
BRANCH   1  12
HETATM   12  C   UNL     1      25.075  44.775  52.551  1.00  0.00     0.184 C 
BRANCH  12  13
HETATM   13  N   UNL     1      25.055  45.507  51.301  1.00  0.00    -0.355 N 
HETATM   14  C   UNL     1      25.118  46.883  51.284  1.00  0.00     0.222 C 
HETATM   15  O   UNL     1      25.221  47.549  52.312  1.00  0.00    -0.273 OA
HETATM   16  H   UNL     1      24.725  45.008  50.479  1.00  0.00     0.162 HD
BRANCH  14  17
HETATM   17  C   UNL     1      25.105  47.499  49.902  1.00  0.00     0.143 C 
BRANCH  17  18
HETATM   18  C   UNL     1      23.764  47.686  49.259  1.00  0.00    -0.021 A 
HETATM   19  C   UNL     1      23.028  48.877  48.935  1.00  0.00    -0.001 A 
HETATM   20  C   UNL     1      21.821  48.479  48.343  1.00  0.00     0.044 A 
HETATM   21  C   UNL     1      23.260  50.264  49.078  1.00  0.00     0.014 A 
HETATM   22  N   UNL     1      21.831  47.104  48.292  1.00  0.00    -0.360 N 
HETATM   23  C   UNL     1      20.853  49.400  47.907  1.00  0.00     0.030 A 
HETATM   24  C   UNL     1      20.782  46.286  47.725  1.00  0.00     0.155 C 
HETATM   25  C   UNL     1      22.982  46.620  48.844  1.00  0.00     0.099 A 
HETATM   26  C   UNL     1      21.113  50.761  48.072  1.00  0.00     0.002 A 
HETATM   27  C   UNL     1      22.301  51.190  48.648  1.00  0.00     0.001 A 
ENDBRANCH  17  18
ENDBRANCH  14  17
ENDBRANCH  12  13
ENDBRANCH   1  12
BRANCH   3  28
HETATM   28  C   UNL     1      27.597  40.939  51.048  1.00  0.00     0.114 C 
HETATM   29  C   UNL     1      26.188  40.442  50.725  1.00  0.00     0.027 C 
HETATM   30  C   UNL     1      26.393  39.456  49.580  1.00  0.00     0.002 C 
HETATM   31  C   UNL     1      27.710  39.850  48.908  1.00  0.00     0.002 C 
HETATM   32  C   UNL     1      28.217  41.078  49.657  1.00  0.00     0.027 C 
ENDBRANCH   3  28
TORSDOF 5
ENDMDL
MODEL 9
REMARK VINA RESULT:     -10.2      1.918      3.199
REMARK  5 active torsions:
REMARK  status: ('A' for Active; 'I' for Inactive)
REMARK    1  A    between atoms: C_9  and  C_10 
REMARK    2  A    between atoms: C_10  and  C_11 
REMARK       I    between atoms: C_11  and  N_12 
REMARK    3  A    between atoms: N_12  and  C_13 
REMARK    4  A    between atoms: C_13  and  C_14 
REMARK    5  A    between atoms: N_16  and  C_17 
ROOT
HETATM    1  C   UNL     1      24.761  46.864  50.069  1.00  0.00     0.084 A 
HETATM    2  N   UNL     1      24.196  47.925  49.569  1.00  0.00    -0.171 NA
HETATM    3  N   UNL     1      23.069  47.798  48.797  1.00  0.00    -0.229 N 
HETATM    4  C   UNL     1      22.443  46.580  48.533  1.00  0.00     0.275 A 
HETATM    5  O   UNL     1      21.410  46.463  47.877  1.00  0.00    -0.266 OA
HETATM    6  C   UNL     1      23.075  45.376  49.101  1.00  0.00     0.046 A 
HETATM    7  C   UNL     1      24.218  45.498  49.885  1.00  0.00     0.008 A 
HETATM    8  C   UNL     1      22.503  44.117  48.869  1.00  0.00     0.018 A 
HETATM    9  C   UNL     1      23.075  42.977  49.428  1.00  0.00     0.001 A 
HETATM   10  C   UNL     1      24.212  43.095  50.223  1.00  0.00     0.001 A 
HETATM   11  C   UNL     1      24.783  44.350  50.457  1.00  0.00     0.014 A 
ENDROOT
BRANCH   1  12
HETATM   12  C   UNL     1      26.019  47.076  50.911  1.00  0.00     0.184 C 
BRANCH  12  13
HETATM   13  N   UNL     1      26.014  46.162  52.035  1.00  0.00    -0.355 N 
HETATM   14  C   UNL     1      25.804  46.616  53.318  1.00  0.00     0.222 C 
HETATM   15  O   UNL     1      25.586  47.800  53.569  1.00  0.00    -0.273 OA
HETATM   16  H   UNL     1      26.431  45.247  51.887  1.00  0.00     0.162 HD
BRANCH  14  17
HETATM   17  C   UNL     1      25.811  45.539  54.379  1.00  0.00     0.143 C 
BRANCH  17  18
HETATM   18  C   UNL     1      26.990  44.614  54.396  1.00  0.00    -0.021 A 
HETATM   19  C   UNL     1      28.297  44.758  54.977  1.00  0.00    -0.001 A 
HETATM   20  C   UNL     1      29.016  43.589  54.692  1.00  0.00     0.044 A 
HETATM   21  C   UNL     1      28.952  45.764  55.723  1.00  0.00     0.014 A 
HETATM   22  N   UNL     1      28.175  42.760  53.985  1.00  0.00    -0.360 N 
HETATM   23  C   UNL     1      30.343  43.396  55.111  1.00  0.00     0.030 A 
HETATM   24  C   UNL     1      28.514  41.434  53.520  1.00  0.00     0.155 C 
HETATM   25  C   UNL     1      26.967  43.366  53.794  1.00  0.00     0.099 A 
HETATM   26  C   UNL     1      30.961  44.414  55.839  1.00  0.00     0.002 A 
HETATM   27  C   UNL     1      30.276  45.583  56.144  1.00  0.00     0.001 A 
ENDBRANCH  17  18
ENDBRANCH  14  17
ENDBRANCH  12  13
ENDBRANCH   1  12
BRANCH   3  28
HETATM   28  C   UNL     1      22.411  49.026  48.359  1.00  0.00     0.114 C 
HETATM   29  C   UNL     1      21.501  49.615  49.438  1.00  0.00     0.027 C 
HETATM   30  C   UNL     1      21.226  51.036  48.959  1.00  0.00     0.002 C 
HETATM   31  C   UNL     1      22.387  51.407  48.034  1.00  0.00     0.002 C 
HETATM   32  C   UNL     1      23.327  50.206  48.030  1.00  0.00     0.027 C 
ENDBRANCH   3  28
TORSDOF 5
ENDMDL
MODEL 10
REMARK VINA RESULT:     -10.1      2.041      8.472
REMARK  5 active torsions:
REMARK  status: ('A' for Active; 'I' for Inactive)
REMARK    1  A    between atoms: C_9  and  C_10 
REMARK    2  A    between atoms: C_10  and  C_11 
REMARK       I    between atoms: C_11  and  N_12 
REMARK    3  A    between atoms: N_12  and  C_13 
REMARK    4  A    between atoms: C_13  and  C_14 
REMARK    5  A    between atoms: N_16  and  C_17 
ROOT
HETATM    1  C   UNL     1      27.306  44.358  53.035  1.00  0.00     0.084 A 
HETATM    2  N   UNL     1      26.993  43.404  52.207  1.00  0.00    -0.171 NA
HETATM    3  N   UNL     1      27.751  42.261  52.166  1.00  0.00    -0.229 N 
HETATM    4  C   UNL     1      28.843  42.024  53.000  1.00  0.00     0.275 A 
HETATM    5  O   UNL     1      29.501  40.986  52.997  1.00  0.00    -0.266 OA
HETATM    6  C   UNL     1      29.198  43.099  53.943  1.00  0.00     0.046 A 
HETATM    7  C   UNL     1      28.434  44.260  53.989  1.00  0.00     0.008 A 
HETATM    8  C   UNL     1      30.291  42.931  54.807  1.00  0.00     0.018 A 
HETATM    9  C   UNL     1      30.615  43.929  55.724  1.00  0.00     0.001 A 
HETATM   10  C   UNL     1      29.846  45.088  55.783  1.00  0.00     0.001 A 
HETATM   11  C   UNL     1      28.755  45.255  54.923  1.00  0.00     0.014 A 
ENDROOT
BRANCH   1  12
HETATM   12  C   UNL     1      26.425  45.608  53.022  1.00  0.00     0.184 C 
BRANCH  12  13
HETATM   13  N   UNL     1      25.872  45.801  51.697  1.00  0.00    -0.355 N 
HETATM   14  C   UNL     1      24.647  45.273  51.356  1.00  0.00     0.222 C 
HETATM   15  O   UNL     1      23.958  44.642  52.154  1.00  0.00    -0.273 OA
HETATM   16  H   UNL     1      26.516  46.092  50.966  1.00  0.00     0.162 HD
BRANCH  14  17
HETATM   17  C   UNL     1      24.200  45.576  49.943  1.00  0.00     0.143 C 
BRANCH  17  18
HETATM   18  C   UNL     1      24.287  47.004  49.498  1.00  0.00    -0.021 A 
HETATM   19  C   UNL     1      25.423  47.859  49.277  1.00  0.00    -0.001 A 
HETATM   20  C   UNL     1      24.936  49.108  48.868  1.00  0.00     0.044 A 
HETATM   21  C   UNL     1      26.823  47.703  49.379  1.00  0.00     0.014 A 
HETATM   22  N   UNL     1      23.564  49.012  48.823  1.00  0.00    -0.360 N 
HETATM   23  C   UNL     1      25.784  50.189  48.571  1.00  0.00     0.030 A 
HETATM   24  C   UNL     1      22.670  50.073  48.416  1.00  0.00     0.155 C 
HETATM   25  C   UNL     1      23.166  47.764  49.206  1.00  0.00     0.099 A 
HETATM   26  C   UNL     1      27.161  50.002  48.690  1.00  0.00     0.002 A 
HETATM   27  C   UNL     1      27.677  48.775  49.087  1.00  0.00     0.001 A 
ENDBRANCH  17  18
ENDBRANCH  14  17
ENDBRANCH  12  13
ENDBRANCH   1  12
BRANCH   3  28
HETATM   28  C   UNL     1      27.288  41.176  51.304  1.00  0.00     0.114 C 
HETATM   29  C   UNL     1      25.918  41.465  50.690  1.00  0.00     0.027 C 
HETATM   30  C   UNL     1      25.790  40.444  49.564  1.00  0.00     0.002 C 
HETATM   31  C   UNL     1      27.219  40.051  49.181  1.00  0.00     0.002 C 
HETATM   32  C   UNL     1      28.140  40.883  50.068  1.00  0.00     0.027 C 
ENDBRANCH   3  28
TORSDOF 5
ENDMDL
