MODEL 1
REMARK VINA RESULT:      -9.4      0.000      0.000
REMARK  7 active torsions:
REMARK  status: ('A' for Active; 'I' for Inactive)
REMARK    1  A    between atoms: C_2  and  O_3 
REMARK    2  A    between atoms: O_3  and  C_4 
REMARK    3  A    between atoms: C_5  and  O_6 
REMARK    4  A    between atoms: C_9  and  C_10 
REMARK    5  A    between atoms: C_14  and  C_15 
REMARK       I    between atoms: C_15  and  N_16 
REMARK    6  A    between atoms: N_16  and  N_17 
REMARK    7  A    between atoms: C_18  and  C_19 
ROOT
HETATM    1  C   UNL     1      23.459  48.989  49.134  1.00  0.00     0.089 A 
HETATM    2  N   UNL     1      24.557  49.722  48.891  1.00  0.00    -0.174 NA
HETATM    3  N   UNL     1      25.584  48.918  49.193  1.00  0.00    -0.272 N 
HETATM    4  H   UNL     1      26.534  49.266  49.088  1.00  0.00     0.189 HD
HETATM    5  C   UNL     1      25.216  47.676  49.627  1.00  0.00     0.121 A 
HETATM    6  C   UNL     1      23.835  47.692  49.596  1.00  0.00     0.071 A 
ENDROOT
BRANCH   5   7
HETATM    7  C   UNL     1      26.202  46.691  49.999  1.00  0.00     0.289 C 
HETATM    8  N   UNL     1      25.941  46.038  51.195  1.00  0.00    -0.242 N 
HETATM    9  H   UNL     1      25.114  46.262  51.729  1.00  0.00     0.192 HD
HETATM   10  O   UNL     1      27.181  46.475  49.290  1.00  0.00    -0.264 OA
BRANCH   8  11
HETATM   11  N   UNL     1      26.807  45.092  51.669  1.00  0.00    -0.183 NA
HETATM   12  C   UNL     1      27.058  45.147  52.937  1.00  0.00     0.152 C 
BRANCH  12  13
HETATM   13  C   UNL     1      27.967  44.193  53.535  1.00  0.00     0.011 A 
HETATM   14  C   UNL     1      28.935  44.441  54.562  1.00  0.00     0.004 A 
HETATM   15  C   UNL     1      29.584  43.231  54.821  1.00  0.00     0.043 A 
HETATM   16  C   UNL     1      29.324  45.581  55.297  1.00  0.00     0.014 A 
HETATM   17  C   UNL     1      30.600  43.105  55.776  1.00  0.00     0.030 A 
HETATM   18  N   UNL     1      29.033  42.286  53.987  1.00  0.00    -0.364 N 
HETATM   19  C   UNL     1      30.965  44.250  56.491  1.00  0.00     0.002 A 
HETATM   20  C   UNL     1      30.338  45.471  56.256  1.00  0.00     0.001 A 
HETATM   21  H   UNL     1      29.309  41.314  53.956  1.00  0.00     0.165 HD
HETATM   22  C   UNL     1      28.061  42.853  53.211  1.00  0.00     0.102 A 
ENDBRANCH  12  13
ENDBRANCH   8  11
ENDBRANCH   5   7
BRANCH   1  23
HETATM   23  C   UNL     1      22.108  49.533  48.927  1.00  0.00    -0.003 A 
HETATM   24  C   UNL     1      20.989  48.688  48.800  1.00  0.00     0.053 A 
HETATM   25  C   UNL     1      19.698  49.207  48.609  1.00  0.00     0.102 A 
HETATM   26  C   UNL     1      19.524  50.600  48.570  1.00  0.00     0.102 A 
HETATM   27  C   UNL     1      20.632  51.444  48.663  1.00  0.00     0.040 A 
HETATM   28  C   UNL     1      21.911  50.918  48.847  1.00  0.00     0.017 A 
BRANCH  25  29
HETATM   29  O   UNL     1      18.581  48.432  48.437  1.00  0.00    -0.353 OA
HETATM   30  C   UNL     1      18.704  47.028  48.620  1.00  0.00     0.210 C 
ENDBRANCH  25  29
BRANCH  26  31
HETATM   31  O   UNL     1      18.334  51.254  48.382  1.00  0.00    -0.349 OA
BRANCH  31  32
HETATM   32  C   UNL     1      18.243  52.535  49.011  1.00  0.00     0.171 C 
HETATM   33  C   UNL     1      16.979  52.552  49.853  1.00  0.00     0.034 C 
ENDBRANCH  31  32
ENDBRANCH  26  31
ENDBRANCH   1  23
TORSDOF 7
ENDMDL
MODEL 2
REMARK VINA RESULT:      -9.3      2.672     11.547
REMARK  7 active torsions:
REMARK  status: ('A' for Active; 'I' for Inactive)
REMARK    1  A    between atoms: C_2  and  O_3 
REMARK    2  A    between atoms: O_3  and  C_4 
REMARK    3  A    between atoms: C_5  and  O_6 
REMARK    4  A    between atoms: C_9  and  C_10 
REMARK    5  A    between atoms: C_14  and  C_15 
REMARK       I    between atoms: C_15  and  N_16 
REMARK    6  A    between atoms: N_16  and  N_17 
REMARK    7  A    between atoms: C_18  and  C_19 
ROOT
HETATM    1  C   UNL     1      26.159  45.149  52.081  1.00  0.00     0.089 A 
HETATM    2  N   UNL     1      25.003  44.496  51.889  1.00  0.00    -0.174 NA
HETATM    3  N   UNL     1      24.261  45.319  51.136  1.00  0.00    -0.272 N 
HETATM    4  H   UNL     1      23.325  45.032  50.861  1.00  0.00     0.189 HD
HETATM    5  C   UNL     1      24.878  46.495  50.816  1.00  0.00     0.121 A 
HETATM    6  C   UNL     1      26.120  46.411  51.417  1.00  0.00     0.071 A 
ENDROOT
BRANCH   5   7
HETATM    7  C   UNL     1      24.214  47.494  50.016  1.00  0.00     0.289 C 
HETATM    8  N   UNL     1      22.970  47.113  49.535  1.00  0.00    -0.242 N 
HETATM    9  H   UNL     1      22.595  46.201  49.755  1.00  0.00     0.192 HD
HETATM   10  O   UNL     1      24.738  48.584  49.799  1.00  0.00    -0.264 OA
BRANCH   8  11
HETATM   11  N   UNL     1      22.241  47.963  48.750  1.00  0.00    -0.183 NA
HETATM   12  C   UNL     1      20.985  47.679  48.632  1.00  0.00     0.152 C 
BRANCH  12  13
HETATM   13  C   UNL     1      20.130  48.515  47.817  1.00  0.00     0.011 A 
HETATM   14  C   UNL     1      19.746  49.873  48.070  1.00  0.00     0.004 A 
HETATM   15  C   UNL     1      18.914  50.272  47.022  1.00  0.00     0.043 A 
HETATM   16  C   UNL     1      20.027  50.803  49.094  1.00  0.00     0.014 A 
HETATM   17  C   UNL     1      18.349  51.550  46.946  1.00  0.00     0.030 A 
HETATM   18  N   UNL     1      18.796  49.201  46.166  1.00  0.00    -0.364 N 
HETATM   19  C   UNL     1      18.644  52.452  47.973  1.00  0.00     0.002 A 
HETATM   20  C   UNL     1      19.471  52.086  49.032  1.00  0.00     0.001 A 
HETATM   21  H   UNL     1      18.251  49.202  45.315  1.00  0.00     0.165 HD
HETATM   22  C   UNL     1      19.523  48.142  46.634  1.00  0.00     0.102 A 
ENDBRANCH  12  13
ENDBRANCH   8  11
ENDBRANCH   5   7
BRANCH   1  23
HETATM   23  C   UNL     1      27.249  44.567  52.879  1.00  0.00    -0.003 A 
HETATM   24  C   UNL     1      27.888  43.375  52.488  1.00  0.00     0.053 A 
HETATM   25  C   UNL     1      28.933  42.821  53.246  1.00  0.00     0.102 A 
HETATM   26  C   UNL     1      29.362  43.491  54.403  1.00  0.00     0.102 A 
HETATM   27  C   UNL     1      28.714  44.657  54.815  1.00  0.00     0.040 A 
HETATM   28  C   UNL     1      27.672  45.194  54.058  1.00  0.00     0.017 A 
BRANCH  25  29
HETATM   29  O   UNL     1      29.561  41.643  52.935  1.00  0.00    -0.353 OA
HETATM   30  C   UNL     1      28.837  40.673  52.193  1.00  0.00     0.210 C 
ENDBRANCH  25  29
BRANCH  26  31
HETATM   31  O   UNL     1      30.359  43.074  55.247  1.00  0.00    -0.349 OA
BRANCH  31  32
HETATM   32  C   UNL     1      30.940  44.105  56.050  1.00  0.00     0.171 C 
HETATM   33  C   UNL     1      31.764  43.438  57.138  1.00  0.00     0.034 C 
ENDBRANCH  31  32
ENDBRANCH  26  31
ENDBRANCH   1  23
TORSDOF 7
ENDMDL
MODEL 3
REMARK VINA RESULT:      -8.8      2.779     11.507
REMARK  7 active torsions:
REMARK  status: ('A' for Active; 'I' for Inactive)
REMARK    1  A    between atoms: C_2  and  O_3 
REMARK    2  A    between atoms: O_3  and  C_4 
REMARK    3  A    between atoms: C_5  and  O_6 
REMARK    4  A    between atoms: C_9  and  C_10 
REMARK    5  A    between atoms: C_14  and  C_15 
REMARK       I    between atoms: C_15  and  N_16 
REMARK    6  A    between atoms: N_16  and  N_17 
REMARK    7  A    between atoms: C_18  and  C_19 
ROOT
HETATM    1  C   UNL     1      25.593  46.486  50.887  1.00  0.00     0.089 A 
HETATM    2  N   UNL     1      26.033  47.707  50.545  1.00  0.00    -0.174 NA
HETATM    3  N   UNL     1      25.049  48.235  49.806  1.00  0.00    -0.272 N 
HETATM    4  H   UNL     1      25.161  49.172  49.428  1.00  0.00     0.189 HD
HETATM    5  C   UNL     1      23.968  47.415  49.642  1.00  0.00     0.121 A 
HETATM    6  C   UNL     1      24.295  46.268  50.339  1.00  0.00     0.071 A 
ENDROOT
BRANCH   5   7
HETATM    7  C   UNL     1      22.826  47.831  48.867  1.00  0.00     0.289 C 
HETATM    8  N   UNL     1      21.890  48.572  49.574  1.00  0.00    -0.242 N 
HETATM    9  H   UNL     1      22.038  48.784  50.550  1.00  0.00     0.192 HD
HETATM   10  O   UNL     1      22.723  47.535  47.680  1.00  0.00    -0.264 OA
BRANCH   8  11
HETATM   11  N   UNL     1      20.751  49.015  48.959  1.00  0.00    -0.183 NA
HETATM   12  C   UNL     1      19.645  48.762  49.579  1.00  0.00     0.152 C 
BRANCH  12  13
HETATM   13  C   UNL     1      18.384  49.185  49.007  1.00  0.00     0.011 A 
HETATM   14  C   UNL     1      17.740  50.455  49.168  1.00  0.00     0.004 A 
HETATM   15  C   UNL     1      16.548  50.412  48.441  1.00  0.00     0.043 A 
HETATM   16  C   UNL     1      18.056  51.641  49.865  1.00  0.00     0.014 A 
HETATM   17  C   UNL     1      15.659  51.491  48.376  1.00  0.00     0.030 A 
HETATM   18  N   UNL     1      16.471  49.167  47.861  1.00  0.00    -0.364 N 
HETATM   19  C   UNL     1      15.997  52.653  49.076  1.00  0.00     0.002 A 
HETATM   20  C   UNL     1      17.178  52.729  49.810  1.00  0.00     0.001 A 
HETATM   21  H   UNL     1      15.711  48.852  47.273  1.00  0.00     0.165 HD
HETATM   22  C   UNL     1      17.569  48.423  48.194  1.00  0.00     0.102 A 
ENDBRANCH  12  13
ENDBRANCH   8  11
ENDBRANCH   5   7
BRANCH   1  23
HETATM   23  C   UNL     1      26.407  45.576  51.707  1.00  0.00    -0.003 A 
HETATM   24  C   UNL     1      26.540  45.761  53.096  1.00  0.00     0.053 A 
HETATM   25  C   UNL     1      27.311  44.889  53.881  1.00  0.00     0.102 A 
HETATM   26  C   UNL     1      27.939  43.795  53.264  1.00  0.00     0.102 A 
HETATM   27  C   UNL     1      27.839  43.621  51.883  1.00  0.00     0.040 A 
HETATM   28  C   UNL     1      27.076  44.498  51.112  1.00  0.00     0.017 A 
BRANCH  25  29
HETATM   29  O   UNL     1      27.509  45.046  55.228  1.00  0.00    -0.353 OA
HETATM   30  C   UNL     1      28.344  46.110  55.664  1.00  0.00     0.210 C 
ENDBRANCH  25  29
BRANCH  26  31
HETATM   31  O   UNL     1      28.729  42.866  53.892  1.00  0.00    -0.349 OA
BRANCH  31  32
HETATM   32  C   UNL     1      30.136  43.080  53.756  1.00  0.00     0.171 C 
HETATM   33  C   UNL     1      30.709  43.307  55.145  1.00  0.00     0.034 C 
ENDBRANCH  31  32
ENDBRANCH  26  31
ENDBRANCH   1  23
TORSDOF 7
ENDMDL
MODEL 4
REMARK VINA RESULT:      -8.7      1.679      2.394
REMARK  7 active torsions:
REMARK  status: ('A' for Active; 'I' for Inactive)
REMARK    1  A    between atoms: C_2  and  O_3 
REMARK    2  A    between atoms: O_3  and  C_4 
REMARK    3  A    between atoms: C_5  and  O_6 
REMARK    4  A    between atoms: C_9  and  C_10 
REMARK    5  A    between atoms: C_14  and  C_15 
REMARK       I    between atoms: C_15  and  N_16 
REMARK    6  A    between atoms: N_16  and  N_17 
REMARK    7  A    between atoms: C_18  and  C_19 
ROOT
HETATM    1  C   UNL     1      22.544  49.939  48.253  1.00  0.00     0.089 A 
HETATM    2  N   UNL     1      23.526  50.368  47.446  1.00  0.00    -0.174 NA
HETATM    3  N   UNL     1      24.635  49.769  47.901  1.00  0.00    -0.272 N 
HETATM    4  H   UNL     1      25.522  49.949  47.438  1.00  0.00     0.189 HD
HETATM    5  C   UNL     1      24.430  48.956  48.980  1.00  0.00     0.121 A 
HETATM    6  C   UNL     1      23.074  49.045  49.230  1.00  0.00     0.071 A 
ENDROOT
BRANCH   5   7
HETATM    7  C   UNL     1      25.521  48.242  49.595  1.00  0.00     0.289 C 
HETATM    8  N   UNL     1      25.188  47.576  50.765  1.00  0.00    -0.242 N 
HETATM    9  H   UNL     1      24.243  47.612  51.121  1.00  0.00     0.192 HD
HETATM   10  O   UNL     1      26.643  48.245  49.094  1.00  0.00    -0.264 OA
BRANCH   8  11
HETATM   11  N   UNL     1      26.136  46.873  51.456  1.00  0.00    -0.183 NA
HETATM   12  C   UNL     1      25.940  46.770  52.730  1.00  0.00     0.152 C 
BRANCH  12  13
HETATM   13  C   UNL     1      26.890  46.050  53.550  1.00  0.00     0.011 A 
HETATM   14  C   UNL     1      27.565  44.827  53.227  1.00  0.00     0.004 A 
HETATM   15  C   UNL     1      28.380  44.503  54.314  1.00  0.00     0.043 A 
HETATM   16  C   UNL     1      27.560  43.962  52.113  1.00  0.00     0.014 A 
HETATM   17  C   UNL     1      29.188  43.361  54.342  1.00  0.00     0.030 A 
HETATM   18  N   UNL     1      28.209  45.488  55.259  1.00  0.00    -0.364 N 
HETATM   19  C   UNL     1      29.165  42.521  53.224  1.00  0.00     0.002 A 
HETATM   20  C   UNL     1      28.363  42.815  52.125  1.00  0.00     0.001 A 
HETATM   21  H   UNL     1      28.678  45.515  56.155  1.00  0.00     0.165 HD
HETATM   22  C   UNL     1      27.317  46.422  54.810  1.00  0.00     0.102 A 
ENDBRANCH  12  13
ENDBRANCH   8  11
ENDBRANCH   5   7
BRANCH   1  23
HETATM   23  C   UNL     1      21.153  50.386  48.079  1.00  0.00    -0.003 A 
HETATM   24  C   UNL     1      20.232  49.637  47.323  1.00  0.00     0.053 A 
HETATM   25  C   UNL     1      18.902  50.060  47.161  1.00  0.00     0.102 A 
HETATM   26  C   UNL     1      18.484  51.243  47.791  1.00  0.00     0.102 A 
HETATM   27  C   UNL     1      19.398  52.009  48.516  1.00  0.00     0.040 A 
HETATM   28  C   UNL     1      20.718  51.582  48.665  1.00  0.00     0.017 A 
BRANCH  25  29
HETATM   29  O   UNL     1      17.976  49.393  46.402  1.00  0.00    -0.353 OA
HETATM   30  C   UNL     1      17.326  48.267  46.974  1.00  0.00     0.210 C 
ENDBRANCH  25  29
BRANCH  26  31
HETATM   31  O   UNL     1      17.227  51.787  47.720  1.00  0.00    -0.349 OA
BRANCH  31  32
HETATM   32  C   UNL     1      16.350  51.421  48.788  1.00  0.00     0.171 C 
HETATM   33  C   UNL     1      15.909  52.697  49.485  1.00  0.00     0.034 C 
ENDBRANCH  31  32
ENDBRANCH  26  31
ENDBRANCH   1  23
TORSDOF 7
ENDMDL
MODEL 5
REMARK VINA RESULT:      -8.6      2.900     11.355
REMARK  7 active torsions:
REMARK  status: ('A' for Active; 'I' for Inactive)
REMARK    1  A    between atoms: C_2  and  O_3 
REMARK    2  A    between atoms: O_3  and  C_4 
REMARK    3  A    between atoms: C_5  and  O_6 
REMARK    4  A    between atoms: C_9  and  C_10 
REMARK    5  A    between atoms: C_14  and  C_15 
REMARK       I    between atoms: C_15  and  N_16 
REMARK    6  A    between atoms: N_16  and  N_17 
REMARK    7  A    between atoms: C_18  and  C_19 
ROOT
HETATM    1  C   UNL     1      26.352  44.757  51.560  1.00  0.00     0.089 A 
HETATM    2  N   UNL     1      26.723  44.226  50.385  1.00  0.00    -0.174 NA
HETATM    3  N   UNL     1      25.665  44.391  49.581  1.00  0.00    -0.272 N 
HETATM    4  H   UNL     1      25.714  44.056  48.622  1.00  0.00     0.189 HD
HETATM    5  C   UNL     1      24.602  45.013  50.173  1.00  0.00     0.121 A 
HETATM    6  C   UNL     1      25.023  45.266  51.464  1.00  0.00     0.071 A 
ENDROOT
BRANCH   5   7
HETATM    7  C   UNL     1      23.382  45.261  49.446  1.00  0.00     0.289 C 
HETATM    8  N   UNL     1      23.144  46.597  49.158  1.00  0.00    -0.242 N 
HETATM    9  H   UNL     1      23.801  47.307  49.449  1.00  0.00     0.192 HD
HETATM   10  O   UNL     1      22.637  44.339  49.124  1.00  0.00    -0.264 OA
BRANCH   8  11
HETATM   11  N   UNL     1      22.013  46.969  48.485  1.00  0.00    -0.183 NA
HETATM   12  C   UNL     1      21.508  48.110  48.827  1.00  0.00     0.152 C 
BRANCH  12  13
HETATM   13  C   UNL     1      20.308  48.591  48.177  1.00  0.00     0.011 A 
HETATM   14  C   UNL     1      19.809  49.934  48.158  1.00  0.00     0.004 A 
HETATM   15  C   UNL     1      18.625  49.927  47.417  1.00  0.00     0.043 A 
HETATM   16  C   UNL     1      20.251  51.159  48.702  1.00  0.00     0.014 A 
HETATM   17  C   UNL     1      17.863  51.080  47.193  1.00  0.00     0.030 A 
HETATM   18  N   UNL     1      18.413  48.633  47.001  1.00  0.00    -0.364 N 
HETATM   19  C   UNL     1      18.324  52.280  47.744  1.00  0.00     0.002 A 
HETATM   20  C   UNL     1      19.500  52.321  48.487  1.00  0.00     0.001 A 
HETATM   21  H   UNL     1      17.626  48.330  46.443  1.00  0.00     0.165 HD
HETATM   22  C   UNL     1      19.417  47.823  47.452  1.00  0.00     0.102 A 
ENDBRANCH  12  13
ENDBRANCH   8  11
ENDBRANCH   5   7
BRANCH   1  23
HETATM   23  C   UNL     1      27.255  44.763  52.722  1.00  0.00    -0.003 A 
HETATM   24  C   UNL     1      27.154  45.746  53.724  1.00  0.00     0.053 A 
HETATM   25  C   UNL     1      28.011  45.749  54.836  1.00  0.00     0.102 A 
HETATM   26  C   UNL     1      28.969  44.730  54.958  1.00  0.00     0.102 A 
HETATM   27  C   UNL     1      29.098  43.769  53.954  1.00  0.00     0.040 A 
HETATM   28  C   UNL     1      28.245  43.780  52.850  1.00  0.00     0.017 A 
BRANCH  25  29
HETATM   29  O   UNL     1      27.985  46.705  55.818  1.00  0.00    -0.353 OA
HETATM   30  C   UNL     1      27.103  47.807  55.659  1.00  0.00     0.210 C 
ENDBRANCH  25  29
BRANCH  26  31
HETATM   31  O   UNL     1      29.879  44.604  55.977  1.00  0.00    -0.349 OA
BRANCH  31  32
HETATM   32  C   UNL     1      30.890  43.616  55.763  1.00  0.00     0.171 C 
HETATM   33  C   UNL     1      31.632  43.418  57.073  1.00  0.00     0.034 C 
ENDBRANCH  31  32
ENDBRANCH  26  31
ENDBRANCH   1  23
TORSDOF 7
ENDMDL
MODEL 6
REMARK VINA RESULT:      -8.6      2.835     11.511
REMARK  7 active torsions:
REMARK  status: ('A' for Active; 'I' for Inactive)
REMARK    1  A    between atoms: C_2  and  O_3 
REMARK    2  A    between atoms: O_3  and  C_4 
REMARK    3  A    between atoms: C_5  and  O_6 
REMARK    4  A    between atoms: C_9  and  C_10 
REMARK    5  A    between atoms: C_14  and  C_15 
REMARK       I    between atoms: C_15  and  N_16 
REMARK    6  A    between atoms: N_16  and  N_17 
REMARK    7  A    between atoms: C_18  and  C_19 
ROOT
HETATM    1  C   UNL     1      25.390  45.997  51.091  1.00  0.00     0.089 A 
HETATM    2  N   UNL     1      25.134  45.084  50.141  1.00  0.00    -0.174 NA
HETATM    3  N   UNL     1      24.272  45.683  49.308  1.00  0.00    -0.272 N 
HETATM    4  H   UNL     1      23.929  45.172  48.499  1.00  0.00     0.189 HD
HETATM    5  C   UNL     1      23.944  46.960  49.665  1.00  0.00     0.121 A 
HETATM    6  C   UNL     1      24.662  47.193  50.822  1.00  0.00     0.071 A 
ENDROOT
BRANCH   5   7
HETATM    7  C   UNL     1      23.023  47.742  48.877  1.00  0.00     0.289 C 
HETATM    8  N   UNL     1      22.548  48.881  49.510  1.00  0.00    -0.242 N 
HETATM    9  H   UNL     1      22.851  49.110  50.446  1.00  0.00     0.192 HD
HETATM   10  O   UNL     1      22.708  47.396  47.742  1.00  0.00    -0.264 OA
BRANCH   8  11
HETATM   11  N   UNL     1      21.655  49.702  48.877  1.00  0.00    -0.183 NA
HETATM   12  C   UNL     1      20.566  49.952  49.529  1.00  0.00     0.152 C 
BRANCH  12  13
HETATM   13  C   UNL     1      19.555  50.806  48.943  1.00  0.00     0.011 A 
HETATM   14  C   UNL     1      18.226  50.437  48.553  1.00  0.00     0.004 A 
HETATM   15  C   UNL     1      17.613  51.580  48.034  1.00  0.00     0.043 A 
HETATM   16  C   UNL     1      17.483  49.238  48.591  1.00  0.00     0.014 A 
HETATM   17  C   UNL     1      16.299  51.584  47.552  1.00  0.00     0.030 A 
HETATM   18  N   UNL     1      18.531  52.602  48.105  1.00  0.00    -0.364 N 
HETATM   19  C   UNL     1      15.586  50.382  47.602  1.00  0.00     0.002 A 
HETATM   20  C   UNL     1      16.167  49.225  48.113  1.00  0.00     0.001 A 
HETATM   21  H   UNL     1      18.362  53.551  47.799  1.00  0.00     0.165 HD
HETATM   22  C   UNL     1      19.700  52.148  48.650  1.00  0.00     0.102 A 
ENDBRANCH  12  13
ENDBRANCH   8  11
ENDBRANCH   5   7
BRANCH   1  23
HETATM   23  C   UNL     1      26.303  45.710  52.208  1.00  0.00    -0.003 A 
HETATM   24  C   UNL     1      26.419  46.586  53.303  1.00  0.00     0.053 A 
HETATM   25  C   UNL     1      27.285  46.310  54.374  1.00  0.00     0.102 A 
HETATM   26  C   UNL     1      28.028  45.119  54.357  1.00  0.00     0.102 A 
HETATM   27  C   UNL     1      27.943  44.259  53.261  1.00  0.00     0.040 A 
HETATM   28  C   UNL     1      27.085  44.547  52.199  1.00  0.00     0.017 A 
BRANCH  25  29
HETATM   29  O   UNL     1      27.469  47.148  55.443  1.00  0.00    -0.353 OA
HETATM   30  C   UNL     1      26.577  48.242  55.600  1.00  0.00     0.210 C 
ENDBRANCH  25  29
BRANCH  26  31
HETATM   31  O   UNL     1      28.918  44.716  55.320  1.00  0.00    -0.349 OA
BRANCH  31  32
HETATM   32  C   UNL     1      29.850  43.716  54.898  1.00  0.00     0.171 C 
HETATM   33  C   UNL     1      30.936  43.619  55.956  1.00  0.00     0.034 C 
ENDBRANCH  31  32
ENDBRANCH  26  31
ENDBRANCH   1  23
TORSDOF 7
ENDMDL
MODEL 7
REMARK VINA RESULT:      -8.5      8.192     10.353
REMARK  7 active torsions:
REMARK  status: ('A' for Active; 'I' for Inactive)
REMARK    1  A    between atoms: C_2  and  O_3 
REMARK    2  A    between atoms: O_3  and  C_4 
REMARK    3  A    between atoms: C_5  and  O_6 
REMARK    4  A    between atoms: C_9  and  C_10 
REMARK    5  A    between atoms: C_14  and  C_15 
REMARK       I    between atoms: C_15  and  N_16 
REMARK    6  A    between atoms: N_16  and  N_17 
REMARK    7  A    between atoms: C_18  and  C_19 
ROOT
HETATM    1  C   UNL     1      27.661  39.954  48.652  1.00  0.00     0.089 A 
HETATM    2  N   UNL     1      26.538  39.541  49.259  1.00  0.00    -0.174 NA
HETATM    3  N   UNL     1      26.643  39.982  50.519  1.00  0.00    -0.272 N 
HETATM    4  H   UNL     1      25.895  39.782  51.179  1.00  0.00     0.189 HD
HETATM    5  C   UNL     1      27.792  40.675  50.777  1.00  0.00     0.121 A 
HETATM    6  C   UNL     1      28.474  40.675  49.575  1.00  0.00     0.071 A 
ENDROOT
BRANCH   5   7
HETATM    7  C   UNL     1      28.062  41.213  52.087  1.00  0.00     0.289 C 
HETATM    8  N   UNL     1      27.508  42.462  52.323  1.00  0.00    -0.242 N 
HETATM    9  H   UNL     1      26.962  42.922  51.608  1.00  0.00     0.192 HD
HETATM   10  O   UNL     1      28.733  40.586  52.903  1.00  0.00    -0.264 OA
BRANCH   8  11
HETATM   11  N   UNL     1      27.702  43.091  53.522  1.00  0.00    -0.183 NA
HETATM   12  C   UNL     1      28.530  44.085  53.506  1.00  0.00     0.152 C 
BRANCH  12  13
HETATM   13  C   UNL     1      28.807  44.812  54.726  1.00  0.00     0.011 A 
HETATM   14  C   UNL     1      29.805  44.509  55.710  1.00  0.00     0.004 A 
HETATM   15  C   UNL     1      29.707  45.476  56.713  1.00  0.00     0.043 A 
HETATM   16  C   UNL     1      30.785  43.502  55.844  1.00  0.00     0.014 A 
HETATM   17  C   UNL     1      30.536  45.486  57.840  1.00  0.00     0.030 A 
HETATM   18  N   UNL     1      28.691  46.332  56.354  1.00  0.00    -0.364 N 
HETATM   19  C   UNL     1      31.498  44.477  57.948  1.00  0.00     0.002 A 
HETATM   20  C   UNL     1      31.622  43.499  56.966  1.00  0.00     0.001 A 
HETATM   21  H   UNL     1      28.396  47.133  56.896  1.00  0.00     0.165 HD
HETATM   22  C   UNL     1      28.146  45.943  55.163  1.00  0.00     0.102 A 
ENDBRANCH  12  13
ENDBRANCH   8  11
ENDBRANCH   5   7
BRANCH   1  23
HETATM   23  C   UNL     1      27.926  39.654  47.236  1.00  0.00    -0.003 A 
HETATM   24  C   UNL     1      28.212  38.346  46.805  1.00  0.00     0.053 A 
HETATM   25  C   UNL     1      28.460  38.057  45.453  1.00  0.00     0.102 A 
HETATM   26  C   UNL     1      28.393  39.099  44.513  1.00  0.00     0.102 A 
HETATM   27  C   UNL     1      28.141  40.405  44.935  1.00  0.00     0.040 A 
HETATM   28  C   UNL     1      27.904  40.681  46.282  1.00  0.00     0.017 A 
BRANCH  25  29
HETATM   29  O   UNL     1      28.784  36.811  44.984  1.00  0.00    -0.353 OA
HETATM   30  C   UNL     1      30.153  36.520  44.744  1.00  0.00     0.210 C 
ENDBRANCH  25  29
BRANCH  26  31
HETATM   31  O   UNL     1      28.617  38.978  43.165  1.00  0.00    -0.349 OA
BRANCH  31  32
HETATM   32  C   UNL     1      29.436  40.002  42.596  1.00  0.00     0.171 C 
HETATM   33  C   UNL     1      30.858  39.473  42.522  1.00  0.00     0.034 C 
ENDBRANCH  31  32
ENDBRANCH  26  31
ENDBRANCH   1  23
TORSDOF 7
ENDMDL
MODEL 8
REMARK VINA RESULT:      -8.5      1.696      2.777
REMARK  7 active torsions:
REMARK  status: ('A' for Active; 'I' for Inactive)
REMARK    1  A    between atoms: C_2  and  O_3 
REMARK    2  A    between atoms: O_3  and  C_4 
REMARK    3  A    between atoms: C_5  and  O_6 
REMARK    4  A    between atoms: C_9  and  C_10 
REMARK    5  A    between atoms: C_14  and  C_15 
REMARK       I    between atoms: C_15  and  N_16 
REMARK    6  A    between atoms: N_16  and  N_17 
REMARK    7  A    between atoms: C_18  and  C_19 
ROOT
HETATM    1  C   UNL     1      22.869  49.051  48.170  1.00  0.00     0.089 A 
HETATM    2  N   UNL     1      23.792  49.910  47.711  1.00  0.00    -0.174 NA
HETATM    3  N   UNL     1      24.932  49.547  48.312  1.00  0.00    -0.272 N 
HETATM    4  H   UNL     1      25.784  50.067  48.115  1.00  0.00     0.189 HD
HETATM    5  C   UNL     1      24.807  48.479  49.155  1.00  0.00     0.121 A 
HETATM    6  C   UNL     1      23.472  48.133  49.080  1.00  0.00     0.071 A 
ENDROOT
BRANCH   5   7
HETATM    7  C   UNL     1      25.940  47.968  49.886  1.00  0.00     0.289 C 
HETATM    8  N   UNL     1      25.612  47.226  51.012  1.00  0.00    -0.242 N 
HETATM    9  H   UNL     1      24.644  47.078  51.261  1.00  0.00     0.192 HD
HETATM   10  O   UNL     1      27.088  48.190  49.512  1.00  0.00    -0.264 OA
BRANCH   8  11
HETATM   11  N   UNL     1      26.595  46.697  51.802  1.00  0.00    -0.183 NA
HETATM   12  C   UNL     1      26.248  46.419  53.017  1.00  0.00     0.152 C 
BRANCH  12  13
HETATM   13  C   UNL     1      27.218  45.860  53.934  1.00  0.00     0.011 A 
HETATM   14  C   UNL     1      28.126  44.779  53.685  1.00  0.00     0.004 A 
HETATM   15  C   UNL     1      28.867  44.582  54.853  1.00  0.00     0.043 A 
HETATM   16  C   UNL     1      28.389  43.947  52.577  1.00  0.00     0.014 A 
HETATM   17  C   UNL     1      29.855  43.597  54.968  1.00  0.00     0.030 A 
HETATM   18  N   UNL     1      28.428  45.506  55.774  1.00  0.00    -0.364 N 
HETATM   19  C   UNL     1      30.095  42.787  53.854  1.00  0.00     0.002 A 
HETATM   20  C   UNL     1      29.375  42.957  52.675  1.00  0.00     0.001 A 
HETATM   21  H   UNL     1      28.789  45.597  56.714  1.00  0.00     0.165 HD
HETATM   22  C   UNL     1      27.439  46.278  55.232  1.00  0.00     0.102 A 
ENDBRANCH  12  13
ENDBRANCH   8  11
ENDBRANCH   5   7
BRANCH   1  23
HETATM   23  C   UNL     1      21.464  49.128  47.742  1.00  0.00    -0.003 A 
HETATM   24  C   UNL     1      20.745  50.337  47.798  1.00  0.00     0.053 A 
HETATM   25  C   UNL     1      19.406  50.413  47.383  1.00  0.00     0.102 A 
HETATM   26  C   UNL     1      18.784  49.259  46.878  1.00  0.00     0.102 A 
HETATM   27  C   UNL     1      19.479  48.049  46.848  1.00  0.00     0.040 A 
HETATM   28  C   UNL     1      20.807  47.984  47.269  1.00  0.00     0.017 A 
BRANCH  25  29
HETATM   29  O   UNL     1      18.647  51.552  47.456  1.00  0.00    -0.353 OA
HETATM   30  C   UNL     1      18.974  52.514  48.448  1.00  0.00     0.210 C 
ENDBRANCH  25  29
BRANCH  26  31
HETATM   31  O   UNL     1      17.486  49.173  46.444  1.00  0.00    -0.349 OA
BRANCH  31  32
HETATM   32  C   UNL     1      16.645  48.322  47.227  1.00  0.00     0.171 C 
HETATM   33  C   UNL     1      15.492  49.162  47.750  1.00  0.00     0.034 C 
ENDBRANCH  31  32
ENDBRANCH  26  31
ENDBRANCH   1  23
TORSDOF 7
ENDMDL
MODEL 9
REMARK VINA RESULT:      -8.5      1.238      2.150
REMARK  7 active torsions:
REMARK  status: ('A' for Active; 'I' for Inactive)
REMARK    1  A    between atoms: C_2  and  O_3 
REMARK    2  A    between atoms: O_3  and  C_4 
REMARK    3  A    between atoms: C_5  and  O_6 
REMARK    4  A    between atoms: C_9  and  C_10 
REMARK    5  A    between atoms: C_14  and  C_15 
REMARK       I    between atoms: C_15  and  N_16 
REMARK    6  A    between atoms: N_16  and  N_17 
REMARK    7  A    between atoms: C_18  and  C_19 
ROOT
HETATM    1  C   UNL     1      22.913  47.962  49.133  1.00  0.00     0.089 A 
HETATM    2  N   UNL     1      23.735  48.930  49.568  1.00  0.00    -0.174 NA
HETATM    3  N   UNL     1      24.859  48.295  49.925  1.00  0.00    -0.272 N 
HETATM    4  H   UNL     1      25.638  48.835  50.294  1.00  0.00     0.189 HD
HETATM    5  C   UNL     1      24.820  46.941  49.744  1.00  0.00     0.121 A 
HETATM    6  C   UNL     1      23.563  46.696  49.226  1.00  0.00     0.071 A 
ENDROOT
BRANCH   5   7
HETATM    7  C   UNL     1      25.948  46.109  50.085  1.00  0.00     0.289 C 
HETATM    8  N   UNL     1      25.849  45.482  51.318  1.00  0.00    -0.242 N 
HETATM    9  H   UNL     1      25.034  45.621  51.898  1.00  0.00     0.192 HD
HETATM   10  O   UNL     1      26.901  45.989  49.320  1.00  0.00    -0.264 OA
BRANCH   8  11
HETATM   11  N   UNL     1      26.859  44.677  51.768  1.00  0.00    -0.183 NA
HETATM   12  C   UNL     1      27.192  44.835  53.007  1.00  0.00     0.152 C 
BRANCH  12  13
HETATM   13  C   UNL     1      28.254  44.034  53.577  1.00  0.00     0.011 A 
HETATM   14  C   UNL     1      29.088  44.365  54.695  1.00  0.00     0.004 A 
HETATM   15  C   UNL     1      29.971  43.299  54.884  1.00  0.00     0.043 A 
HETATM   16  C   UNL     1      29.176  45.471  55.567  1.00  0.00     0.014 A 
HETATM   17  C   UNL     1      30.936  43.285  55.897  1.00  0.00     0.030 A 
HETATM   18  N   UNL     1      29.687  42.359  53.920  1.00  0.00    -0.364 N 
HETATM   19  C   UNL     1      31.002  44.393  56.747  1.00  0.00     0.002 A 
HETATM   20  C   UNL     1      30.136  45.471  56.587  1.00  0.00     0.001 A 
HETATM   21  H   UNL     1      30.171  41.478  53.816  1.00  0.00     0.165 HD
HETATM   22  C   UNL     1      28.657  42.791  53.131  1.00  0.00     0.102 A 
ENDBRANCH  12  13
ENDBRANCH   8  11
ENDBRANCH   5   7
BRANCH   1  23
HETATM   23  C   UNL     1      21.556  48.263  48.654  1.00  0.00    -0.003 A 
HETATM   24  C   UNL     1      20.800  49.316  49.203  1.00  0.00     0.053 A 
HETATM   25  C   UNL     1      19.506  49.607  48.742  1.00  0.00     0.102 A 
HETATM   26  C   UNL     1      18.972  48.845  47.690  1.00  0.00     0.102 A 
HETATM   27  C   UNL     1      19.701  47.779  47.161  1.00  0.00     0.040 A 
HETATM   28  C   UNL     1      20.983  47.494  47.632  1.00  0.00     0.017 A 
BRANCH  25  29
HETATM   29  O   UNL     1      18.711  50.591  49.268  1.00  0.00    -0.353 OA
HETATM   30  C   UNL     1      19.336  51.653  49.975  1.00  0.00     0.210 C 
ENDBRANCH  25  29
BRANCH  26  31
HETATM   31  O   UNL     1      17.726  49.002  47.140  1.00  0.00    -0.349 OA
BRANCH  31  32
HETATM   32  C   UNL     1      16.703  48.189  47.721  1.00  0.00     0.171 C 
HETATM   33  C   UNL     1      15.615  47.995  46.679  1.00  0.00     0.034 C 
ENDBRANCH  31  32
ENDBRANCH  26  31
ENDBRANCH   1  23
TORSDOF 7
ENDMDL
MODEL 10
REMARK VINA RESULT:      -8.0      3.568     11.444
REMARK  7 active torsions:
REMARK  status: ('A' for Active; 'I' for Inactive)
REMARK    1  A    between atoms: C_2  and  O_3 
REMARK    2  A    between atoms: O_3  and  C_4 
REMARK    3  A    between atoms: C_5  and  O_6 
REMARK    4  A    between atoms: C_9  and  C_10 
REMARK    5  A    between atoms: C_14  and  C_15 
REMARK       I    between atoms: C_15  and  N_16 
REMARK    6  A    between atoms: N_16  and  N_17 
REMARK    7  A    between atoms: C_18  and  C_19 
ROOT
HETATM    1  C   UNL     1      26.231  44.392  51.577  1.00  0.00     0.089 A 
HETATM    2  N   UNL     1      26.629  44.362  50.296  1.00  0.00    -0.174 NA
HETATM    3  N   UNL     1      25.498  44.271  49.584  1.00  0.00    -0.272 N 
HETATM    4  H   UNL     1      25.553  44.230  48.569  1.00  0.00     0.189 HD
HETATM    5  C   UNL     1      24.361  44.240  50.340  1.00  0.00     0.121 A 
HETATM    6  C   UNL     1      24.808  44.321  51.644  1.00  0.00     0.071 A 
ENDROOT
BRANCH   5   7
HETATM    7  C   UNL     1      23.059  44.138  49.727  1.00  0.00     0.289 C 
HETATM    8  N   UNL     1      22.650  45.277  49.050  1.00  0.00    -0.242 N 
HETATM    9  H   UNL     1      23.248  46.091  49.011  1.00  0.00     0.192 HD
HETATM   10  O   UNL     1      22.395  43.108  49.817  1.00  0.00    -0.264 OA
BRANCH   8  11
HETATM   11  N   UNL     1      21.428  45.316  48.437  1.00  0.00    -0.183 NA
HETATM   12  C   UNL     1      20.511  45.985  49.058  1.00  0.00     0.152 C 
BRANCH  12  13
HETATM   13  C   UNL     1      19.182  46.082  48.494  1.00  0.00     0.011 A 
HETATM   14  C   UNL     1      18.332  47.235  48.465  1.00  0.00     0.004 A 
HETATM   15  C   UNL     1      17.147  46.862  47.826  1.00  0.00     0.043 A 
HETATM   16  C   UNL     1      18.456  48.565  48.922  1.00  0.00     0.014 A 
HETATM   17  C   UNL     1      16.083  47.749  47.623  1.00  0.00     0.030 A 
HETATM   18  N   UNL     1      17.271  45.537  47.480  1.00  0.00    -0.364 N 
HETATM   19  C   UNL     1      16.233  49.060  48.086  1.00  0.00     0.002 A 
HETATM   20  C   UNL     1      17.402  49.464  48.726  1.00  0.00     0.001 A 
HETATM   21  H   UNL     1      16.562  44.998  47.002  1.00  0.00     0.165 HD
HETATM   22  C   UNL     1      18.489  45.059  47.876  1.00  0.00     0.102 A 
ENDBRANCH  12  13
ENDBRANCH   8  11
ENDBRANCH   5   7
BRANCH   1  23
HETATM   23  C   UNL     1      27.198  44.482  52.682  1.00  0.00    -0.003 A 
HETATM   24  C   UNL     1      27.120  45.509  53.642  1.00  0.00     0.053 A 
HETATM   25  C   UNL     1      28.039  45.592  54.701  1.00  0.00     0.102 A 
HETATM   26  C   UNL     1      29.038  44.611  54.813  1.00  0.00     0.102 A 
HETATM   27  C   UNL     1      29.142  43.608  53.848  1.00  0.00     0.040 A 
HETATM   28  C   UNL     1      28.228  43.539  52.797  1.00  0.00     0.017 A 
BRANCH  25  29
HETATM   29  O   UNL     1      28.037  46.593  55.637  1.00  0.00    -0.353 OA
HETATM   30  C   UNL     1      27.094  47.645  55.492  1.00  0.00     0.210 C 
ENDBRANCH  25  29
BRANCH  26  31
HETATM   31  O   UNL     1      30.008  44.563  55.781  1.00  0.00    -0.349 OA
BRANCH  31  32
HETATM   32  C   UNL     1      30.839  43.400  55.744  1.00  0.00     0.171 C 
HETATM   33  C   UNL     1      31.644  43.362  57.031  1.00  0.00     0.034 C 
ENDBRANCH  31  32
ENDBRANCH  26  31
ENDBRANCH   1  23
TORSDOF 7
ENDMDL
