MODEL 1
REMARK VINA RESULT:     -11.2      0.000      0.000
REMARK  7 active torsions:
REMARK  status: ('A' for Active; 'I' for Inactive)
REMARK    1  A    between atoms: C_3  and  C_4 
REMARK    2  A    between atoms: N_5  and  C_6 
REMARK    3  A    between atoms: C_9  and  N_10 
REMARK       I    between atoms: N_10  and  C_11 
REMARK       I    between atoms: C_11  and  N_12 
REMARK    4  A    between atoms: N_12  and  C_13 
REMARK    5  A    between atoms: C_15  and  C_16 
REMARK    6  A    between atoms: C_32  and  C_33 
REMARK    7  A    between atoms: C_33  and  N_34 
ROOT
HETATM    1  C   UNL     1      22.999  45.496  49.493  1.00  0.00     0.169 C 
HETATM    2  C   UNL     1      24.483  45.791  49.647  1.00  0.00     0.179 C 
HETATM    3  C   UNL     1      25.024  44.656  50.504  1.00  0.00     0.177 C 
HETATM    4  C   UNL     1      25.683  45.329  51.700  1.00  0.00     0.141 C 
HETATM    5  C   UNL     1      25.768  46.796  51.281  1.00  0.00     0.196 C 
HETATM    6  O   UNL     1      24.685  47.023  50.361  1.00  0.00    -0.379 OA
HETATM    7  O   UNL     1      23.899  43.860  50.918  1.00  0.00    -0.379 OA
HETATM    8  C   UNL     1      22.909  44.027  49.890  1.00  0.00     0.198 C 
ENDROOT
BRANCH   1   9
HETATM    9  N   UNL     1      22.488  45.823  48.188  1.00  0.00    -0.221 N 
HETATM   10  C   UNL     1      22.037  47.022  47.673  1.00  0.00     0.182 A 
HETATM   11  N   UNL     1      21.835  46.832  46.380  1.00  0.00    -0.108 NA
HETATM   12  N   UNL     1      22.131  45.527  46.112  1.00  0.00    -0.023 NA
HETATM   13  N   UNL     1      22.543  44.908  47.203  1.00  0.00    -0.043 NA
BRANCH  10  14
HETATM   14  C   UNL     1      21.879  48.319  48.334  1.00  0.00     0.014 A 
HETATM   15  C   UNL     1      22.931  49.212  48.558  1.00  0.00     0.015 A 
HETATM   16  C   UNL     1      22.709  50.422  49.223  1.00  0.00     0.002 A 
HETATM   17  C   UNL     1      21.441  50.745  49.703  1.00  0.00     0.009 A 
HETATM   18  C   UNL     1      20.378  49.850  49.538  1.00  0.00    -0.032 A 
HETATM   19  C   UNL     1      20.610  48.650  48.844  1.00  0.00     0.024 A 
BRANCH  18  20
HETATM   20  C   UNL     1      19.015  50.161  50.091  1.00  0.00     0.273 C 
BRANCH  20  21
HETATM   21  N   UNL     1      18.191  51.033  49.185  1.00  0.00    -0.067 N 
HETATM   22  H   UNL     1      18.764  51.205  48.348  1.00  0.00     0.280 HD
HETATM   23  C   UNL     1      17.844  52.380  49.788  1.00  0.00     0.235 C 
HETATM   24  C   UNL     1      16.331  52.388  49.868  1.00  0.00     0.029 C 
HETATM   25  C   UNL     1      15.916  51.557  48.672  1.00  0.00     0.029 C 
HETATM   26  C   UNL     1      16.895  50.400  48.713  1.00  0.00     0.235 C 
ENDBRANCH  20  21
ENDBRANCH  18  20
ENDBRANCH  10  14
ENDBRANCH   1   9
BRANCH   4  27
HETATM   27  N   UNL     1      26.939  44.712  52.117  1.00  0.00    -0.334 N 
HETATM   28  C   UNL     1      27.430  44.867  53.399  1.00  0.00     0.321 C 
HETATM   29  N   UNL     1      28.673  44.293  53.533  1.00  0.00    -0.309 N 
HETATM   30  O   UNL     1      26.788  45.445  54.266  1.00  0.00    -0.247 OA
HETATM   31  H   UNL     1      29.062  43.868  52.705  1.00  0.00     0.170 HD
HETATM   32  H   UNL     1      27.631  44.605  51.388  1.00  0.00     0.164 HD
BRANCH  29  33
HETATM   33  C   UNL     1      29.468  44.223  54.696  1.00  0.00     0.037 A 
HETATM   34  C   UNL     1      29.330  45.085  55.788  1.00  0.00     0.045 A 
HETATM   35  C   UNL     1      30.142  44.946  56.929  1.00  0.00     0.050 A 
HETATM   36  C   UNL     1      31.118  43.940  56.952  1.00  0.00     0.016 A 
HETATM   37  C   UNL     1      31.265  43.079  55.867  1.00  0.00     0.003 A 
HETATM   38  C   UNL     1      30.440  43.217  54.749  1.00  0.00     0.029 A 
BRANCH  35  39
HETATM   39  C   UNL     1      29.986  45.877  58.105  1.00  0.00     0.417 C 
HETATM   40  F   UNL     1      28.835  46.607  58.075  1.00  0.00    -0.166 F 
HETATM   41  F   UNL     1      29.969  45.215  59.297  1.00  0.00    -0.166 F 
HETATM   42  F   UNL     1      31.000  46.780  58.193  1.00  0.00    -0.166 F 
ENDBRANCH  35  39
ENDBRANCH  29  33
ENDBRANCH   4  27
TORSDOF 7
ENDMDL
MODEL 2
REMARK VINA RESULT:     -10.8      1.586      2.196
REMARK  7 active torsions:
REMARK  status: ('A' for Active; 'I' for Inactive)
REMARK    1  A    between atoms: C_3  and  C_4 
REMARK    2  A    between atoms: N_5  and  C_6 
REMARK    3  A    between atoms: C_9  and  N_10 
REMARK       I    between atoms: N_10  and  C_11 
REMARK       I    between atoms: C_11  and  N_12 
REMARK    4  A    between atoms: N_12  and  C_13 
REMARK    5  A    between atoms: C_15  and  C_16 
REMARK    6  A    between atoms: C_32  and  C_33 
REMARK    7  A    between atoms: C_33  and  N_34 
ROOT
HETATM    1  C   UNL     1      23.943  47.267  49.517  1.00  0.00     0.169 C 
HETATM    2  C   UNL     1      25.197  47.349  50.372  1.00  0.00     0.179 C 
HETATM    3  C   UNL     1      25.680  45.912  50.504  1.00  0.00     0.177 C 
HETATM    4  C   UNL     1      25.761  45.646  52.001  1.00  0.00     0.141 C 
HETATM    5  C   UNL     1      25.644  47.039  52.617  1.00  0.00     0.196 C 
HETATM    6  O   UNL     1      24.884  47.835  51.690  1.00  0.00    -0.379 OA
HETATM    7  O   UNL     1      24.690  45.070  49.885  1.00  0.00    -0.379 OA
HETATM    8  C   UNL     1      24.062  45.886  48.882  1.00  0.00     0.198 C 
ENDROOT
BRANCH   1   9
HETATM    9  N   UNL     1      23.809  48.367  48.599  1.00  0.00    -0.221 N 
HETATM   10  C   UNL     1      22.688  48.913  48.006  1.00  0.00     0.182 A 
HETATM   11  N   UNL     1      23.081  50.010  47.381  1.00  0.00    -0.108 NA
HETATM   12  N   UNL     1      24.429  50.120  47.566  1.00  0.00    -0.023 NA
HETATM   13  N   UNL     1      24.880  49.132  48.316  1.00  0.00    -0.043 NA
BRANCH  10  14
HETATM   14  C   UNL     1      21.290  48.483  48.085  1.00  0.00     0.014 A 
HETATM   15  C   UNL     1      20.686  47.627  47.161  1.00  0.00     0.015 A 
HETATM   16  C   UNL     1      19.336  47.284  47.285  1.00  0.00     0.002 A 
HETATM   17  C   UNL     1      18.561  47.816  48.314  1.00  0.00     0.009 A 
HETATM   18  C   UNL     1      19.125  48.715  49.226  1.00  0.00    -0.032 A 
HETATM   19  C   UNL     1      20.489  49.029  49.105  1.00  0.00     0.024 A 
BRANCH  18  20
HETATM   20  C   UNL     1      18.291  49.336  50.313  1.00  0.00     0.273 C 
BRANCH  20  21
HETATM   21  N   UNL     1      17.884  50.752  50.012  1.00  0.00    -0.067 N 
HETATM   22  H   UNL     1      17.350  51.080  50.826  1.00  0.00     0.280 HD
HETATM   23  C   UNL     1      16.989  50.881  48.795  1.00  0.00     0.235 C 
HETATM   24  C   UNL     1      17.778  51.736  47.824  1.00  0.00     0.029 C 
HETATM   25  C   UNL     1      18.570  52.652  48.734  1.00  0.00     0.029 C 
HETATM   26  C   UNL     1      19.044  51.712  49.824  1.00  0.00     0.235 C 
ENDBRANCH  20  21
ENDBRANCH  18  20
ENDBRANCH  10  14
ENDBRANCH   1   9
BRANCH   4  27
HETATM   27  N   UNL     1      26.927  44.865  52.407  1.00  0.00    -0.334 N 
HETATM   28  C   UNL     1      27.530  45.053  53.635  1.00  0.00     0.321 C 
HETATM   29  N   UNL     1      28.669  44.291  53.757  1.00  0.00    -0.309 N 
HETATM   30  O   UNL     1      27.057  45.810  54.473  1.00  0.00    -0.247 OA
HETATM   31  H   UNL     1      28.921  43.731  52.958  1.00  0.00     0.170 HD
HETATM   32  H   UNL     1      27.536  44.575  51.655  1.00  0.00     0.164 HD
BRANCH  29  33
HETATM   33  C   UNL     1      29.525  44.196  54.874  1.00  0.00     0.037 A 
HETATM   34  C   UNL     1      29.479  45.065  55.968  1.00  0.00     0.045 A 
HETATM   35  C   UNL     1      30.350  44.900  57.062  1.00  0.00     0.050 A 
HETATM   36  C   UNL     1      31.290  43.861  57.034  1.00  0.00     0.016 A 
HETATM   37  C   UNL     1      31.345  42.993  55.946  1.00  0.00     0.003 A 
HETATM   38  C   UNL     1      30.464  43.157  54.876  1.00  0.00     0.029 A 
BRANCH  35  39
HETATM   39  C   UNL     1      30.293  45.839  58.241  1.00  0.00     0.417 C 
HETATM   40  F   UNL     1      29.102  46.490  58.364  1.00  0.00    -0.166 F 
HETATM   41  F   UNL     1      30.485  45.197  59.429  1.00  0.00    -0.166 F 
HETATM   42  F   UNL     1      31.246  46.809  58.181  1.00  0.00    -0.166 F 
ENDBRANCH  35  39
ENDBRANCH  29  33
ENDBRANCH   4  27
TORSDOF 7
ENDMDL
MODEL 3
REMARK VINA RESULT:     -10.6      4.538     11.361
REMARK  7 active torsions:
REMARK  status: ('A' for Active; 'I' for Inactive)
REMARK    1  A    between atoms: C_3  and  C_4 
REMARK    2  A    between atoms: N_5  and  C_6 
REMARK    3  A    between atoms: C_9  and  N_10 
REMARK       I    between atoms: N_10  and  C_11 
REMARK       I    between atoms: C_11  and  N_12 
REMARK    4  A    between atoms: N_12  and  C_13 
REMARK    5  A    between atoms: C_15  and  C_16 
REMARK    6  A    between atoms: C_32  and  C_33 
REMARK    7  A    between atoms: C_33  and  N_34 
ROOT
HETATM    1  C   UNL     1      26.313  46.087  53.148  1.00  0.00     0.169 C 
HETATM    2  C   UNL     1      25.640  47.034  52.167  1.00  0.00     0.179 C 
HETATM    3  C   UNL     1      24.636  46.172  51.414  1.00  0.00     0.177 C 
HETATM    4  C   UNL     1      24.987  46.333  49.941  1.00  0.00     0.141 C 
HETATM    5  C   UNL     1      25.942  47.525  49.931  1.00  0.00     0.196 C 
HETATM    6  O   UNL     1      26.591  47.542  51.215  1.00  0.00    -0.379 OA
HETATM    7  O   UNL     1      24.833  44.813  51.843  1.00  0.00    -0.379 OA
HETATM    8  C   UNL     1      25.355  44.902  53.179  1.00  0.00     0.198 C 
ENDROOT
BRANCH   1   9
HETATM    9  N   UNL     1      26.596  46.696  54.420  1.00  0.00    -0.221 N 
HETATM   10  C   UNL     1      27.604  46.451  55.331  1.00  0.00     0.182 A 
HETATM   11  N   UNL     1      27.519  47.391  56.258  1.00  0.00    -0.108 NA
HETATM   12  N   UNL     1      26.456  48.183  55.935  1.00  0.00    -0.023 NA
HETATM   13  N   UNL     1      25.895  47.777  54.812  1.00  0.00    -0.043 NA
BRANCH  10  14
HETATM   14  C   UNL     1      28.661  45.438  55.301  1.00  0.00     0.014 A 
HETATM   15  C   UNL     1      29.646  45.312  56.283  1.00  0.00     0.015 A 
HETATM   16  C   UNL     1      30.642  44.337  56.172  1.00  0.00     0.002 A 
HETATM   17  C   UNL     1      30.689  43.494  55.062  1.00  0.00     0.009 A 
HETATM   18  C   UNL     1      29.745  43.629  54.037  1.00  0.00    -0.032 A 
HETATM   19  C   UNL     1      28.735  44.595  54.176  1.00  0.00     0.024 A 
BRANCH  18  20
HETATM   20  C   UNL     1      29.810  42.762  52.811  1.00  0.00     0.273 C 
BRANCH  20  21
HETATM   21  N   UNL     1      28.527  42.026  52.537  1.00  0.00    -0.067 N 
HETATM   22  H   UNL     1      27.960  42.101  53.391  1.00  0.00     0.280 HD
HETATM   23  C   UNL     1      28.723  40.551  52.245  1.00  0.00     0.235 C 
HETATM   24  C   UNL     1      28.210  40.367  50.831  1.00  0.00     0.029 C 
HETATM   25  C   UNL     1      27.099  41.390  50.728  1.00  0.00     0.029 C 
HETATM   26  C   UNL     1      27.702  42.606  51.403  1.00  0.00     0.235 C 
ENDBRANCH  20  21
ENDBRANCH  18  20
ENDBRANCH  10  14
ENDBRANCH   1   9
BRANCH   4  27
HETATM   27  N   UNL     1      23.829  46.437  49.058  1.00  0.00    -0.334 N 
HETATM   28  C   UNL     1      23.018  47.555  49.058  1.00  0.00     0.321 C 
HETATM   29  N   UNL     1      21.932  47.388  48.231  1.00  0.00    -0.309 N 
HETATM   30  O   UNL     1      23.290  48.544  49.725  1.00  0.00    -0.247 OA
HETATM   31  H   UNL     1      21.856  46.497  47.764  1.00  0.00     0.170 HD
HETATM   32  H   UNL     1      23.375  45.561  48.835  1.00  0.00     0.164 HD
BRANCH  29  33
HETATM   33  C   UNL     1      20.911  48.320  47.952  1.00  0.00     0.037 A 
HETATM   34  C   UNL     1      20.691  49.482  48.697  1.00  0.00     0.045 A 
HETATM   35  C   UNL     1      19.667  50.383  48.351  1.00  0.00     0.050 A 
HETATM   36  C   UNL     1      18.843  50.090  47.255  1.00  0.00     0.016 A 
HETATM   37  C   UNL     1      19.052  48.932  46.509  1.00  0.00     0.003 A 
HETATM   38  C   UNL     1      20.084  48.056  46.854  1.00  0.00     0.029 A 
BRANCH  35  39
HETATM   39  C   UNL     1      19.437  51.637  49.157  1.00  0.00     0.417 C 
HETATM   40  F   UNL     1      18.189  51.717  49.699  1.00  0.00    -0.166 F 
HETATM   41  F   UNL     1      20.300  51.750  50.205  1.00  0.00    -0.166 F 
HETATM   42  F   UNL     1      19.596  52.768  48.417  1.00  0.00    -0.166 F 
ENDBRANCH  35  39
ENDBRANCH  29  33
ENDBRANCH   4  27
TORSDOF 7
ENDMDL
MODEL 4
REMARK VINA RESULT:     -10.4      5.065     11.333
REMARK  7 active torsions:
REMARK  status: ('A' for Active; 'I' for Inactive)
REMARK    1  A    between atoms: C_3  and  C_4 
REMARK    2  A    between atoms: N_5  and  C_6 
REMARK    3  A    between atoms: C_9  and  N_10 
REMARK       I    between atoms: N_10  and  C_11 
REMARK       I    between atoms: C_11  and  N_12 
REMARK    4  A    between atoms: N_12  and  C_13 
REMARK    5  A    between atoms: C_15  and  C_16 
REMARK    6  A    between atoms: C_32  and  C_33 
REMARK    7  A    between atoms: C_33  and  N_34 
ROOT
HETATM    1  C   UNL     1      26.162  43.939  49.360  1.00  0.00     0.169 C 
HETATM    2  C   UNL     1      25.958  45.207  50.173  1.00  0.00     0.179 C 
HETATM    3  C   UNL     1      24.516  45.616  49.911  1.00  0.00     0.177 C 
HETATM    4  C   UNL     1      24.588  47.041  49.380  1.00  0.00     0.141 C 
HETATM    5  C   UNL     1      26.023  47.464  49.688  1.00  0.00     0.196 C 
HETATM    6  O   UNL     1      26.813  46.262  49.696  1.00  0.00    -0.379 OA
HETATM    7  O   UNL     1      23.993  44.721  48.913  1.00  0.00    -0.379 OA
HETATM    8  C   UNL     1      24.733  43.499  49.064  1.00  0.00     0.198 C 
ENDROOT
BRANCH   1   9
HETATM    9  N   UNL     1      26.991  42.967  50.023  1.00  0.00    -0.221 N 
HETATM   10  C   UNL     1      27.294  42.806  51.360  1.00  0.00     0.182 A 
HETATM   11  N   UNL     1      27.960  41.667  51.467  1.00  0.00    -0.108 NA
HETATM   12  N   UNL     1      28.087  41.153  50.209  1.00  0.00    -0.023 NA
HETATM   13  N   UNL     1      27.490  41.930  49.325  1.00  0.00    -0.043 NA
BRANCH  10  14
HETATM   14  C   UNL     1      26.910  43.629  52.508  1.00  0.00     0.014 A 
HETATM   15  C   UNL     1      25.587  43.869  52.886  1.00  0.00     0.015 A 
HETATM   16  C   UNL     1      25.295  44.691  53.979  1.00  0.00     0.002 A 
HETATM   17  C   UNL     1      26.320  45.313  54.691  1.00  0.00     0.009 A 
HETATM   18  C   UNL     1      27.653  45.133  54.306  1.00  0.00    -0.032 A 
HETATM   19  C   UNL     1      27.932  44.282  53.223  1.00  0.00     0.024 A 
BRANCH  18  20
HETATM   20  C   UNL     1      28.767  45.834  55.033  1.00  0.00     0.273 C 
BRANCH  20  21
HETATM   21  N   UNL     1      29.182  45.136  56.298  1.00  0.00    -0.067 N 
HETATM   22  H   UNL     1      28.574  44.312  56.389  1.00  0.00     0.280 HD
HETATM   23  C   UNL     1      29.001  45.979  57.545  1.00  0.00     0.235 C 
HETATM   24  C   UNL     1      30.398  46.140  58.109  1.00  0.00     0.029 C 
HETATM   25  C   UNL     1      31.079  44.843  57.724  1.00  0.00     0.029 C 
HETATM   26  C   UNL     1      30.614  44.633  56.296  1.00  0.00     0.235 C 
ENDBRANCH  20  21
ENDBRANCH  18  20
ENDBRANCH  10  14
ENDBRANCH   1   9
BRANCH   4  27
HETATM   27  N   UNL     1      23.540  47.923  49.888  1.00  0.00    -0.334 N 
HETATM   28  C   UNL     1      22.559  48.431  49.060  1.00  0.00     0.321 C 
HETATM   29  N   UNL     1      21.749  49.319  49.729  1.00  0.00    -0.309 N 
HETATM   30  O   UNL     1      22.467  48.088  47.889  1.00  0.00    -0.247 OA
HETATM   31  H   UNL     1      21.979  49.497  50.694  1.00  0.00     0.170 HD
HETATM   32  H   UNL     1      23.809  48.508  50.667  1.00  0.00     0.164 HD
BRANCH  29  33
HETATM   33  C   UNL     1      20.627  50.009  49.223  1.00  0.00     0.037 A 
HETATM   34  C   UNL     1      19.385  49.413  48.988  1.00  0.00     0.045 A 
HETATM   35  C   UNL     1      18.300  50.166  48.502  1.00  0.00     0.050 A 
HETATM   36  C   UNL     1      18.483  51.529  48.231  1.00  0.00     0.016 A 
HETATM   37  C   UNL     1      19.718  52.131  48.459  1.00  0.00     0.003 A 
HETATM   38  C   UNL     1      20.781  51.376  48.957  1.00  0.00     0.029 A 
BRANCH  35  39
HETATM   39  C   UNL     1      16.961  49.517  48.253  1.00  0.00     0.417 C 
HETATM   40  F   UNL     1      16.779  49.118  46.963  1.00  0.00    -0.166 F 
HETATM   41  F   UNL     1      16.772  48.401  49.012  1.00  0.00    -0.166 F 
HETATM   42  F   UNL     1      15.920  50.346  48.539  1.00  0.00    -0.166 F 
ENDBRANCH  35  39
ENDBRANCH  29  33
ENDBRANCH   4  27
TORSDOF 7
ENDMDL
MODEL 5
REMARK VINA RESULT:     -10.2      1.910      2.892
REMARK  7 active torsions:
REMARK  status: ('A' for Active; 'I' for Inactive)
REMARK    1  A    between atoms: C_3  and  C_4 
REMARK    2  A    between atoms: N_5  and  C_6 
REMARK    3  A    between atoms: C_9  and  N_10 
REMARK       I    between atoms: N_10  and  C_11 
REMARK       I    between atoms: C_11  and  N_12 
REMARK    4  A    between atoms: N_12  and  C_13 
REMARK    5  A    between atoms: C_15  and  C_16 
REMARK    6  A    between atoms: C_32  and  C_33 
REMARK    7  A    between atoms: C_33  and  N_34 
ROOT
HETATM    1  C   UNL     1      22.784  44.395  49.407  1.00  0.00     0.169 C 
HETATM    2  C   UNL     1      24.037  45.255  49.460  1.00  0.00     0.179 C 
HETATM    3  C   UNL     1      24.833  44.719  50.641  1.00  0.00     0.177 C 
HETATM    4  C   UNL     1      25.059  45.917  51.555  1.00  0.00     0.141 C 
HETATM    5  C   UNL     1      24.673  47.109  50.681  1.00  0.00     0.196 C 
HETATM    6  O   UNL     1      23.703  46.627  49.734  1.00  0.00    -0.379 OA
HETATM    7  O   UNL     1      24.019  43.725  51.289  1.00  0.00    -0.379 OA
HETATM    8  C   UNL     1      23.168  43.192  50.261  1.00  0.00     0.198 C 
ENDROOT
BRANCH   1   9
HETATM    9  N   UNL     1      22.356  44.098  48.065  1.00  0.00    -0.221 N 
HETATM   10  C   UNL     1      21.229  44.493  47.373  1.00  0.00     0.182 A 
HETATM   11  N   UNL     1      21.388  44.090  46.123  1.00  0.00    -0.108 NA
HETATM   12  N   UNL     1      22.582  43.434  46.057  1.00  0.00    -0.023 NA
HETATM   13  N   UNL     1      23.186  43.445  47.231  1.00  0.00    -0.043 NA
BRANCH  10  14
HETATM   14  C   UNL     1      20.086  45.286  47.828  1.00  0.00     0.014 A 
HETATM   15  C   UNL     1      18.755  44.961  47.556  1.00  0.00     0.015 A 
HETATM   16  C   UNL     1      17.715  45.783  48.000  1.00  0.00     0.002 A 
HETATM   17  C   UNL     1      17.989  46.961  48.694  1.00  0.00     0.009 A 
HETATM   18  C   UNL     1      19.314  47.339  48.939  1.00  0.00    -0.032 A 
HETATM   19  C   UNL     1      20.347  46.489  48.511  1.00  0.00     0.024 A 
BRANCH  18  20
HETATM   20  C   UNL     1      19.630  48.630  49.643  1.00  0.00     0.273 C 
BRANCH  20  21
HETATM   21  N   UNL     1      18.960  49.824  49.021  1.00  0.00    -0.067 N 
HETATM   22  H   UNL     1      18.090  49.481  48.596  1.00  0.00     0.280 HD
HETATM   23  C   UNL     1      19.779  50.478  47.925  1.00  0.00     0.235 C 
HETATM   24  C   UNL     1      20.049  51.881  48.430  1.00  0.00     0.029 C 
HETATM   25  C   UNL     1      18.813  52.199  49.246  1.00  0.00     0.029 C 
HETATM   26  C   UNL     1      18.574  50.911  50.008  1.00  0.00     0.235 C 
ENDBRANCH  20  21
ENDBRANCH  18  20
ENDBRANCH  10  14
ENDBRANCH   1   9
BRANCH   4  27
HETATM   27  N   UNL     1      26.391  45.969  52.153  1.00  0.00    -0.334 N 
HETATM   28  C   UNL     1      26.581  45.786  53.508  1.00  0.00     0.321 C 
HETATM   29  N   UNL     1      27.896  45.986  53.862  1.00  0.00    -0.309 N 
HETATM   30  O   UNL     1      25.659  45.474  54.250  1.00  0.00    -0.247 OA
HETATM   31  H   UNL     1      28.524  46.253  53.120  1.00  0.00     0.170 HD
HETATM   32  H   UNL     1      27.047  46.586  51.693  1.00  0.00     0.164 HD
BRANCH  29  33
HETATM   33  C   UNL     1      28.471  45.857  55.143  1.00  0.00     0.037 A 
HETATM   34  C   UNL     1      29.530  44.994  55.439  1.00  0.00     0.045 A 
HETATM   35  C   UNL     1      30.072  44.930  56.736  1.00  0.00     0.050 A 
HETATM   36  C   UNL     1      29.521  45.731  57.746  1.00  0.00     0.016 A 
HETATM   37  C   UNL     1      28.464  46.592  57.461  1.00  0.00     0.003 A 
HETATM   38  C   UNL     1      27.947  46.657  56.165  1.00  0.00     0.029 A 
BRANCH  35  39
HETATM   39  C   UNL     1      31.217  43.998  57.049  1.00  0.00     0.417 C 
HETATM   40  F   UNL     1      30.848  42.689  57.130  1.00  0.00    -0.166 F 
HETATM   41  F   UNL     1      32.201  44.044  56.106  1.00  0.00    -0.166 F 
HETATM   42  F   UNL     1      31.819  44.292  58.233  1.00  0.00    -0.166 F 
ENDBRANCH  35  39
ENDBRANCH  29  33
ENDBRANCH   4  27
TORSDOF 7
ENDMDL
MODEL 6
REMARK VINA RESULT:     -10.2      2.101      2.874
REMARK  7 active torsions:
REMARK  status: ('A' for Active; 'I' for Inactive)
REMARK    1  A    between atoms: C_3  and  C_4 
REMARK    2  A    between atoms: N_5  and  C_6 
REMARK    3  A    between atoms: C_9  and  N_10 
REMARK       I    between atoms: N_10  and  C_11 
REMARK       I    between atoms: C_11  and  N_12 
REMARK    4  A    between atoms: N_12  and  C_13 
REMARK    5  A    between atoms: C_15  and  C_16 
REMARK    6  A    between atoms: C_32  and  C_33 
REMARK    7  A    between atoms: C_33  and  N_34 
ROOT
HETATM    1  C   UNL     1      21.169  46.368  48.441  1.00  0.00     0.169 C 
HETATM    2  C   UNL     1      22.648  46.686  48.291  1.00  0.00     0.179 C 
HETATM    3  C   UNL     1      23.371  45.522  48.953  1.00  0.00     0.177 C 
HETATM    4  C   UNL     1      24.264  46.149  50.015  1.00  0.00     0.141 C 
HETATM    5  C   UNL     1      24.243  47.636  49.664  1.00  0.00     0.196 C 
HETATM    6  O   UNL     1      22.987  47.886  49.008  1.00  0.00    -0.379 OA
HETATM    7  O   UNL     1      22.369  44.683  49.555  1.00  0.00    -0.379 OA
HETATM    8  C   UNL     1      21.180  44.880  48.772  1.00  0.00     0.198 C 
ENDROOT
BRANCH   1   9
HETATM    9  N   UNL     1      20.387  46.748  47.294  1.00  0.00    -0.221 N 
HETATM   10  C   UNL     1      19.879  47.975  46.919  1.00  0.00     0.182 A 
HETATM   11  N   UNL     1      19.380  47.826  45.702  1.00  0.00    -0.108 NA
HETATM   12  N   UNL     1      19.556  46.520  45.350  1.00  0.00    -0.023 NA
HETATM   13  N   UNL     1      20.179  45.857  46.306  1.00  0.00    -0.043 NA
BRANCH  10  14
HETATM   14  C   UNL     1      19.927  49.258  47.622  1.00  0.00     0.014 A 
HETATM   15  C   UNL     1      21.074  50.051  47.716  1.00  0.00     0.015 A 
HETATM   16  C   UNL     1      21.053  51.253  48.430  1.00  0.00     0.002 A 
HETATM   17  C   UNL     1      19.895  51.666  49.087  1.00  0.00     0.009 A 
HETATM   18  C   UNL     1      18.745  50.870  49.053  1.00  0.00    -0.032 A 
HETATM   19  C   UNL     1      18.774  49.678  48.309  1.00  0.00     0.024 A 
BRANCH  18  20
HETATM   20  C   UNL     1      17.503  51.276  49.797  1.00  0.00     0.273 C 
BRANCH  20  21
HETATM   21  N   UNL     1      16.855  52.513  49.238  1.00  0.00    -0.067 N 
HETATM   22  H   UNL     1      17.619  53.121  48.917  1.00  0.00     0.280 HD
HETATM   23  C   UNL     1      16.048  53.291  50.260  1.00  0.00     0.235 C 
HETATM   24  C   UNL     1      14.628  53.264  49.732  1.00  0.00     0.029 C 
HETATM   25  C   UNL     1      14.818  53.251  48.229  1.00  0.00     0.029 C 
HETATM   26  C   UNL     1      15.953  52.264  48.044  1.00  0.00     0.235 C 
ENDBRANCH  20  21
ENDBRANCH  18  20
ENDBRANCH  10  14
ENDBRANCH   1   9
BRANCH   4  27
HETATM   27  N   UNL     1      25.586  45.538  50.122  1.00  0.00    -0.334 N 
HETATM   28  C   UNL     1      25.921  44.721  51.184  1.00  0.00     0.321 C 
HETATM   29  N   UNL     1      27.245  44.350  51.133  1.00  0.00    -0.309 N 
HETATM   30  O   UNL     1      25.096  44.396  52.028  1.00  0.00    -0.247 OA
HETATM   31  H   UNL     1      27.787  44.724  50.370  1.00  0.00     0.170 HD
HETATM   32  H   UNL     1      26.344  46.074  49.719  1.00  0.00     0.164 HD
BRANCH  29  33
HETATM   33  C   UNL     1      27.934  43.500  52.023  1.00  0.00     0.037 A 
HETATM   34  C   UNL     1      28.677  43.953  53.116  1.00  0.00     0.045 A 
HETATM   35  C   UNL     1      29.323  43.048  53.979  1.00  0.00     0.050 A 
HETATM   36  C   UNL     1      29.234  41.674  53.717  1.00  0.00     0.016 A 
HETATM   37  C   UNL     1      28.498  41.213  52.627  1.00  0.00     0.003 A 
HETATM   38  C   UNL     1      27.848  42.122  51.790  1.00  0.00     0.029 A 
BRANCH  35  39
HETATM   39  C   UNL     1      30.122  43.542  55.160  1.00  0.00     0.417 C 
HETATM   40  F   UNL     1      31.325  44.083  54.817  1.00  0.00    -0.166 F 
HETATM   41  F   UNL     1      29.470  44.513  55.861  1.00  0.00    -0.166 F 
HETATM   42  F   UNL     1      30.397  42.554  56.054  1.00  0.00    -0.166 F 
ENDBRANCH  35  39
ENDBRANCH  29  33
ENDBRANCH   4  27
TORSDOF 7
ENDMDL
MODEL 7
REMARK VINA RESULT:     -10.2      2.070      3.312
REMARK  7 active torsions:
REMARK  status: ('A' for Active; 'I' for Inactive)
REMARK    1  A    between atoms: C_3  and  C_4 
REMARK    2  A    between atoms: N_5  and  C_6 
REMARK    3  A    between atoms: C_9  and  N_10 
REMARK       I    between atoms: N_10  and  C_11 
REMARK       I    between atoms: C_11  and  N_12 
REMARK    4  A    between atoms: N_12  and  C_13 
REMARK    5  A    between atoms: C_15  and  C_16 
REMARK    6  A    between atoms: C_32  and  C_33 
REMARK    7  A    between atoms: C_33  and  N_34 
ROOT
HETATM    1  C   UNL     1      22.031  46.772  47.281  1.00  0.00     0.169 C 
HETATM    2  C   UNL     1      22.027  45.717  48.377  1.00  0.00     0.179 C 
HETATM    3  C   UNL     1      22.910  46.288  49.477  1.00  0.00     0.177 C 
HETATM    4  C   UNL     1      23.990  45.241  49.715  1.00  0.00     0.141 C 
HETATM    5  C   UNL     1      23.461  44.010  48.980  1.00  0.00     0.196 C 
HETATM    6  O   UNL     1      22.630  44.497  47.911  1.00  0.00    -0.379 OA
HETATM    7  O   UNL     1      23.482  47.510  48.975  1.00  0.00    -0.379 OA
HETATM    8  C   UNL     1      22.540  48.009  48.012  1.00  0.00     0.198 C 
ENDROOT
BRANCH   1   9
HETATM    9  N   UNL     1      20.758  46.912  46.625  1.00  0.00    -0.221 N 
HETATM   10  C   UNL     1      19.641  47.642  46.976  1.00  0.00     0.182 A 
HETATM   11  N   UNL     1      18.800  47.570  45.957  1.00  0.00    -0.108 NA
HETATM   12  N   UNL     1      19.384  46.784  45.006  1.00  0.00    -0.023 NA
HETATM   13  N   UNL     1      20.581  46.389  45.397  1.00  0.00    -0.043 NA
BRANCH  10  14
HETATM   14  C   UNL     1      19.393  48.448  48.173  1.00  0.00     0.014 A 
HETATM   15  C   UNL     1      19.063  47.909  49.419  1.00  0.00     0.015 A 
HETATM   16  C   UNL     1      18.811  48.743  50.513  1.00  0.00     0.002 A 
HETATM   17  C   UNL     1      18.852  50.129  50.371  1.00  0.00     0.009 A 
HETATM   18  C   UNL     1      19.131  50.700  49.124  1.00  0.00    -0.032 A 
HETATM   19  C   UNL     1      19.409  49.849  48.041  1.00  0.00     0.024 A 
BRANCH  18  20
HETATM   20  C   UNL     1      19.132  52.193  48.942  1.00  0.00     0.273 C 
BRANCH  20  21
HETATM   21  N   UNL     1      17.771  52.753  48.634  1.00  0.00    -0.067 N 
HETATM   22  H   UNL     1      17.923  53.701  48.267  1.00  0.00     0.280 HD
HETATM   23  C   UNL     1      16.872  52.871  49.850  1.00  0.00     0.235 C 
HETATM   24  C   UNL     1      15.698  51.962  49.551  1.00  0.00     0.029 C 
HETATM   25  C   UNL     1      15.562  52.055  48.045  1.00  0.00     0.029 C 
HETATM   26  C   UNL     1      17.001  51.986  47.575  1.00  0.00     0.235 C 
ENDBRANCH  20  21
ENDBRANCH  18  20
ENDBRANCH  10  14
ENDBRANCH   1   9
BRANCH   4  27
HETATM   27  N   UNL     1      24.334  45.044  51.120  1.00  0.00    -0.334 N 
HETATM   28  C   UNL     1      25.586  45.359  51.609  1.00  0.00     0.321 C 
HETATM   29  N   UNL     1      25.718  44.991  52.928  1.00  0.00    -0.309 N 
HETATM   30  O   UNL     1      26.429  45.906  50.910  1.00  0.00    -0.247 OA
HETATM   31  H   UNL     1      24.922  44.536  53.348  1.00  0.00     0.170 HD
HETATM   32  H   UNL     1      23.860  44.277  51.578  1.00  0.00     0.164 HD
BRANCH  29  33
HETATM   33  C   UNL     1      26.836  45.181  53.767  1.00  0.00     0.037 A 
HETATM   34  C   UNL     1      27.911  44.292  53.847  1.00  0.00     0.045 A 
HETATM   35  C   UNL     1      29.007  44.553  54.690  1.00  0.00     0.050 A 
HETATM   36  C   UNL     1      29.002  45.714  55.475  1.00  0.00     0.016 A 
HETATM   37  C   UNL     1      27.933  46.605  55.404  1.00  0.00     0.003 A 
HETATM   38  C   UNL     1      26.860  46.341  54.550  1.00  0.00     0.029 A 
BRANCH  35  39
HETATM   39  C   UNL     1      30.166  43.591  54.770  1.00  0.00     0.417 C 
HETATM   40  F   UNL     1      30.632  43.194  53.552  1.00  0.00    -0.166 F 
HETATM   41  F   UNL     1      31.242  44.121  55.418  1.00  0.00    -0.166 F 
HETATM   42  F   UNL     1      29.850  42.449  55.440  1.00  0.00    -0.166 F 
ENDBRANCH  35  39
ENDBRANCH  29  33
ENDBRANCH   4  27
TORSDOF 7
ENDMDL
MODEL 8
REMARK VINA RESULT:      -9.9      1.897      2.639
REMARK  7 active torsions:
REMARK  status: ('A' for Active; 'I' for Inactive)
REMARK    1  A    between atoms: C_3  and  C_4 
REMARK    2  A    between atoms: N_5  and  C_6 
REMARK    3  A    between atoms: C_9  and  N_10 
REMARK       I    between atoms: N_10  and  C_11 
REMARK       I    between atoms: C_11  and  N_12 
REMARK    4  A    between atoms: N_12  and  C_13 
REMARK    5  A    between atoms: C_15  and  C_16 
REMARK    6  A    between atoms: C_32  and  C_33 
REMARK    7  A    between atoms: C_33  and  N_34 
ROOT
HETATM    1  C   UNL     1      22.796  45.039  49.179  1.00  0.00     0.169 C 
HETATM    2  C   UNL     1      24.177  45.601  49.475  1.00  0.00     0.179 C 
HETATM    3  C   UNL     1      24.816  44.599  50.426  1.00  0.00     0.177 C 
HETATM    4  C   UNL     1      25.209  45.402  51.659  1.00  0.00     0.141 C 
HETATM    5  C   UNL     1      25.077  46.852  51.196  1.00  0.00     0.196 C 
HETATM    6  O   UNL     1      24.078  46.862  50.160  1.00  0.00    -0.379 OA
HETATM    7  O   UNL     1      23.812  43.619  50.751  1.00  0.00    -0.379 OA
HETATM    8  C   UNL     1      22.926  43.585  49.620  1.00  0.00     0.198 C 
ENDROOT
BRANCH   1   9
HETATM    9  N   UNL     1      22.380  45.244  47.817  1.00  0.00    -0.221 N 
HETATM   10  C   UNL     1      21.433  46.096  47.284  1.00  0.00     0.182 A 
HETATM   11  N   UNL     1      21.551  46.024  45.968  1.00  0.00    -0.108 NA
HETATM   12  N   UNL     1      22.537  45.120  45.699  1.00  0.00    -0.023 NA
HETATM   13  N   UNL     1      23.057  44.649  46.817  1.00  0.00    -0.043 NA
BRANCH  10  14
HETATM   14  C   UNL     1      20.511  47.006  47.965  1.00  0.00     0.014 A 
HETATM   15  C   UNL     1      20.911  48.173  48.622  1.00  0.00     0.015 A 
HETATM   16  C   UNL     1      19.976  48.980  49.277  1.00  0.00     0.002 A 
HETATM   17  C   UNL     1      18.630  48.618  49.313  1.00  0.00     0.009 A 
HETATM   18  C   UNL     1      18.205  47.430  48.707  1.00  0.00    -0.032 A 
HETATM   19  C   UNL     1      19.152  46.643  48.030  1.00  0.00     0.024 A 
BRANCH  18  20
HETATM   20  C   UNL     1      16.766  47.000  48.779  1.00  0.00     0.273 C 
BRANCH  20  21
HETATM   21  N   UNL     1      15.903  47.639  47.726  1.00  0.00    -0.067 N 
HETATM   22  H   UNL     1      15.036  47.088  47.687  1.00  0.00     0.280 HD
HETATM   23  C   UNL     1      16.520  47.621  46.341  1.00  0.00     0.235 C 
HETATM   24  C   UNL     1      16.684  49.081  45.972  1.00  0.00     0.029 C 
HETATM   25  C   UNL     1      15.515  49.747  46.668  1.00  0.00     0.029 C 
HETATM   26  C   UNL     1      15.506  49.072  48.026  1.00  0.00     0.235 C 
ENDBRANCH  20  21
ENDBRANCH  18  20
ENDBRANCH  10  14
ENDBRANCH   1   9
BRANCH   4  27
HETATM   27  N   UNL     1      26.502  45.030  52.227  1.00  0.00    -0.334 N 
HETATM   28  C   UNL     1      26.820  45.307  53.542  1.00  0.00     0.321 C 
HETATM   29  N   UNL     1      28.123  44.967  53.825  1.00  0.00    -0.309 N 
HETATM   30  O   UNL     1      25.999  45.786  54.313  1.00  0.00    -0.247 OA
HETATM   31  H   UNL     1      28.666  44.595  53.062  1.00  0.00     0.170 HD
HETATM   32  H   UNL     1      27.276  45.027  51.575  1.00  0.00     0.164 HD
BRANCH  29  33
HETATM   33  C   UNL     1      28.789  45.074  55.064  1.00  0.00     0.037 A 
HETATM   34  C   UNL     1      29.839  44.240  55.459  1.00  0.00     0.045 A 
HETATM   35  C   UNL     1      30.476  44.415  56.701  1.00  0.00     0.050 A 
HETATM   36  C   UNL     1      30.029  45.429  57.560  1.00  0.00     0.016 A 
HETATM   37  C   UNL     1      28.980  46.262  57.176  1.00  0.00     0.003 A 
HETATM   38  C   UNL     1      28.369  46.088  55.933  1.00  0.00     0.029 A 
BRANCH  35  39
HETATM   39  C   UNL     1      31.611  43.514  57.121  1.00  0.00     0.417 C 
HETATM   40  F   UNL     1      32.410  43.125  56.088  1.00  0.00    -0.166 F 
HETATM   41  F   UNL     1      32.443  44.108  58.024  1.00  0.00    -0.166 F 
HETATM   42  F   UNL     1      31.176  42.368  57.710  1.00  0.00    -0.166 F 
ENDBRANCH  35  39
ENDBRANCH  29  33
ENDBRANCH   4  27
TORSDOF 7
ENDMDL
MODEL 9
REMARK VINA RESULT:      -9.9      2.854      4.669
REMARK  7 active torsions:
REMARK  status: ('A' for Active; 'I' for Inactive)
REMARK    1  A    between atoms: C_3  and  C_4 
REMARK    2  A    between atoms: N_5  and  C_6 
REMARK    3  A    between atoms: C_9  and  N_10 
REMARK       I    between atoms: N_10  and  C_11 
REMARK       I    between atoms: C_11  and  N_12 
REMARK    4  A    between atoms: N_12  and  C_13 
REMARK    5  A    between atoms: C_15  and  C_16 
REMARK    6  A    between atoms: C_32  and  C_33 
REMARK    7  A    between atoms: C_33  and  N_34 
ROOT
HETATM    1  C   UNL     1      20.514  45.495  47.403  1.00  0.00     0.169 C 
HETATM    2  C   UNL     1      21.400  44.934  48.504  1.00  0.00     0.179 C 
HETATM    3  C   UNL     1      22.763  45.571  48.276  1.00  0.00     0.177 C 
HETATM    4  C   UNL     1      23.737  44.408  48.136  1.00  0.00     0.141 C 
HETATM    5  C   UNL     1      22.929  43.207  48.623  1.00  0.00     0.196 C 
HETATM    6  O   UNL     1      21.546  43.509  48.363  1.00  0.00    -0.379 OA
HETATM    7  O   UNL     1      22.684  46.325  47.053  1.00  0.00    -0.379 OA
HETATM    8  C   UNL     1      21.305  46.708  46.925  1.00  0.00     0.198 C 
ENDROOT
BRANCH   1   9
HETATM    9  N   UNL     1      19.168  45.758  47.837  1.00  0.00    -0.221 N 
HETATM   10  C   UNL     1      18.496  46.952  48.011  1.00  0.00     0.182 A 
HETATM   11  N   UNL     1      17.233  46.647  48.261  1.00  0.00    -0.108 NA
HETATM   12  N   UNL     1      17.139  45.286  48.268  1.00  0.00    -0.023 NA
HETATM   13  N   UNL     1      18.308  44.735  47.998  1.00  0.00    -0.043 NA
BRANCH  10  14
HETATM   14  C   UNL     1      18.983  48.325  47.868  1.00  0.00     0.014 A 
HETATM   15  C   UNL     1      18.830  49.088  46.708  1.00  0.00     0.015 A 
HETATM   16  C   UNL     1      19.348  50.385  46.634  1.00  0.00     0.002 A 
HETATM   17  C   UNL     1      20.056  50.927  47.706  1.00  0.00     0.009 A 
HETATM   18  C   UNL     1      20.270  50.169  48.863  1.00  0.00    -0.032 A 
HETATM   19  C   UNL     1      19.719  48.878  48.932  1.00  0.00     0.024 A 
BRANCH  18  20
HETATM   20  C   UNL     1      21.072  50.720  50.009  1.00  0.00     0.273 C 
BRANCH  20  21
HETATM   21  N   UNL     1      22.542  50.424  49.900  1.00  0.00    -0.067 N 
HETATM   22  H   UNL     1      22.943  50.596  50.830  1.00  0.00     0.280 HD
HETATM   23  C   UNL     1      23.271  51.316  48.914  1.00  0.00     0.235 C 
HETATM   24  C   UNL     1      23.805  50.370  47.858  1.00  0.00     0.029 C 
HETATM   25  C   UNL     1      24.084  49.102  48.639  1.00  0.00     0.029 C 
HETATM   26  C   UNL     1      22.867  48.987  49.535  1.00  0.00     0.235 C 
ENDBRANCH  20  21
ENDBRANCH  18  20
ENDBRANCH  10  14
ENDBRANCH   1   9
BRANCH   4  27
HETATM   27  N   UNL     1      25.022  44.621  48.796  1.00  0.00    -0.334 N 
HETATM   28  C   UNL     1      25.181  44.416  50.152  1.00  0.00     0.321 C 
HETATM   29  N   UNL     1      26.439  44.782  50.571  1.00  0.00    -0.309 N 
HETATM   30  O   UNL     1      24.280  43.954  50.841  1.00  0.00    -0.247 OA
HETATM   31  H   UNL     1      27.054  45.160  49.867  1.00  0.00     0.170 HD
HETATM   32  H   UNL     1      25.605  45.339  48.385  1.00  0.00     0.164 HD
BRANCH  29  33
HETATM   33  C   UNL     1      26.974  44.686  51.873  1.00  0.00     0.037 A 
HETATM   34  C   UNL     1      27.916  43.730  52.260  1.00  0.00     0.045 A 
HETATM   35  C   UNL     1      28.426  43.703  53.572  1.00  0.00     0.050 A 
HETATM   36  C   UNL     1      27.958  44.640  54.504  1.00  0.00     0.016 A 
HETATM   37  C   UNL     1      27.015  45.594  54.128  1.00  0.00     0.003 A 
HETATM   38  C   UNL     1      26.532  45.620  52.818  1.00  0.00     0.029 A 
BRANCH  35  39
HETATM   39  C   UNL     1      29.446  42.671  53.983  1.00  0.00     0.417 C 
HETATM   40  F   UNL     1      30.546  42.640  53.180  1.00  0.00    -0.166 F 
HETATM   41  F   UNL     1      29.919  42.878  55.245  1.00  0.00    -0.166 F 
HETATM   42  F   UNL     1      28.940  41.407  53.975  1.00  0.00    -0.166 F 
ENDBRANCH  35  39
ENDBRANCH  29  33
ENDBRANCH   4  27
TORSDOF 7
ENDMDL
MODEL 10
REMARK VINA RESULT:      -9.7      1.993      2.927
REMARK  7 active torsions:
REMARK  status: ('A' for Active; 'I' for Inactive)
REMARK    1  A    between atoms: C_3  and  C_4 
REMARK    2  A    between atoms: N_5  and  C_6 
REMARK    3  A    between atoms: C_9  and  N_10 
REMARK       I    between atoms: N_10  and  C_11 
REMARK       I    between atoms: C_11  and  N_12 
REMARK    4  A    between atoms: N_12  and  C_13 
REMARK    5  A    between atoms: C_15  and  C_16 
REMARK    6  A    between atoms: C_32  and  C_33 
REMARK    7  A    between atoms: C_33  and  N_34 
ROOT
HETATM    1  C   UNL     1      21.730  45.121  47.711  1.00  0.00     0.169 C 
HETATM    2  C   UNL     1      23.137  45.637  47.966  1.00  0.00     0.179 C 
HETATM    3  C   UNL     1      23.897  44.448  48.537  1.00  0.00     0.177 C 
HETATM    4  C   UNL     1      24.447  44.923  49.875  1.00  0.00     0.141 C 
HETATM    5  C   UNL     1      24.252  46.437  49.823  1.00  0.00     0.196 C 
HETATM    6  O   UNL     1      23.126  46.677  48.960  1.00  0.00    -0.379 OA
HETATM    7  O   UNL     1      22.946  43.383  48.721  1.00  0.00    -0.379 OA
HETATM    8  C   UNL     1      21.919  43.608  47.741  1.00  0.00     0.198 C 
ENDROOT
BRANCH   1   9
HETATM    9  N   UNL     1      21.139  45.653  46.512  1.00  0.00    -0.221 N 
HETATM   10  C   UNL     1      19.985  46.388  46.328  1.00  0.00     0.182 A 
HETATM   11  N   UNL     1      19.975  46.774  45.062  1.00  0.00    -0.108 NA
HETATM   12  N   UNL     1      21.093  46.258  44.473  1.00  0.00    -0.023 NA
HETATM   13  N   UNL     1      21.815  45.585  45.350  1.00  0.00    -0.043 NA
BRANCH  10  14
HETATM   14  C   UNL     1      18.972  46.792  47.304  1.00  0.00     0.014 A 
HETATM   15  C   UNL     1      17.606  46.533  47.161  1.00  0.00     0.015 A 
HETATM   16  C   UNL     1      16.692  46.976  48.122  1.00  0.00     0.002 A 
HETATM   17  C   UNL     1      17.124  47.712  49.225  1.00  0.00     0.009 A 
HETATM   18  C   UNL     1      18.479  48.030  49.370  1.00  0.00    -0.032 A 
HETATM   19  C   UNL     1      19.389  47.554  48.411  1.00  0.00     0.024 A 
BRANCH  18  20
HETATM   20  C   UNL     1      18.956  48.863  50.527  1.00  0.00     0.273 C 
BRANCH  20  21
HETATM   21  N   UNL     1      19.109  50.320  50.185  1.00  0.00    -0.067 N 
HETATM   22  H   UNL     1      18.960  50.841  51.059  1.00  0.00     0.280 HD
HETATM   23  C   UNL     1      18.092  50.817  49.176  1.00  0.00     0.235 C 
HETATM   24  C   UNL     1      18.917  51.262  47.985  1.00  0.00     0.029 C 
HETATM   25  C   UNL     1      20.201  51.757  48.618  1.00  0.00     0.029 C 
HETATM   26  C   UNL     1      20.484  50.701  49.669  1.00  0.00     0.235 C 
ENDBRANCH  20  21
ENDBRANCH  18  20
ENDBRANCH  10  14
ENDBRANCH   1   9
BRANCH   4  27
HETATM   27  N   UNL     1      25.804  44.464  50.160  1.00  0.00    -0.334 N 
HETATM   28  C   UNL     1      26.279  44.372  51.453  1.00  0.00     0.321 C 
HETATM   29  N   UNL     1      27.610  44.025  51.476  1.00  0.00    -0.309 N 
HETATM   30  O   UNL     1      25.555  44.576  52.419  1.00  0.00    -0.247 OA
HETATM   31  H   UNL     1      28.058  43.908  50.580  1.00  0.00     0.170 HD
HETATM   32  H   UNL     1      26.491  44.681  49.450  1.00  0.00     0.164 HD
BRANCH  29  33
HETATM   33  C   UNL     1      28.423  43.807  52.607  1.00  0.00     0.037 A 
HETATM   34  C   UNL     1      28.520  44.696  53.682  1.00  0.00     0.045 A 
HETATM   35  C   UNL     1      29.335  44.406  54.792  1.00  0.00     0.050 A 
HETATM   36  C   UNL     1      30.075  43.216  54.801  1.00  0.00     0.016 A 
HETATM   37  C   UNL     1      29.988  42.326  53.733  1.00  0.00     0.003 A 
HETATM   38  C   UNL     1      29.162  42.618  52.646  1.00  0.00     0.029 A 
BRANCH  35  39
HETATM   39  C   UNL     1      29.432  45.368  55.950  1.00  0.00     0.417 C 
HETATM   40  F   UNL     1      28.284  45.465  56.677  1.00  0.00    -0.166 F 
HETATM   41  F   UNL     1      30.401  45.015  56.841  1.00  0.00    -0.166 F 
HETATM   42  F   UNL     1      29.732  46.634  55.552  1.00  0.00    -0.166 F 
ENDBRANCH  35  39
ENDBRANCH  29  33
ENDBRANCH   4  27
TORSDOF 7
ENDMDL
