MODEL 1
REMARK VINA RESULT:      -8.3      0.000      0.000
REMARK  5 active torsions:
REMARK  status: ('A' for Active; 'I' for Inactive)
REMARK    1  A    between atoms: C_2  and  N_4 
REMARK    2  A    between atoms: N_4  and  C_5 
REMARK       I    between atoms: N_4  and  C_12 
REMARK    3  A    between atoms: C_5  and  C_6 
REMARK       I    between atoms: C_12  and  N_14 
REMARK    4  A    between atoms: N_14  and  C_15 
REMARK    5  A    between atoms: C_18  and  C_21 
ROOT
HETATM    1  N   UNL     1      24.946  44.654  50.841  1.00  0.00    -0.326 N 
HETATM    2  C   UNL     1      25.438  44.656  52.153  1.00  0.00     0.323 C 
HETATM    3  O   UNL     1      24.822  44.133  53.077  1.00  0.00    -0.247 OA
HETATM    4  N   UNL     1      26.647  45.303  52.306  1.00  0.00    -0.309 N 
HETATM    5  H   UNL     1      26.857  46.007  51.615  1.00  0.00     0.170 HD
ENDROOT
BRANCH   4   6
HETATM    6  C   UNL     1      27.479  45.302  53.444  1.00  0.00     0.036 A 
HETATM    7  C   UNL     1      27.437  46.281  54.436  1.00  0.00     0.030 A 
HETATM    8  C   UNL     1      28.285  46.203  55.548  1.00  0.00     0.014 A 
HETATM    9  C   UNL     1      29.186  45.141  55.694  1.00  0.00    -0.023 A 
HETATM   10  C   UNL     1      29.213  44.152  54.705  1.00  0.00     0.014 A 
HETATM   11  C   UNL     1      28.366  44.231  53.592  1.00  0.00     0.030 A 
BRANCH   9  12
HETATM   12  C   UNL     1      30.068  45.052  56.846  1.00  0.00     0.010 A 
HETATM   13  C   UNL     1      31.157  44.189  57.116  1.00  0.00     0.152 A 
HETATM   14  N   UNL     1      31.736  44.436  58.295  1.00  0.00    -0.187 NA
HETATM   15  N   UNL     1      31.021  45.461  58.785  1.00  0.00    -0.289 N 
HETATM   16  H   UNL     1      31.279  45.838  59.691  1.00  0.00     0.188 HD
HETATM   17  C   UNL     1      30.015  45.867  57.957  1.00  0.00     0.123 A 
ENDBRANCH   9  12
ENDBRANCH   4   6
BRANCH   1  18
HETATM   18  C   UNL     1      23.615  44.078  50.554  1.00  0.00     0.081 C 
HETATM   19  C   UNL     1      22.901  44.802  49.410  1.00  0.00     0.032 C 
HETATM   20  C   UNL     1      23.653  42.565  50.323  1.00  0.00     0.032 C 
ENDBRANCH   1  18
BRANCH   1  21
HETATM   21  C   UNL     1      25.776  44.990  49.679  1.00  0.00     0.166 C 
BRANCH  21  22
HETATM   22  C   UNL     1      26.065  46.465  49.496  1.00  0.00    -0.040 A 
HETATM   23  C   UNL     1      24.985  47.364  49.504  1.00  0.00     0.009 A 
HETATM   24  C   UNL     1      25.189  48.734  49.319  1.00  0.00     0.001 A 
HETATM   25  C   UNL     1      26.477  49.226  49.122  1.00  0.00     0.000 A 
HETATM   26  C   UNL     1      27.559  48.350  49.115  1.00  0.00     0.001 A 
HETATM   27  C   UNL     1      27.355  46.982  49.301  1.00  0.00     0.009 A 
ENDBRANCH  21  22
ENDBRANCH   1  21
TORSDOF 5
ENDMDL
MODEL 2
REMARK VINA RESULT:      -8.3      3.319      4.614
REMARK  5 active torsions:
REMARK  status: ('A' for Active; 'I' for Inactive)
REMARK    1  A    between atoms: C_2  and  N_4 
REMARK    2  A    between atoms: N_4  and  C_5 
REMARK       I    between atoms: N_4  and  C_12 
REMARK    3  A    between atoms: C_5  and  C_6 
REMARK       I    between atoms: C_12  and  N_14 
REMARK    4  A    between atoms: N_14  and  C_15 
REMARK    5  A    between atoms: C_18  and  C_21 
ROOT
HETATM    1  N   UNL     1      27.809  40.821  50.044  1.00  0.00    -0.326 N 
HETATM    2  C   UNL     1      28.381  41.022  51.308  1.00  0.00     0.323 C 
HETATM    3  O   UNL     1      29.045  40.151  51.864  1.00  0.00    -0.247 OA
HETATM    4  N   UNL     1      28.117  42.257  51.863  1.00  0.00    -0.309 N 
HETATM    5  H   UNL     1      27.280  42.714  51.533  1.00  0.00     0.170 HD
ENDROOT
BRANCH   4   6
HETATM    6  C   UNL     1      28.705  42.821  53.012  1.00  0.00     0.036 A 
HETATM    7  C   UNL     1      30.034  42.621  53.381  1.00  0.00     0.030 A 
HETATM    8  C   UNL     1      30.554  43.230  54.530  1.00  0.00     0.014 A 
HETATM    9  C   UNL     1      29.756  44.058  55.329  1.00  0.00    -0.023 A 
HETATM   10  C   UNL     1      28.427  44.269  54.947  1.00  0.00     0.014 A 
HETATM   11  C   UNL     1      27.907  43.659  53.798  1.00  0.00     0.030 A 
BRANCH   9  12
HETATM   12  C   UNL     1      30.287  44.694  56.523  1.00  0.00     0.010 A 
HETATM   13  C   UNL     1      30.019  45.961  57.096  1.00  0.00     0.152 A 
HETATM   14  N   UNL     1      30.705  46.177  58.222  1.00  0.00    -0.187 NA
HETATM   15  N   UNL     1      31.415  45.048  58.377  1.00  0.00    -0.289 N 
HETATM   16  H   UNL     1      32.024  44.969  59.184  1.00  0.00     0.188 HD
HETATM   17  C   UNL     1      31.199  44.130  57.390  1.00  0.00     0.123 A 
ENDBRANCH   9  12
ENDBRANCH   4   6
BRANCH   1  18
HETATM   18  C   UNL     1      27.934  39.508  49.379  1.00  0.00     0.081 C 
HETATM   19  C   UNL     1      26.758  38.580  49.694  1.00  0.00     0.032 C 
HETATM   20  C   UNL     1      28.171  39.619  47.870  1.00  0.00     0.032 C 
ENDBRANCH   1  18
BRANCH   1  21
HETATM   21  C   UNL     1      27.279  41.919  49.227  1.00  0.00     0.166 C 
BRANCH  21  22
HETATM   22  C   UNL     1      25.771  42.056  49.231  1.00  0.00    -0.040 A 
HETATM   23  C   UNL     1      25.173  42.831  50.239  1.00  0.00     0.009 A 
HETATM   24  C   UNL     1      23.785  42.976  50.306  1.00  0.00     0.001 A 
HETATM   25  C   UNL     1      22.973  42.347  49.365  1.00  0.00     0.000 A 
HETATM   26  C   UNL     1      23.549  41.579  48.357  1.00  0.00     0.001 A 
HETATM   27  C   UNL     1      24.936  41.435  48.290  1.00  0.00     0.009 A 
ENDBRANCH  21  22
ENDBRANCH   1  21
TORSDOF 5
ENDMDL
MODEL 3
REMARK VINA RESULT:      -8.2      1.964      2.772
REMARK  5 active torsions:
REMARK  status: ('A' for Active; 'I' for Inactive)
REMARK    1  A    between atoms: C_2  and  N_4 
REMARK    2  A    between atoms: N_4  and  C_5 
REMARK       I    between atoms: N_4  and  C_12 
REMARK    3  A    between atoms: C_5  and  C_6 
REMARK       I    between atoms: C_12  and  N_14 
REMARK    4  A    between atoms: N_14  and  C_15 
REMARK    5  A    between atoms: C_18  and  C_21 
ROOT
HETATM    1  N   UNL     1      26.664  42.164  50.145  1.00  0.00    -0.326 N 
HETATM    2  C   UNL     1      27.198  42.118  51.440  1.00  0.00     0.323 C 
HETATM    3  O   UNL     1      27.237  41.077  52.088  1.00  0.00    -0.247 OA
HETATM    4  N   UNL     1      27.647  43.334  51.913  1.00  0.00    -0.309 N 
HETATM    5  H   UNL     1      27.224  44.149  51.496  1.00  0.00     0.170 HD
ENDROOT
BRANCH   4   6
HETATM    6  C   UNL     1      28.402  43.571  53.079  1.00  0.00     0.036 A 
HETATM    7  C   UNL     1      29.593  42.911  53.379  1.00  0.00     0.030 A 
HETATM    8  C   UNL     1      30.298  43.214  54.551  1.00  0.00     0.014 A 
HETATM    9  C   UNL     1      29.831  44.186  55.442  1.00  0.00    -0.023 A 
HETATM   10  C   UNL     1      28.643  44.858  55.130  1.00  0.00     0.014 A 
HETATM   11  C   UNL     1      27.938  44.555  53.958  1.00  0.00     0.030 A 
BRANCH   9  12
HETATM   12  C   UNL     1      30.556  44.507  56.660  1.00  0.00     0.010 A 
HETATM   13  C   UNL     1      31.593  43.816  57.332  1.00  0.00     0.152 A 
HETATM   14  N   UNL     1      32.017  44.452  58.428  1.00  0.00    -0.187 NA
HETATM   15  N   UNL     1      31.254  45.556  58.462  1.00  0.00    -0.289 N 
HETATM   16  H   UNL     1      31.396  46.217  59.219  1.00  0.00     0.188 HD
HETATM   17  C   UNL     1      30.367  45.637  57.428  1.00  0.00     0.123 A 
ENDBRANCH   9  12
ENDBRANCH   4   6
BRANCH   1  18
HETATM   18  C   UNL     1      26.061  40.952  49.553  1.00  0.00     0.081 C 
HETATM   19  C   UNL     1      24.716  41.239  48.881  1.00  0.00     0.032 C 
HETATM   20  C   UNL     1      27.010  40.206  48.612  1.00  0.00     0.032 C 
ENDBRANCH   1  18
BRANCH   1  21
HETATM   21  C   UNL     1      26.874  43.298  49.237  1.00  0.00     0.166 C 
BRANCH  21  22
HETATM   22  C   UNL     1      26.176  44.582  49.637  1.00  0.00    -0.040 A 
HETATM   23  C   UNL     1      26.913  45.778  49.616  1.00  0.00     0.009 A 
HETATM   24  C   UNL     1      26.328  46.988  49.995  1.00  0.00     0.001 A 
HETATM   25  C   UNL     1      24.997  47.021  50.402  1.00  0.00     0.000 A 
HETATM   26  C   UNL     1      24.250  45.847  50.425  1.00  0.00     0.001 A 
HETATM   27  C   UNL     1      24.834  44.637  50.045  1.00  0.00     0.009 A 
ENDBRANCH  21  22
ENDBRANCH   1  21
TORSDOF 5
ENDMDL
MODEL 4
REMARK VINA RESULT:      -8.2      2.824      7.983
REMARK  5 active torsions:
REMARK  status: ('A' for Active; 'I' for Inactive)
REMARK    1  A    between atoms: C_2  and  N_4 
REMARK    2  A    between atoms: N_4  and  C_5 
REMARK       I    between atoms: N_4  and  C_12 
REMARK    3  A    between atoms: C_5  and  C_6 
REMARK       I    between atoms: C_12  and  N_14 
REMARK    4  A    between atoms: N_14  and  C_15 
REMARK    5  A    between atoms: C_18  and  C_21 
ROOT
HETATM    1  N   UNL     1      27.645  42.904  52.093  1.00  0.00    -0.326 N 
HETATM    2  C   UNL     1      27.238  43.819  51.112  1.00  0.00     0.323 C 
HETATM    3  O   UNL     1      27.350  43.576  49.914  1.00  0.00    -0.247 OA
HETATM    4  N   UNL     1      26.729  45.000  51.611  1.00  0.00    -0.309 N 
HETATM    5  H   UNL     1      27.038  45.253  52.537  1.00  0.00     0.170 HD
ENDROOT
BRANCH   4   6
HETATM    6  C   UNL     1      26.066  46.016  50.894  1.00  0.00     0.036 A 
HETATM    7  C   UNL     1      26.681  47.190  50.465  1.00  0.00     0.030 A 
HETATM    8  C   UNL     1      25.960  48.148  49.740  1.00  0.00     0.014 A 
HETATM    9  C   UNL     1      24.612  47.947  49.424  1.00  0.00    -0.023 A 
HETATM   10  C   UNL     1      24.001  46.759  49.843  1.00  0.00     0.014 A 
HETATM   11  C   UNL     1      24.722  45.802  50.568  1.00  0.00     0.030 A 
BRANCH   9  12
HETATM   12  C   UNL     1      23.856  48.934  48.672  1.00  0.00     0.010 A 
HETATM   13  C   UNL     1      24.278  50.090  47.972  1.00  0.00     0.152 A 
HETATM   14  N   UNL     1      23.269  50.740  47.385  1.00  0.00    -0.187 NA
HETATM   15  N   UNL     1      22.194  50.003  47.706  1.00  0.00    -0.289 N 
HETATM   16  H   UNL     1      21.287  50.299  47.363  1.00  0.00     0.188 HD
HETATM   17  C   UNL     1      22.491  48.912  48.472  1.00  0.00     0.123 A 
ENDBRANCH   9  12
ENDBRANCH   4   6
BRANCH   1  18
HETATM   18  C   UNL     1      28.296  41.639  51.696  1.00  0.00     0.081 C 
HETATM   19  C   UNL     1      28.853  40.868  52.896  1.00  0.00     0.032 C 
HETATM   20  C   UNL     1      27.403  40.751  50.826  1.00  0.00     0.032 C 
ENDBRANCH   1  18
BRANCH   1  21
HETATM   21  C   UNL     1      27.254  43.023  53.503  1.00  0.00     0.166 C 
BRANCH  21  22
HETATM   22  C   UNL     1      28.176  43.867  54.359  1.00  0.00    -0.040 A 
HETATM   23  C   UNL     1      27.705  45.104  54.831  1.00  0.00     0.009 A 
HETATM   24  C   UNL     1      28.518  45.934  55.606  1.00  0.00     0.001 A 
HETATM   25  C   UNL     1      29.816  45.540  55.921  1.00  0.00     0.000 A 
HETATM   26  C   UNL     1      30.298  44.316  55.466  1.00  0.00     0.001 A 
HETATM   27  C   UNL     1      29.485  43.486  54.692  1.00  0.00     0.009 A 
ENDBRANCH  21  22
ENDBRANCH   1  21
TORSDOF 5
ENDMDL
MODEL 5
REMARK VINA RESULT:      -8.1      3.997      7.858
REMARK  5 active torsions:
REMARK  status: ('A' for Active; 'I' for Inactive)
REMARK    1  A    between atoms: C_2  and  N_4 
REMARK    2  A    between atoms: N_4  and  C_5 
REMARK       I    between atoms: N_4  and  C_12 
REMARK    3  A    between atoms: C_5  and  C_6 
REMARK       I    between atoms: C_12  and  N_14 
REMARK    4  A    between atoms: N_14  and  C_15 
REMARK    5  A    between atoms: C_18  and  C_21 
ROOT
HETATM    1  N   UNL     1      26.624  45.189  53.307  1.00  0.00    -0.326 N 
HETATM    2  C   UNL     1      26.654  44.359  52.178  1.00  0.00     0.323 C 
HETATM    3  O   UNL     1      26.699  44.815  51.040  1.00  0.00    -0.247 OA
HETATM    4  N   UNL     1      26.610  43.010  52.463  1.00  0.00    -0.309 N 
HETATM    5  H   UNL     1      26.188  42.762  53.345  1.00  0.00     0.170 HD
ENDROOT
BRANCH   4   6
HETATM    6  C   UNL     1      26.821  41.941  51.569  1.00  0.00     0.036 A 
HETATM    7  C   UNL     1      25.868  41.492  50.657  1.00  0.00     0.030 A 
HETATM    8  C   UNL     1      26.158  40.433  49.787  1.00  0.00     0.014 A 
HETATM    9  C   UNL     1      27.409  39.806  49.807  1.00  0.00    -0.023 A 
HETATM   10  C   UNL     1      28.369  40.270  50.714  1.00  0.00     0.014 A 
HETATM   11  C   UNL     1      28.079  41.328  51.584  1.00  0.00     0.030 A 
BRANCH   9  12
HETATM   12  C   UNL     1      27.718  38.707  48.908  1.00  0.00     0.010 A 
HETATM   13  C   UNL     1      28.327  38.697  47.630  1.00  0.00     0.152 A 
HETATM   14  N   UNL     1      28.454  37.466  47.125  1.00  0.00    -0.187 NA
HETATM   15  N   UNL     1      27.928  36.681  48.079  1.00  0.00    -0.289 N 
HETATM   16  H   UNL     1      27.914  35.679  47.924  1.00  0.00     0.188 HD
HETATM   17  C   UNL     1      27.476  37.374  49.165  1.00  0.00     0.123 A 
ENDBRANCH   9  12
ENDBRANCH   4   6
BRANCH   1  18
HETATM   18  C   UNL     1      26.569  46.656  53.142  1.00  0.00     0.081 C 
HETATM   19  C   UNL     1      25.579  47.084  52.056  1.00  0.00     0.032 C 
HETATM   20  C   UNL     1      26.316  47.400  54.456  1.00  0.00     0.032 C 
ENDBRANCH   1  18
BRANCH   1  21
HETATM   21  C   UNL     1      26.876  44.694  54.666  1.00  0.00     0.166 C 
BRANCH  21  22
HETATM   22  C   UNL     1      28.336  44.590  55.054  1.00  0.00    -0.040 A 
HETATM   23  C   UNL     1      29.062  43.463  54.634  1.00  0.00     0.009 A 
HETATM   24  C   UNL     1      30.405  43.303  54.981  1.00  0.00     0.001 A 
HETATM   25  C   UNL     1      31.044  44.268  55.755  1.00  0.00     0.000 A 
HETATM   26  C   UNL     1      30.342  45.393  56.177  1.00  0.00     0.001 A 
HETATM   27  C   UNL     1      29.000  45.554  55.829  1.00  0.00     0.009 A 
ENDBRANCH  21  22
ENDBRANCH   1  21
TORSDOF 5
ENDMDL
MODEL 6
REMARK VINA RESULT:      -8.0      3.738      7.706
REMARK  5 active torsions:
REMARK  status: ('A' for Active; 'I' for Inactive)
REMARK    1  A    between atoms: C_2  and  N_4 
REMARK    2  A    between atoms: N_4  and  C_5 
REMARK       I    between atoms: N_4  and  C_12 
REMARK    3  A    between atoms: C_5  and  C_6 
REMARK       I    between atoms: C_12  and  N_14 
REMARK    4  A    between atoms: N_14  and  C_15 
REMARK    5  A    between atoms: C_18  and  C_21 
ROOT
HETATM    1  N   UNL     1      27.527  45.896  54.619  1.00  0.00    -0.326 N 
HETATM    2  C   UNL     1      27.197  44.745  53.892  1.00  0.00     0.323 C 
HETATM    3  O   UNL     1      26.050  44.525  53.513  1.00  0.00    -0.247 OA
HETATM    4  N   UNL     1      28.257  43.892  53.664  1.00  0.00    -0.309 N 
HETATM    5  H   UNL     1      29.019  43.955  54.322  1.00  0.00     0.170 HD
ENDROOT
BRANCH   4   6
HETATM    6  C   UNL     1      28.285  42.772  52.808  1.00  0.00     0.036 A 
HETATM    7  C   UNL     1      27.862  42.800  51.480  1.00  0.00     0.030 A 
HETATM    8  C   UNL     1      27.937  41.649  50.685  1.00  0.00     0.014 A 
HETATM    9  C   UNL     1      28.442  40.450  51.201  1.00  0.00    -0.023 A 
HETATM   10  C   UNL     1      28.880  40.430  52.529  1.00  0.00     0.014 A 
HETATM   11  C   UNL     1      28.805  41.581  53.325  1.00  0.00     0.030 A 
BRANCH   9  12
HETATM   12  C   UNL     1      28.523  39.251  50.383  1.00  0.00     0.010 A 
HETATM   13  C   UNL     1      27.662  38.755  49.374  1.00  0.00     0.152 A 
HETATM   14  N   UNL     1      28.097  37.612  48.836  1.00  0.00    -0.187 NA
HETATM   15  N   UNL     1      29.240  37.371  49.496  1.00  0.00    -0.289 N 
HETATM   16  H   UNL     1      29.769  36.540  49.255  1.00  0.00     0.188 HD
HETATM   17  C   UNL     1      29.540  38.321  50.429  1.00  0.00     0.123 A 
ENDBRANCH   9  12
ENDBRANCH   4   6
BRANCH   1  18
HETATM   18  C   UNL     1      26.468  46.847  55.015  1.00  0.00     0.081 C 
HETATM   19  C   UNL     1      26.970  47.902  56.004  1.00  0.00     0.032 C 
HETATM   20  C   UNL     1      25.762  47.492  53.820  1.00  0.00     0.032 C 
ENDBRANCH   1  18
BRANCH   1  21
HETATM   21  C   UNL     1      28.911  46.341  54.821  1.00  0.00     0.166 C 
BRANCH  21  22
HETATM   22  C   UNL     1      29.678  45.597  55.896  1.00  0.00    -0.040 A 
HETATM   23  C   UNL     1      29.575  46.047  57.223  1.00  0.00     0.009 A 
HETATM   24  C   UNL     1      30.276  45.413  58.252  1.00  0.00     0.001 A 
HETATM   25  C   UNL     1      31.091  44.321  57.970  1.00  0.00     0.000 A 
HETATM   26  C   UNL     1      31.202  43.859  56.661  1.00  0.00     0.001 A 
HETATM   27  C   UNL     1      30.501  44.491  55.633  1.00  0.00     0.009 A 
ENDBRANCH  21  22
ENDBRANCH   1  21
TORSDOF 5
ENDMDL
MODEL 7
REMARK VINA RESULT:      -7.7      2.235      3.834
REMARK  5 active torsions:
REMARK  status: ('A' for Active; 'I' for Inactive)
REMARK    1  A    between atoms: C_2  and  N_4 
REMARK    2  A    between atoms: N_4  and  C_5 
REMARK       I    between atoms: N_4  and  C_12 
REMARK    3  A    between atoms: C_5  and  C_6 
REMARK       I    between atoms: C_12  and  N_14 
REMARK    4  A    between atoms: N_14  and  C_15 
REMARK    5  A    between atoms: C_18  and  C_21 
ROOT
HETATM    1  N   UNL     1      24.926  43.668  50.809  1.00  0.00    -0.326 N 
HETATM    2  C   UNL     1      25.812  44.274  51.710  1.00  0.00     0.323 C 
HETATM    3  O   UNL     1      25.740  45.468  51.984  1.00  0.00    -0.247 OA
HETATM    4  N   UNL     1      26.762  43.422  52.234  1.00  0.00    -0.309 N 
HETATM    5  H   UNL     1      26.981  42.613  51.673  1.00  0.00     0.170 HD
ENDROOT
BRANCH   4   6
HETATM    6  C   UNL     1      27.651  43.683  53.296  1.00  0.00     0.036 A 
HETATM    7  C   UNL     1      27.547  44.786  54.142  1.00  0.00     0.030 A 
HETATM    8  C   UNL     1      28.459  44.969  55.189  1.00  0.00     0.014 A 
HETATM    9  C   UNL     1      29.489  44.049  55.416  1.00  0.00    -0.023 A 
HETATM   10  C   UNL     1      29.580  42.933  54.575  1.00  0.00     0.014 A 
HETATM   11  C   UNL     1      28.669  42.752  53.527  1.00  0.00     0.030 A 
BRANCH   9  12
HETATM   12  C   UNL     1      30.439  44.230  56.500  1.00  0.00     0.010 A 
HETATM   13  C   UNL     1      31.546  43.446  56.906  1.00  0.00     0.152 A 
HETATM   14  N   UNL     1      32.193  43.963  57.954  1.00  0.00    -0.187 NA
HETATM   15  N   UNL     1      31.504  45.083  58.225  1.00  0.00    -0.289 N 
HETATM   16  H   UNL     1      31.814  45.664  58.996  1.00  0.00     0.188 HD
HETATM   17  C   UNL     1      30.449  45.289  57.385  1.00  0.00     0.123 A 
ENDBRANCH   9  12
ENDBRANCH   4   6
BRANCH   1  18
HETATM   18  C   UNL     1      23.919  44.486  50.103  1.00  0.00     0.081 C 
HETATM   19  C   UNL     1      24.421  44.985  48.746  1.00  0.00     0.032 C 
HETATM   20  C   UNL     1      22.561  43.790  49.976  1.00  0.00     0.032 C 
ENDBRANCH   1  18
BRANCH   1  21
HETATM   21  C   UNL     1      24.784  42.212  50.690  1.00  0.00     0.166 C 
BRANCH  21  22
HETATM   22  C   UNL     1      25.918  41.510  49.971  1.00  0.00    -0.040 A 
HETATM   23  C   UNL     1      26.448  40.339  50.541  1.00  0.00     0.009 A 
HETATM   24  C   UNL     1      27.508  39.662  49.934  1.00  0.00     0.001 A 
HETATM   25  C   UNL     1      28.056  40.145  48.748  1.00  0.00     0.000 A 
HETATM   26  C   UNL     1      27.541  41.300  48.168  1.00  0.00     0.001 A 
HETATM   27  C   UNL     1      26.481  41.977  48.774  1.00  0.00     0.009 A 
ENDBRANCH  21  22
ENDBRANCH   1  21
TORSDOF 5
ENDMDL
MODEL 8
REMARK VINA RESULT:      -7.7      6.747      9.888
REMARK  5 active torsions:
REMARK  status: ('A' for Active; 'I' for Inactive)
REMARK    1  A    between atoms: C_2  and  N_4 
REMARK    2  A    between atoms: N_4  and  C_5 
REMARK       I    between atoms: N_4  and  C_12 
REMARK    3  A    between atoms: C_5  and  C_6 
REMARK       I    between atoms: C_12  and  N_14 
REMARK    4  A    between atoms: N_14  and  C_15 
REMARK    5  A    between atoms: C_18  and  C_21 
ROOT
HETATM    1  N   UNL     1      18.055  49.312  46.944  1.00  0.00    -0.326 N 
HETATM    2  C   UNL     1      19.285  48.783  47.360  1.00  0.00     0.323 C 
HETATM    3  O   UNL     1      19.520  47.579  47.316  1.00  0.00    -0.247 OA
HETATM    4  N   UNL     1      20.179  49.723  47.829  1.00  0.00    -0.309 N 
HETATM    5  H   UNL     1      19.772  50.574  48.186  1.00  0.00     0.170 HD
ENDROOT
BRANCH   4   6
HETATM    6  C   UNL     1      21.543  49.531  48.127  1.00  0.00     0.036 A 
HETATM    7  C   UNL     1      22.043  48.407  48.783  1.00  0.00     0.030 A 
HETATM    8  C   UNL     1      23.416  48.279  49.028  1.00  0.00     0.014 A 
HETATM    9  C   UNL     1      24.317  49.268  48.616  1.00  0.00    -0.023 A 
HETATM   10  C   UNL     1      23.813  50.386  47.943  1.00  0.00     0.014 A 
HETATM   11  C   UNL     1      22.440  50.515  47.699  1.00  0.00     0.030 A 
BRANCH   9  12
HETATM   12  C   UNL     1      25.743  49.142  48.866  1.00  0.00     0.010 A 
HETATM   13  C   UNL     1      26.831  49.955  48.465  1.00  0.00     0.152 A 
HETATM   14  N   UNL     1      28.007  49.508  48.916  1.00  0.00    -0.187 NA
HETATM   15  N   UNL     1      27.678  48.408  49.610  1.00  0.00    -0.289 N 
HETATM   16  H   UNL     1      28.420  47.884  50.062  1.00  0.00     0.188 HD
HETATM   17  C   UNL     1      26.338  48.146  49.613  1.00  0.00     0.123 A 
ENDBRANCH   9  12
ENDBRANCH   4   6
BRANCH   1  18
HETATM   18  C   UNL     1      16.972  48.406  46.509  1.00  0.00     0.081 C 
HETATM   19  C   UNL     1      16.047  48.007  47.661  1.00  0.00     0.032 C 
HETATM   20  C   UNL     1      16.180  48.946  45.316  1.00  0.00     0.032 C 
ENDBRANCH   1  18
BRANCH   1  21
HETATM   21  C   UNL     1      17.848  50.743  46.696  1.00  0.00     0.166 C 
BRANCH  21  22
HETATM   22  C   UNL     1      17.248  51.519  47.850  1.00  0.00    -0.040 A 
HETATM   23  C   UNL     1      15.858  51.725  47.867  1.00  0.00     0.009 A 
HETATM   24  C   UNL     1      15.252  52.451  48.895  1.00  0.00     0.001 A 
HETATM   25  C   UNL     1      16.027  52.983  49.923  1.00  0.00     0.000 A 
HETATM   26  C   UNL     1      17.405  52.785  49.924  1.00  0.00     0.001 A 
HETATM   27  C   UNL     1      18.010  52.059  48.898  1.00  0.00     0.009 A 
ENDBRANCH  21  22
ENDBRANCH   1  21
TORSDOF 5
ENDMDL
MODEL 9
REMARK VINA RESULT:      -7.6      3.530      5.994
REMARK  5 active torsions:
REMARK  status: ('A' for Active; 'I' for Inactive)
REMARK    1  A    between atoms: C_2  and  N_4 
REMARK    2  A    between atoms: N_4  and  C_5 
REMARK       I    between atoms: N_4  and  C_12 
REMARK    3  A    between atoms: C_5  and  C_6 
REMARK       I    between atoms: C_12  and  N_14 
REMARK    4  A    between atoms: N_14  and  C_15 
REMARK    5  A    between atoms: C_18  and  C_21 
ROOT
HETATM    1  N   UNL     1      22.633  48.541  49.192  1.00  0.00    -0.326 N 
HETATM    2  C   UNL     1      23.847  47.988  49.622  1.00  0.00     0.323 C 
HETATM    3  O   UNL     1      24.823  48.687  49.875  1.00  0.00    -0.247 OA
HETATM    4  N   UNL     1      23.844  46.612  49.714  1.00  0.00    -0.309 N 
HETATM    5  H   UNL     1      23.173  46.135  49.131  1.00  0.00     0.170 HD
ENDROOT
BRANCH   4   6
HETATM    6  C   UNL     1      24.832  45.792  50.297  1.00  0.00     0.036 A 
HETATM    7  C   UNL     1      24.718  45.223  51.564  1.00  0.00     0.030 A 
HETATM    8  C   UNL     1      25.735  44.403  52.070  1.00  0.00     0.014 A 
HETATM    9  C   UNL     1      26.883  44.131  51.316  1.00  0.00    -0.023 A 
HETATM   10  C   UNL     1      26.986  44.691  50.037  1.00  0.00     0.014 A 
HETATM   11  C   UNL     1      25.969  45.511  49.532  1.00  0.00     0.030 A 
BRANCH   9  12
HETATM   12  C   UNL     1      27.942  43.281  51.832  1.00  0.00     0.010 A 
HETATM   13  C   UNL     1      29.023  43.569  52.700  1.00  0.00     0.152 A 
HETATM   14  N   UNL     1      29.783  42.500  52.957  1.00  0.00    -0.187 NA
HETATM   15  N   UNL     1      29.190  41.520  52.256  1.00  0.00    -0.289 N 
HETATM   16  H   UNL     1      29.591  40.589  52.296  1.00  0.00     0.188 HD
HETATM   17  C   UNL     1      28.086  41.934  51.569  1.00  0.00     0.123 A 
ENDBRANCH   9  12
ENDBRANCH   4   6
BRANCH   1  18
HETATM   18  C   UNL     1      22.527  49.996  48.959  1.00  0.00     0.081 C 
HETATM   19  C   UNL     1      22.839  50.379  47.510  1.00  0.00     0.032 C 
HETATM   20  C   UNL     1      21.190  50.583  49.418  1.00  0.00     0.032 C 
ENDBRANCH   1  18
BRANCH   1  21
HETATM   21  C   UNL     1      21.376  47.784  49.175  1.00  0.00     0.166 C 
BRANCH  21  22
HETATM   22  C   UNL     1      20.883  47.381  47.800  1.00  0.00    -0.040 A 
HETATM   23  C   UNL     1      21.633  46.444  47.070  1.00  0.00     0.009 A 
HETATM   24  C   UNL     1      21.239  46.051  45.788  1.00  0.00     0.001 A 
HETATM   25  C   UNL     1      20.090  46.591  45.217  1.00  0.00     0.000 A 
HETATM   26  C   UNL     1      19.333  47.518  45.927  1.00  0.00     0.001 A 
HETATM   27  C   UNL     1      19.726  47.910  47.208  1.00  0.00     0.009 A 
ENDBRANCH  21  22
ENDBRANCH   1  21
TORSDOF 5
ENDMDL
MODEL 10
REMARK VINA RESULT:      -7.6     12.331     16.222
REMARK  5 active torsions:
REMARK  status: ('A' for Active; 'I' for Inactive)
REMARK    1  A    between atoms: C_2  and  N_4 
REMARK    2  A    between atoms: N_4  and  C_5 
REMARK       I    between atoms: N_4  and  C_12 
REMARK    3  A    between atoms: C_5  and  C_6 
REMARK       I    between atoms: C_12  and  N_14 
REMARK    4  A    between atoms: N_14  and  C_15 
REMARK    5  A    between atoms: C_18  and  C_21 
ROOT
HETATM    1  N   UNL     1      38.337  53.489  43.673  1.00  0.00    -0.326 N 
HETATM    2  C   UNL     1      37.048  53.273  43.169  1.00  0.00     0.323 C 
HETATM    3  O   UNL     1      36.608  53.914  42.219  1.00  0.00    -0.247 OA
HETATM    4  N   UNL     1      36.329  52.304  43.839  1.00  0.00    -0.309 N 
HETATM    5  H   UNL     1      36.606  52.138  44.795  1.00  0.00     0.170 HD
ENDROOT
BRANCH   4   6
HETATM    6  C   UNL     1      35.101  51.731  43.453  1.00  0.00     0.036 A 
HETATM    7  C   UNL     1      34.957  50.857  42.377  1.00  0.00     0.030 A 
HETATM    8  C   UNL     1      33.705  50.312  42.065  1.00  0.00     0.014 A 
HETATM    9  C   UNL     1      32.574  50.625  42.827  1.00  0.00    -0.023 A 
HETATM   10  C   UNL     1      32.725  51.489  43.917  1.00  0.00     0.014 A 
HETATM   11  C   UNL     1      33.977  52.035  44.229  1.00  0.00     0.030 A 
BRANCH   9  12
HETATM   12  C   UNL     1      31.271  50.063  42.511  1.00  0.00     0.010 A 
HETATM   13  C   UNL     1      30.157  50.624  41.841  1.00  0.00     0.152 A 
HETATM   14  N   UNL     1      29.134  49.771  41.731  1.00  0.00    -0.187 NA
HETATM   15  N   UNL     1      29.589  48.658  42.328  1.00  0.00    -0.289 N 
HETATM   16  H   UNL     1      28.979  47.849  42.367  1.00  0.00     0.188 HD
HETATM   17  C   UNL     1      30.861  48.781  42.809  1.00  0.00     0.123 A 
ENDBRANCH   9  12
ENDBRANCH   4   6
BRANCH   1  18
HETATM   18  C   UNL     1      39.179  54.564  43.108  1.00  0.00     0.081 C 
HETATM   19  C   UNL     1      39.138  55.841  43.952  1.00  0.00     0.032 C 
HETATM   20  C   UNL     1      40.618  54.120  42.835  1.00  0.00     0.032 C 
ENDBRANCH   1  18
BRANCH   1  21
HETATM   21  C   UNL     1      39.001  52.553  44.589  1.00  0.00     0.166 C 
BRANCH  21  22
HETATM   22  C   UNL     1      39.214  53.070  45.997  1.00  0.00    -0.040 A 
HETATM   23  C   UNL     1      40.529  53.318  46.427  1.00  0.00     0.009 A 
HETATM   24  C   UNL     1      40.787  53.774  47.721  1.00  0.00     0.001 A 
HETATM   25  C   UNL     1      39.734  53.990  48.607  1.00  0.00     0.000 A 
HETATM   26  C   UNL     1      38.425  53.753  48.197  1.00  0.00     0.001 A 
HETATM   27  C   UNL     1      38.167  53.298  46.903  1.00  0.00     0.009 A 
ENDBRANCH  21  22
ENDBRANCH   1  21
TORSDOF 5
ENDMDL
