MODEL 1
REMARK VINA RESULT:      -8.9      0.000      0.000
REMARK  7 active torsions:
REMARK  status: ('A' for Active; 'I' for Inactive)
REMARK    1  A    between atoms: C_6  and  N_7 
REMARK       I    between atoms: N_7  and  C_8 
REMARK       I    between atoms: C_8  and  N_9 
REMARK    2  A    between atoms: N_9  and  C_10 
REMARK    3  A    between atoms: C_10  and  C_11 
REMARK    4  A    between atoms: C_11  and  O_12 
REMARK    5  A    between atoms: C_11  and  C_13 
REMARK    6  A    between atoms: C_13  and  N_14 
REMARK       I    between atoms: N_14  and  C_15 
REMARK       I    between atoms: C_15  and  N_16 
REMARK    7  A    between atoms: N_16  and  C_17 
ROOT
HETATM    1  C   UNL     1      24.685  46.695  50.239  1.00  0.00     0.153 C 
ENDROOT
BRANCH   1   2
HETATM    2  C   UNL     1      23.546  47.114  49.291  1.00  0.00     0.157 C 
BRANCH   2   3
HETATM    3  N   UNL     1      23.006  48.423  49.621  1.00  0.00    -0.340 N 
HETATM    4  C   UNL     1      21.725  48.783  49.271  1.00  0.00     0.320 C 
HETATM    5  N   UNL     1      21.355  49.956  49.889  1.00  0.00    -0.306 N 
HETATM    6  O   UNL     1      21.030  48.094  48.537  1.00  0.00    -0.247 OA
HETATM    7  H   UNL     1      21.837  50.125  50.758  1.00  0.00     0.171 HD
HETATM    8  H   UNL     1      23.385  48.816  50.471  1.00  0.00     0.164 HD
BRANCH   5   9
HETATM    9  C   UNL     1      20.112  50.613  49.730  1.00  0.00     0.077 A 
HETATM   10  C   UNL     1      18.896  50.300  50.349  1.00  0.00     0.152 A 
HETATM   11  N   UNL     1      17.744  50.994  50.150  1.00  0.00    -0.247 NA
HETATM   12 CL   UNL     1      18.596  48.853  51.237  1.00  0.00    -0.060 Cl
HETATM   13  C   UNL     1      17.790  52.036  49.297  1.00  0.00     0.118 A 
HETATM   14  C   UNL     1      18.925  52.403  48.600  1.00  0.00     0.022 A 
HETATM   15  C   UNL     1      20.094  51.676  48.814  1.00  0.00     0.034 A 
ENDBRANCH   5   9
ENDBRANCH   2   3
ENDBRANCH   1   2
BRANCH   1  16
HETATM   16  O   UNL     1      24.706  47.615  51.343  1.00  0.00    -0.392 OA
HETATM   17  H   UNL     1      25.006  48.487  51.003  1.00  0.00     0.210 HD
ENDBRANCH   1  16
BRANCH   1  18
HETATM   18  C   UNL     1      24.557  45.229  50.698  1.00  0.00     0.157 C 
BRANCH  18  19
HETATM   19  N   UNL     1      25.040  45.025  52.062  1.00  0.00    -0.340 N 
HETATM   20  C   UNL     1      26.370  44.785  52.320  1.00  0.00     0.320 C 
HETATM   21  N   UNL     1      26.606  44.735  53.673  1.00  0.00    -0.306 N 
HETATM   22  O   UNL     1      27.196  44.691  51.423  1.00  0.00    -0.247 OA
HETATM   23  H   UNL     1      25.969  45.315  54.199  1.00  0.00     0.171 HD
HETATM   24  H   UNL     1      24.375  44.702  52.750  1.00  0.00     0.164 HD
BRANCH  21  25
HETATM   25  C   UNL     1      27.867  44.487  54.269  1.00  0.00     0.077 A 
HETATM   26  C   UNL     1      28.658  45.389  54.993  1.00  0.00     0.152 A 
HETATM   27 CL   UNL     1      28.378  47.089  55.065  1.00  0.00    -0.060 Cl
HETATM   28  N   UNL     1      29.851  45.068  55.557  1.00  0.00    -0.247 NA
HETATM   29  C   UNL     1      30.292  43.806  55.392  1.00  0.00     0.118 A 
HETATM   30  C   UNL     1      29.614  42.851  54.656  1.00  0.00     0.022 A 
HETATM   31  C   UNL     1      28.394  43.202  54.083  1.00  0.00     0.034 A 
ENDBRANCH  21  25
ENDBRANCH  18  19
ENDBRANCH   1  18
TORSDOF 7
ENDMDL
MODEL 2
REMARK VINA RESULT:      -8.7      0.502     10.511
REMARK  7 active torsions:
REMARK  status: ('A' for Active; 'I' for Inactive)
REMARK    1  A    between atoms: C_6  and  N_7 
REMARK       I    between atoms: N_7  and  C_8 
REMARK       I    between atoms: C_8  and  N_9 
REMARK    2  A    between atoms: N_9  and  C_10 
REMARK    3  A    between atoms: C_10  and  C_11 
REMARK    4  A    between atoms: C_11  and  O_12 
REMARK    5  A    between atoms: C_11  and  C_13 
REMARK    6  A    between atoms: C_13  and  N_14 
REMARK       I    between atoms: N_14  and  C_15 
REMARK       I    between atoms: C_15  and  N_16 
REMARK    7  A    between atoms: N_16  and  C_17 
ROOT
HETATM    1  C   UNL     1      24.691  46.482  50.223  1.00  0.00     0.153 C 
ENDROOT
BRANCH   1   2
HETATM    2  C   UNL     1      24.545  45.008  50.645  1.00  0.00     0.157 C 
BRANCH   2   3
HETATM    3  N   UNL     1      25.004  44.775  52.005  1.00  0.00    -0.340 N 
HETATM    4  C   UNL     1      26.342  44.656  52.303  1.00  0.00     0.320 C 
HETATM    5  N   UNL     1      26.550  44.682  53.664  1.00  0.00    -0.306 N 
HETATM    6  O   UNL     1      27.202  44.584  51.435  1.00  0.00    -0.247 OA
HETATM    7  H   UNL     1      25.837  45.182  54.173  1.00  0.00     0.171 HD
HETATM    8  H   UNL     1      24.403  45.176  52.711  1.00  0.00     0.164 HD
BRANCH   5   9
HETATM    9  C   UNL     1      27.805  44.561  54.307  1.00  0.00     0.077 A 
HETATM   10  C   UNL     1      28.505  45.554  55.004  1.00  0.00     0.152 A 
HETATM   11  N   UNL     1      29.706  45.351  55.608  1.00  0.00    -0.247 NA
HETATM   12 CL   UNL     1      28.102  47.229  54.984  1.00  0.00    -0.060 Cl
HETATM   13  C   UNL     1      30.245  44.120  55.513  1.00  0.00     0.118 A 
HETATM   14  C   UNL     1      29.660  43.082  54.812  1.00  0.00     0.022 A 
HETATM   15  C   UNL     1      28.432  43.312  54.197  1.00  0.00     0.034 A 
ENDBRANCH   5   9
ENDBRANCH   2   3
ENDBRANCH   1   2
BRANCH   1  16
HETATM   16  O   UNL     1      25.983  46.645  49.615  1.00  0.00    -0.392 OA
HETATM   17  H   UNL     1      26.081  47.589  49.361  1.00  0.00     0.210 HD
ENDBRANCH   1  16
BRANCH   1  18
HETATM   18  C   UNL     1      23.546  46.945  49.302  1.00  0.00     0.157 C 
BRANCH  18  19
HETATM   19  N   UNL     1      23.037  48.266  49.661  1.00  0.00    -0.340 N 
HETATM   20  C   UNL     1      21.757  48.651  49.337  1.00  0.00     0.320 C 
HETATM   21  N   UNL     1      21.465  49.883  49.869  1.00  0.00    -0.306 N 
HETATM   22  O   UNL     1      21.004  47.924  48.703  1.00  0.00    -0.247 OA
HETATM   23  H   UNL     1      21.967  50.065  50.726  1.00  0.00     0.171 HD
HETATM   24  H   UNL     1      23.712  49.003  49.808  1.00  0.00     0.164 HD
BRANCH  21  25
HETATM   25  C   UNL     1      20.236  50.569  49.704  1.00  0.00     0.077 A 
HETATM   26  C   UNL     1      19.022  50.306  50.353  1.00  0.00     0.152 A 
HETATM   27 CL   UNL     1      18.704  48.894  51.290  1.00  0.00    -0.060 Cl
HETATM   28  N   UNL     1      17.887  51.027  50.158  1.00  0.00    -0.247 NA
HETATM   29  C   UNL     1      17.945  52.044  49.277  1.00  0.00     0.118 A 
HETATM   30  C   UNL     1      19.077  52.359  48.549  1.00  0.00     0.022 A 
HETATM   31  C   UNL     1      20.230  51.605  48.761  1.00  0.00     0.034 A 
ENDBRANCH  21  25
ENDBRANCH  18  19
ENDBRANCH   1  18
TORSDOF 7
ENDMDL
MODEL 3
REMARK VINA RESULT:      -8.5      4.053     10.027
REMARK  7 active torsions:
REMARK  status: ('A' for Active; 'I' for Inactive)
REMARK    1  A    between atoms: C_6  and  N_7 
REMARK       I    between atoms: N_7  and  C_8 
REMARK       I    between atoms: C_8  and  N_9 
REMARK    2  A    between atoms: N_9  and  C_10 
REMARK    3  A    between atoms: C_10  and  C_11 
REMARK    4  A    between atoms: C_11  and  O_12 
REMARK    5  A    between atoms: C_11  and  C_13 
REMARK    6  A    between atoms: C_13  and  N_14 
REMARK       I    between atoms: N_14  and  C_15 
REMARK       I    between atoms: C_15  and  N_16 
REMARK    7  A    between atoms: N_16  and  C_17 
ROOT
HETATM    1  C   UNL     1      28.061  41.338  50.939  1.00  0.00     0.153 C 
ENDROOT
BRANCH   1   2
HETATM    2  C   UNL     1      28.756  40.811  52.208  1.00  0.00     0.157 C 
BRANCH   2   3
HETATM    3  N   UNL     1      29.645  41.797  52.800  1.00  0.00    -0.340 N 
HETATM    4  C   UNL     1      29.313  42.463  53.957  1.00  0.00     0.320 C 
HETATM    5  N   UNL     1      30.393  43.157  54.455  1.00  0.00    -0.306 N 
HETATM    6  O   UNL     1      28.202  42.383  54.462  1.00  0.00    -0.247 OA
HETATM    7  H   UNL     1      31.283  42.762  54.194  1.00  0.00     0.171 HD
HETATM    8  H   UNL     1      30.624  41.613  52.633  1.00  0.00     0.164 HD
BRANCH   5   9
HETATM    9  C   UNL     1      30.388  43.963  55.619  1.00  0.00     0.077 A 
HETATM   10  C   UNL     1      29.596  45.089  55.872  1.00  0.00     0.152 A 
HETATM   11  N   UNL     1      29.643  45.803  57.029  1.00  0.00    -0.247 NA
HETATM   12 CL   UNL     1      28.646  45.902  54.686  1.00  0.00    -0.060 Cl
HETATM   13  C   UNL     1      30.514  45.395  57.971  1.00  0.00     0.118 A 
HETATM   14  C   UNL     1      31.372  44.324  57.806  1.00  0.00     0.022 A 
HETATM   15  C   UNL     1      31.312  43.609  56.613  1.00  0.00     0.034 A 
ENDBRANCH   5   9
ENDBRANCH   2   3
ENDBRANCH   1   2
BRANCH   1  16
HETATM   16  O   UNL     1      28.697  40.733  49.800  1.00  0.00    -0.392 OA
HETATM   17  H   UNL     1      28.045  40.712  49.065  1.00  0.00     0.210 HD
ENDBRANCH   1  16
BRANCH   1  18
HETATM   18  C   UNL     1      26.539  41.098  50.958  1.00  0.00     0.157 C 
BRANCH  18  19
HETATM   19  N   UNL     1      25.792  42.272  51.401  1.00  0.00    -0.340 N 
HETATM   20  C   UNL     1      25.673  43.386  50.603  1.00  0.00     0.320 C 
HETATM   21  N   UNL     1      24.840  44.315  51.178  1.00  0.00    -0.306 N 
HETATM   22  O   UNL     1      26.219  43.459  49.511  1.00  0.00    -0.247 OA
HETATM   23  H   UNL     1      24.131  43.893  51.759  1.00  0.00     0.171 HD
HETATM   24  H   UNL     1      25.683  42.408  52.396  1.00  0.00     0.164 HD
BRANCH  21  25
HETATM   25  C   UNL     1      24.524  45.578  50.620  1.00  0.00     0.077 A 
HETATM   26  C   UNL     1      25.032  46.827  51.001  1.00  0.00     0.152 A 
HETATM   27 CL   UNL     1      25.949  47.110  52.433  1.00  0.00    -0.060 Cl
HETATM   28  N   UNL     1      24.696  47.998  50.398  1.00  0.00    -0.247 NA
HETATM   29  C   UNL     1      23.812  47.939  49.385  1.00  0.00     0.118 A 
HETATM   30  C   UNL     1      23.213  46.767  48.961  1.00  0.00     0.022 A 
HETATM   31  C   UNL     1      23.569  45.577  49.594  1.00  0.00     0.034 A 
ENDBRANCH  21  25
ENDBRANCH  18  19
ENDBRANCH   1  18
TORSDOF 7
ENDMDL
MODEL 4
REMARK VINA RESULT:      -8.5      2.757      3.800
REMARK  7 active torsions:
REMARK  status: ('A' for Active; 'I' for Inactive)
REMARK    1  A    between atoms: C_6  and  N_7 
REMARK       I    between atoms: N_7  and  C_8 
REMARK       I    between atoms: C_8  and  N_9 
REMARK    2  A    between atoms: N_9  and  C_10 
REMARK    3  A    between atoms: C_10  and  C_11 
REMARK    4  A    between atoms: C_11  and  O_12 
REMARK    5  A    between atoms: C_11  and  C_13 
REMARK    6  A    between atoms: C_13  and  N_14 
REMARK       I    between atoms: N_14  and  C_15 
REMARK       I    between atoms: C_15  and  N_16 
REMARK    7  A    between atoms: N_16  and  C_17 
ROOT
HETATM    1  C   UNL     1      26.155  43.518  50.589  1.00  0.00     0.153 C 
ENDROOT
BRANCH   1   2
HETATM    2  C   UNL     1      25.765  44.946  51.013  1.00  0.00     0.157 C 
BRANCH   2   3
HETATM    3  N   UNL     1      24.797  45.546  50.108  1.00  0.00    -0.340 N 
HETATM    4  C   UNL     1      24.473  46.881  50.182  1.00  0.00     0.320 C 
HETATM    5  N   UNL     1      23.731  47.270  49.090  1.00  0.00    -0.306 N 
HETATM    6  O   UNL     1      24.855  47.597  51.098  1.00  0.00    -0.247 OA
HETATM    7  H   UNL     1      23.896  46.711  48.268  1.00  0.00     0.171 HD
HETATM    8  H   UNL     1      24.766  45.108  49.199  1.00  0.00     0.164 HD
BRANCH   5   9
HETATM    9  C   UNL     1      23.218  48.571  48.865  1.00  0.00     0.077 A 
HETATM   10  C   UNL     1      23.923  49.704  48.444  1.00  0.00     0.152 A 
HETATM   11  N   UNL     1      23.350  50.920  48.238  1.00  0.00    -0.247 NA
HETATM   12 CL   UNL     1      25.642  49.816  48.378  1.00  0.00    -0.060 Cl
HETATM   13  C   UNL     1      22.026  51.024  48.466  1.00  0.00     0.118 A 
HETATM   14  C   UNL     1      21.245  49.981  48.926  1.00  0.00     0.022 A 
HETATM   15  C   UNL     1      21.853  48.746  49.136  1.00  0.00     0.034 A 
ENDBRANCH   5   9
ENDBRANCH   2   3
ENDBRANCH   1   2
BRANCH   1  16
HETATM   16  O   UNL     1      27.059  43.617  49.475  1.00  0.00    -0.392 OA
HETATM   17  H   UNL     1      27.975  43.532  49.820  1.00  0.00     0.210 HD
ENDBRANCH   1  16
BRANCH   1  18
HETATM   18  C   UNL     1      26.745  42.700  51.753  1.00  0.00     0.157 C 
BRANCH  18  19
HETATM   19  N   UNL     1      27.974  43.284  52.284  1.00  0.00    -0.340 N 
HETATM   20  C   UNL     1      28.170  43.426  53.638  1.00  0.00     0.320 C 
HETATM   21  N   UNL     1      29.434  43.894  53.905  1.00  0.00    -0.306 N 
HETATM   22  O   UNL     1      27.314  43.110  54.452  1.00  0.00    -0.247 OA
HETATM   23  H   UNL     1      30.108  43.610  53.209  1.00  0.00     0.171 HD
HETATM   24  H   UNL     1      28.498  43.900  51.679  1.00  0.00     0.164 HD
BRANCH  21  25
HETATM   25  C   UNL     1      29.944  44.166  55.199  1.00  0.00     0.077 A 
HETATM   26  C   UNL     1      29.654  45.269  56.013  1.00  0.00     0.152 A 
HETATM   27 CL   UNL     1      28.819  46.680  55.480  1.00  0.00    -0.060 Cl
HETATM   28  N   UNL     1      30.167  45.448  57.258  1.00  0.00    -0.247 NA
HETATM   29  C   UNL     1      31.014  44.506  57.718  1.00  0.00     0.118 A 
HETATM   30  C   UNL     1      31.405  43.405  56.979  1.00  0.00     0.022 A 
HETATM   31  C   UNL     1      30.869  43.242  55.702  1.00  0.00     0.034 A 
ENDBRANCH  21  25
ENDBRANCH  18  19
ENDBRANCH   1  18
TORSDOF 7
ENDMDL
MODEL 5
REMARK VINA RESULT:      -8.3      1.483      1.616
REMARK  7 active torsions:
REMARK  status: ('A' for Active; 'I' for Inactive)
REMARK    1  A    between atoms: C_6  and  N_7 
REMARK       I    between atoms: N_7  and  C_8 
REMARK       I    between atoms: C_8  and  N_9 
REMARK    2  A    between atoms: N_9  and  C_10 
REMARK    3  A    between atoms: C_10  and  C_11 
REMARK    4  A    between atoms: C_11  and  O_12 
REMARK    5  A    between atoms: C_11  and  C_13 
REMARK    6  A    between atoms: C_13  and  N_14 
REMARK       I    between atoms: N_14  and  C_15 
REMARK       I    between atoms: C_15  and  N_16 
REMARK    7  A    between atoms: N_16  and  C_17 
ROOT
HETATM    1  C   UNL     1      23.037  44.779  49.789  1.00  0.00     0.153 C 
ENDROOT
BRANCH   1   2
HETATM    2  C   UNL     1      22.916  45.813  48.654  1.00  0.00     0.157 C 
BRANCH   2   3
HETATM    3  N   UNL     1      22.711  47.163  49.156  1.00  0.00    -0.340 N 
HETATM    4  C   UNL     1      21.543  47.849  48.918  1.00  0.00     0.320 C 
HETATM    5  N   UNL     1      21.478  48.993  49.682  1.00  0.00    -0.306 N 
HETATM    6  O   UNL     1      20.684  47.434  48.152  1.00  0.00    -0.247 OA
HETATM    7  H   UNL     1      22.010  48.940  50.536  1.00  0.00     0.171 HD
HETATM    8  H   UNL     1      23.195  47.351  50.022  1.00  0.00     0.164 HD
BRANCH   5   9
HETATM    9  C   UNL     1      20.422  49.936  49.664  1.00  0.00     0.077 A 
HETATM   10  C   UNL     1      19.212  49.873  50.364  1.00  0.00     0.152 A 
HETATM   11  N   UNL     1      18.250  50.833  50.302  1.00  0.00    -0.247 NA
HETATM   12 CL   UNL     1      18.633  48.477  51.192  1.00  0.00    -0.060 Cl
HETATM   13  C   UNL     1      18.488  51.894  49.508  1.00  0.00     0.118 A 
HETATM   14  C   UNL     1      19.629  52.033  48.739  1.00  0.00     0.022 A 
HETATM   15  C   UNL     1      20.599  51.037  48.813  1.00  0.00     0.034 A 
ENDBRANCH   5   9
ENDBRANCH   2   3
ENDBRANCH   1   2
BRANCH   1  16
HETATM   16  O   UNL     1      21.775  44.103  49.912  1.00  0.00    -0.392 OA
HETATM   17  H   UNL     1      21.682  43.494  49.147  1.00  0.00     0.210 HD
ENDBRANCH   1  16
BRANCH   1  18
HETATM   18  C   UNL     1      24.208  43.801  49.570  1.00  0.00     0.157 C 
BRANCH  18  19
HETATM   19  N   UNL     1      24.756  43.293  50.825  1.00  0.00    -0.340 N 
HETATM   20  C   UNL     1      25.928  43.790  51.346  1.00  0.00     0.320 C 
HETATM   21  N   UNL     1      26.188  43.244  52.580  1.00  0.00    -0.306 N 
HETATM   22  O   UNL     1      26.581  44.646  50.766  1.00  0.00    -0.247 OA
HETATM   23  H   UNL     1      25.346  42.995  53.079  1.00  0.00     0.171 HD
HETATM   24  H   UNL     1      24.489  42.361  51.109  1.00  0.00     0.164 HD
BRANCH  21  25
HETATM   25  C   UNL     1      27.326  43.533  53.373  1.00  0.00     0.077 A 
HETATM   26  C   UNL     1      27.545  44.670  54.163  1.00  0.00     0.152 A 
HETATM   27 CL   UNL     1      26.578  46.096  54.108  1.00  0.00    -0.060 Cl
HETATM   28  N   UNL     1      28.658  44.864  54.918  1.00  0.00    -0.247 NA
HETATM   29  C   UNL     1      29.602  43.905  54.885  1.00  0.00     0.118 A 
HETATM   30  C   UNL     1      29.508  42.769  54.103  1.00  0.00     0.022 A 
HETATM   31  C   UNL     1      28.360  42.589  53.333  1.00  0.00     0.034 A 
ENDBRANCH  21  25
ENDBRANCH  18  19
ENDBRANCH   1  18
TORSDOF 7
ENDMDL
MODEL 6
REMARK VINA RESULT:      -8.1      2.228      3.108
REMARK  7 active torsions:
REMARK  status: ('A' for Active; 'I' for Inactive)
REMARK    1  A    between atoms: C_6  and  N_7 
REMARK       I    between atoms: N_7  and  C_8 
REMARK       I    between atoms: C_8  and  N_9 
REMARK    2  A    between atoms: N_9  and  C_10 
REMARK    3  A    between atoms: C_10  and  C_11 
REMARK    4  A    between atoms: C_11  and  O_12 
REMARK    5  A    between atoms: C_11  and  C_13 
REMARK    6  A    between atoms: C_13  and  N_14 
REMARK       I    between atoms: N_14  and  C_15 
REMARK       I    between atoms: C_15  and  N_16 
REMARK    7  A    between atoms: N_16  and  C_17 
ROOT
HETATM    1  C   UNL     1      25.577  43.542  49.743  1.00  0.00     0.153 C 
ENDROOT
BRANCH   1   2
HETATM    2  C   UNL     1      24.698  44.339  50.725  1.00  0.00     0.157 C 
BRANCH   2   3
HETATM    3  N   UNL     1      23.734  45.187  50.041  1.00  0.00    -0.340 N 
HETATM    4  C   UNL     1      23.850  46.557  50.045  1.00  0.00     0.320 C 
HETATM    5  N   UNL     1      22.978  47.130  49.147  1.00  0.00    -0.306 N 
HETATM    6  O   UNL     1      24.668  47.143  50.743  1.00  0.00    -0.247 OA
HETATM    7  H   UNL     1      22.734  46.525  48.378  1.00  0.00     0.171 HD
HETATM    8  H   UNL     1      23.322  44.756  49.227  1.00  0.00     0.164 HD
BRANCH   5   9
HETATM    9  C   UNL     1      22.827  48.518  48.918  1.00  0.00     0.077 A 
HETATM   10  C   UNL     1      21.701  49.308  49.180  1.00  0.00     0.152 A 
HETATM   11  N   UNL     1      21.643  50.646  48.941  1.00  0.00    -0.247 NA
HETATM   12 CL   UNL     1      20.146  48.688  49.587  1.00  0.00    -0.060 Cl
HETATM   13  C   UNL     1      22.737  51.227  48.413  1.00  0.00     0.118 A 
HETATM   14  C   UNL     1      23.883  50.533  48.075  1.00  0.00     0.022 A 
HETATM   15  C   UNL     1      23.921  49.163  48.322  1.00  0.00     0.034 A 
ENDBRANCH   5   9
ENDBRANCH   2   3
ENDBRANCH   1   2
BRANCH   1  16
HETATM   16  O   UNL     1      26.590  44.426  49.235  1.00  0.00    -0.392 OA
HETATM   17  H   UNL     1      27.365  43.881  48.974  1.00  0.00     0.210 HD
ENDBRANCH   1  16
BRANCH   1  18
HETATM   18  C   UNL     1      26.172  42.273  50.383  1.00  0.00     0.157 C 
BRANCH  18  19
HETATM   19  N   UNL     1      26.411  42.426  51.815  1.00  0.00    -0.340 N 
HETATM   20  C   UNL     1      27.548  43.039  52.288  1.00  0.00     0.320 C 
HETATM   21  N   UNL     1      27.505  43.167  53.655  1.00  0.00    -0.306 N 
HETATM   22  O   UNL     1      28.424  43.443  51.537  1.00  0.00    -0.247 OA
HETATM   23  H   UNL     1      26.562  43.257  54.007  1.00  0.00     0.171 HD
HETATM   24  H   UNL     1      25.946  41.782  52.439  1.00  0.00     0.164 HD
BRANCH  21  25
HETATM   25  C   UNL     1      28.528  43.738  54.451  1.00  0.00     0.077 A 
HETATM   26  C   UNL     1      28.578  45.041  54.966  1.00  0.00     0.152 A 
HETATM   27 CL   UNL     1      27.518  46.316  54.495  1.00  0.00    -0.060 Cl
HETATM   28  N   UNL     1      29.588  45.510  55.745  1.00  0.00    -0.247 NA
HETATM   29  C   UNL     1      30.600  44.664  56.018  1.00  0.00     0.118 A 
HETATM   30  C   UNL     1      30.674  43.376  55.522  1.00  0.00     0.022 A 
HETATM   31  C   UNL     1      29.630  42.915  54.722  1.00  0.00     0.034 A 
ENDBRANCH  21  25
ENDBRANCH  18  19
ENDBRANCH   1  18
TORSDOF 7
ENDMDL
MODEL 7
REMARK VINA RESULT:      -8.0      2.197      9.788
REMARK  7 active torsions:
REMARK  status: ('A' for Active; 'I' for Inactive)
REMARK    1  A    between atoms: C_6  and  N_7 
REMARK       I    between atoms: N_7  and  C_8 
REMARK       I    between atoms: C_8  and  N_9 
REMARK    2  A    between atoms: N_9  and  C_10 
REMARK    3  A    between atoms: C_10  and  C_11 
REMARK    4  A    between atoms: C_11  and  O_12 
REMARK    5  A    between atoms: C_11  and  C_13 
REMARK    6  A    between atoms: C_13  and  N_14 
REMARK       I    between atoms: N_14  and  C_15 
REMARK       I    between atoms: C_15  and  N_16 
REMARK    7  A    between atoms: N_16  and  C_17 
ROOT
HETATM    1  C   UNL     1      23.071  43.808  49.438  1.00  0.00     0.153 C 
ENDROOT
BRANCH   1   2
HETATM    2  C   UNL     1      24.137  42.719  49.662  1.00  0.00     0.157 C 
BRANCH   2   3
HETATM    3  N   UNL     1      24.596  42.671  51.041  1.00  0.00    -0.340 N 
HETATM    4  C   UNL     1      25.766  43.281  51.432  1.00  0.00     0.320 C 
HETATM    5  N   UNL     1      25.872  43.311  52.805  1.00  0.00    -0.306 N 
HETATM    6  O   UNL     1      26.555  43.758  50.628  1.00  0.00    -0.247 OA
HETATM    7  H   UNL     1      24.984  43.299  53.280  1.00  0.00     0.171 HD
HETATM    8  H   UNL     1      23.847  42.622  51.717  1.00  0.00     0.164 HD
BRANCH   5   9
HETATM    9  C   UNL     1      26.961  43.848  53.534  1.00  0.00     0.077 A 
HETATM   10  C   UNL     1      27.128  45.168  53.967  1.00  0.00     0.152 A 
HETATM   11  N   UNL     1      28.204  45.601  54.678  1.00  0.00    -0.247 NA
HETATM   12 CL   UNL     1      26.156  46.495  53.453  1.00  0.00    -0.060 Cl
HETATM   13  C   UNL     1      29.158  44.696  54.966  1.00  0.00     0.118 A 
HETATM   14  C   UNL     1      29.114  43.379  54.548  1.00  0.00     0.022 A 
HETATM   15  C   UNL     1      28.007  42.957  53.817  1.00  0.00     0.034 A 
ENDBRANCH   5   9
ENDBRANCH   2   3
ENDBRANCH   1   2
BRANCH   1  16
HETATM   16  O   UNL     1      22.402  44.040  50.689  1.00  0.00    -0.392 OA
HETATM   17  H   UNL     1      22.891  44.744  51.168  1.00  0.00     0.210 HD
ENDBRANCH   1  16
BRANCH   1  18
HETATM   18  C   UNL     1      23.666  45.099  48.842  1.00  0.00     0.157 C 
BRANCH  18  19
HETATM   19  N   UNL     1      23.121  46.305  49.460  1.00  0.00    -0.340 N 
HETATM   20  C   UNL     1      22.378  47.206  48.734  1.00  0.00     0.320 C 
HETATM   21  N   UNL     1      21.881  48.198  49.543  1.00  0.00    -0.306 N 
HETATM   22  O   UNL     1      22.175  47.060  47.536  1.00  0.00    -0.247 OA
HETATM   23  H   UNL     1      21.719  47.883  50.489  1.00  0.00     0.171 HD
HETATM   24  H   UNL     1      23.581  46.654  50.289  1.00  0.00     0.164 HD
BRANCH  21  25
HETATM   25  C   UNL     1      21.091  49.289  49.102  1.00  0.00     0.077 A 
HETATM   26  C   UNL     1      21.534  50.570  48.747  1.00  0.00     0.152 A 
HETATM   27 CL   UNL     1      23.122  51.170  49.048  1.00  0.00    -0.060 Cl
HETATM   28  N   UNL     1      20.714  51.561  48.308  1.00  0.00    -0.247 NA
HETATM   29  C   UNL     1      19.399  51.282  48.226  1.00  0.00     0.118 A 
HETATM   30  C   UNL     1      18.851  50.068  48.597  1.00  0.00     0.022 A 
HETATM   31  C   UNL     1      19.709  49.067  49.048  1.00  0.00     0.034 A 
ENDBRANCH  21  25
ENDBRANCH  18  19
ENDBRANCH   1  18
TORSDOF 7
ENDMDL
MODEL 8
REMARK VINA RESULT:      -7.7      6.954     10.260
REMARK  7 active torsions:
REMARK  status: ('A' for Active; 'I' for Inactive)
REMARK    1  A    between atoms: C_6  and  N_7 
REMARK       I    between atoms: N_7  and  C_8 
REMARK       I    between atoms: C_8  and  N_9 
REMARK    2  A    between atoms: N_9  and  C_10 
REMARK    3  A    between atoms: C_10  and  C_11 
REMARK    4  A    between atoms: C_11  and  O_12 
REMARK    5  A    between atoms: C_11  and  C_13 
REMARK    6  A    between atoms: C_13  and  N_14 
REMARK       I    between atoms: N_14  and  C_15 
REMARK       I    between atoms: C_15  and  N_16 
REMARK    7  A    between atoms: N_16  and  C_17 
ROOT
HETATM    1  C   UNL     1      15.634  52.312  49.411  1.00  0.00     0.153 C 
ENDROOT
BRANCH   1   2
HETATM    2  C   UNL     1      14.477  53.099  50.052  1.00  0.00     0.157 C 
BRANCH   2   3
HETATM    3  N   UNL     1      14.809  53.584  51.383  1.00  0.00    -0.340 N 
HETATM    4  C   UNL     1      14.696  54.914  51.714  1.00  0.00     0.320 C 
HETATM    5  N   UNL     1      14.829  55.098  53.072  1.00  0.00    -0.306 N 
HETATM    6  O   UNL     1      14.464  55.778  50.880  1.00  0.00    -0.247 OA
HETATM    7  H   UNL     1      14.565  54.293  53.618  1.00  0.00     0.171 HD
HETATM    8  H   UNL     1      14.647  52.906  52.113  1.00  0.00     0.164 HD
BRANCH   5   9
HETATM    9  C   UNL     1      14.785  56.345  53.742  1.00  0.00     0.077 A 
HETATM   10  C   UNL     1      13.655  57.117  54.031  1.00  0.00     0.152 A 
HETATM   11  N   UNL     1      13.698  58.304  54.694  1.00  0.00    -0.247 NA
HETATM   12 CL   UNL     1      12.085  56.836  53.377  1.00  0.00    -0.060 Cl
HETATM   13  C   UNL     1      14.908  58.753  55.079  1.00  0.00     0.118 A 
HETATM   14  C   UNL     1      16.091  58.091  54.804  1.00  0.00     0.022 A 
HETATM   15  C   UNL     1      16.025  56.880  54.120  1.00  0.00     0.034 A 
ENDBRANCH   5   9
ENDBRANCH   2   3
ENDBRANCH   1   2
BRANCH   1  16
HETATM   16  O   UNL     1      15.521  52.438  47.983  1.00  0.00    -0.392 OA
HETATM   17  H   UNL     1      15.143  51.601  47.634  1.00  0.00     0.210 HD
ENDBRANCH   1  16
BRANCH   1  18
HETATM   18  C   UNL     1      17.012  52.762  49.933  1.00  0.00     0.157 C 
BRANCH  18  19
HETATM   19  N   UNL     1      17.958  51.655  50.044  1.00  0.00    -0.340 N 
HETATM   20  C   UNL     1      19.111  51.622  49.294  1.00  0.00     0.320 C 
HETATM   21  N   UNL     1      19.895  50.550  49.645  1.00  0.00    -0.306 N 
HETATM   22  O   UNL     1      19.374  52.491  48.475  1.00  0.00    -0.247 OA
HETATM   23  H   UNL     1      19.779  50.285  50.612  1.00  0.00     0.171 HD
HETATM   24  H   UNL     1      17.605  50.770  50.379  1.00  0.00     0.164 HD
BRANCH  21  25
HETATM   25  C   UNL     1      21.138  50.222  49.049  1.00  0.00     0.077 A 
HETATM   26  C   UNL     1      21.400  49.182  48.147  1.00  0.00     0.152 A 
HETATM   27 CL   UNL     1      20.302  47.901  47.792  1.00  0.00    -0.060 Cl
HETATM   28  N   UNL     1      22.620  48.944  47.598  1.00  0.00    -0.247 NA
HETATM   29  C   UNL     1      23.629  49.758  47.961  1.00  0.00     0.118 A 
HETATM   30  C   UNL     1      23.491  50.782  48.879  1.00  0.00     0.022 A 
HETATM   31  C   UNL     1      22.232  51.007  49.434  1.00  0.00     0.034 A 
ENDBRANCH  21  25
ENDBRANCH  18  19
ENDBRANCH   1  18
TORSDOF 7
ENDMDL
MODEL 9
REMARK VINA RESULT:      -7.5      2.229     10.828
REMARK  7 active torsions:
REMARK  status: ('A' for Active; 'I' for Inactive)
REMARK    1  A    between atoms: C_6  and  N_7 
REMARK       I    between atoms: N_7  and  C_8 
REMARK       I    between atoms: C_8  and  N_9 
REMARK    2  A    between atoms: N_9  and  C_10 
REMARK    3  A    between atoms: C_10  and  C_11 
REMARK    4  A    between atoms: C_11  and  O_12 
REMARK    5  A    between atoms: C_11  and  C_13 
REMARK    6  A    between atoms: C_13  and  N_14 
REMARK       I    between atoms: N_14  and  C_15 
REMARK       I    between atoms: C_15  and  N_16 
REMARK    7  A    between atoms: N_16  and  C_17 
ROOT
HETATM    1  C   UNL     1      24.630  47.225  50.438  1.00  0.00     0.153 C 
ENDROOT
BRANCH   1   2
HETATM    2  C   UNL     1      24.905  45.800  49.925  1.00  0.00     0.157 C 
BRANCH   2   3
HETATM    3  N   UNL     1      25.328  44.902  50.988  1.00  0.00    -0.340 N 
HETATM    4  C   UNL     1      26.659  44.702  51.274  1.00  0.00     0.320 C 
HETATM    5  N   UNL     1      26.812  44.012  52.455  1.00  0.00    -0.306 N 
HETATM    6  O   UNL     1      27.554  45.137  50.562  1.00  0.00    -0.247 OA
HETATM    7  H   UNL     1      26.046  44.135  53.098  1.00  0.00     0.171 HD
HETATM    8  H   UNL     1      24.673  44.843  51.754  1.00  0.00     0.164 HD
BRANCH   5   9
HETATM    9  C   UNL     1      28.047  43.623  53.027  1.00  0.00     0.077 A 
HETATM   10  C   UNL     1      28.904  42.604  52.594  1.00  0.00     0.152 A 
HETATM   11  N   UNL     1      30.086  42.302  53.195  1.00  0.00    -0.247 NA
HETATM   12 CL   UNL     1      28.489  41.412  51.421  1.00  0.00    -0.060 Cl
HETATM   13  C   UNL     1      30.434  43.030  54.274  1.00  0.00     0.118 A 
HETATM   14  C   UNL     1      29.641  44.028  54.810  1.00  0.00     0.022 A 
HETATM   15  C   UNL     1      28.432  44.318  54.183  1.00  0.00     0.034 A 
ENDBRANCH   5   9
ENDBRANCH   2   3
ENDBRANCH   1   2
BRANCH   1  16
HETATM   16  O   UNL     1      25.845  47.734  51.013  1.00  0.00    -0.392 OA
HETATM   17  H   UNL     1      25.832  47.534  51.975  1.00  0.00     0.210 HD
ENDBRANCH   1  16
BRANCH   1  18
HETATM   18  C   UNL     1      24.069  48.148  49.339  1.00  0.00     0.157 C 
BRANCH  18  19
HETATM   19  N   UNL     1      22.842  48.827  49.749  1.00  0.00    -0.340 N 
HETATM   20  C   UNL     1      21.701  48.763  48.984  1.00  0.00     0.320 C 
HETATM   21  N   UNL     1      20.650  49.381  49.618  1.00  0.00    -0.306 N 
HETATM   22  O   UNL     1      21.672  48.173  47.914  1.00  0.00    -0.247 OA
HETATM   23  H   UNL     1      20.723  49.337  50.624  1.00  0.00     0.171 HD
HETATM   24  H   UNL     1      22.931  49.617  50.372  1.00  0.00     0.164 HD
BRANCH  21  25
HETATM   25  C   UNL     1      19.341  49.505  49.090  1.00  0.00     0.077 A 
HETATM   26  C   UNL     1      18.774  50.632  48.479  1.00  0.00     0.152 A 
HETATM   27 CL   UNL     1      19.474  52.207  48.500  1.00  0.00    -0.060 Cl
HETATM   28  N   UNL     1      17.513  50.666  47.973  1.00  0.00    -0.247 NA
HETATM   29  C   UNL     1      16.773  49.547  48.084  1.00  0.00     0.118 A 
HETATM   30  C   UNL     1      17.218  48.397  48.710  1.00  0.00     0.022 A 
HETATM   31  C   UNL     1      18.513  48.383  49.226  1.00  0.00     0.034 A 
ENDBRANCH  21  25
ENDBRANCH  18  19
ENDBRANCH   1  18
TORSDOF 7
ENDMDL
MODEL 10
REMARK VINA RESULT:      -7.5      2.251      3.265
REMARK  7 active torsions:
REMARK  status: ('A' for Active; 'I' for Inactive)
REMARK    1  A    between atoms: C_6  and  N_7 
REMARK       I    between atoms: N_7  and  C_8 
REMARK       I    between atoms: C_8  and  N_9 
REMARK    2  A    between atoms: N_9  and  C_10 
REMARK    3  A    between atoms: C_10  and  C_11 
REMARK    4  A    between atoms: C_11  and  O_12 
REMARK    5  A    between atoms: C_11  and  C_13 
REMARK    6  A    between atoms: C_13  and  N_14 
REMARK       I    between atoms: N_14  and  C_15 
REMARK       I    between atoms: C_15  and  N_16 
REMARK    7  A    between atoms: N_16  and  C_17 
ROOT
HETATM    1  C   UNL     1      23.383  49.533  48.428  1.00  0.00     0.153 C 
ENDROOT
BRANCH   1   2
HETATM    2  C   UNL     1      22.846  50.524  49.478  1.00  0.00     0.157 C 
BRANCH   2   3
HETATM    3  N   UNL     1      21.513  50.169  49.941  1.00  0.00    -0.340 N 
HETATM    4  C   UNL     1      20.401  50.370  49.157  1.00  0.00     0.320 C 
HETATM    5  N   UNL     1      19.298  49.747  49.695  1.00  0.00    -0.306 N 
HETATM    6  O   UNL     1      20.446  50.993  48.104  1.00  0.00    -0.247 OA
HETATM    7  H   UNL     1      19.523  48.949  50.268  1.00  0.00     0.171 HD
HETATM    8  H   UNL     1      21.500  49.385  50.576  1.00  0.00     0.164 HD
BRANCH   5   9
HETATM    9  C   UNL     1      17.991  49.772  49.151  1.00  0.00     0.077 A 
HETATM   10  C   UNL     1      17.131  50.872  49.051  1.00  0.00     0.152 A 
HETATM   11  N   UNL     1      15.889  50.814  48.499  1.00  0.00    -0.247 NA
HETATM   12 CL   UNL     1      17.385  52.386  49.833  1.00  0.00    -0.060 Cl
HETATM   13  C   UNL     1      15.475  49.620  48.035  1.00  0.00     0.118 A 
HETATM   14  C   UNL     1      16.226  48.463  48.125  1.00  0.00     0.022 A 
HETATM   15  C   UNL     1      17.492  48.542  48.698  1.00  0.00     0.034 A 
ENDBRANCH   5   9
ENDBRANCH   2   3
ENDBRANCH   1   2
BRANCH   1  16
HETATM   16  O   UNL     1      23.444  50.214  47.164  1.00  0.00    -0.392 OA
HETATM   17  H   UNL     1      22.892  51.025  47.229  1.00  0.00     0.210 HD
ENDBRANCH   1  16
BRANCH   1  18
HETATM   18  C   UNL     1      24.740  48.926  48.834  1.00  0.00     0.157 C 
BRANCH  18  19
HETATM   19  N   UNL     1      24.605  47.877  49.841  1.00  0.00    -0.340 N 
HETATM   20  C   UNL     1      25.679  47.477  50.603  1.00  0.00     0.320 C 
HETATM   21  N   UNL     1      25.293  46.562  51.553  1.00  0.00    -0.306 N 
HETATM   22  O   UNL     1      26.796  47.949  50.445  1.00  0.00    -0.247 OA
HETATM   23  H   UNL     1      24.337  46.693  51.852  1.00  0.00     0.171 HD
HETATM   24  H   UNL     1      23.853  47.213  49.728  1.00  0.00     0.164 HD
BRANCH  21  25
HETATM   25  C   UNL     1      26.162  45.942  52.484  1.00  0.00     0.077 A 
HETATM   26  C   UNL     1      26.438  46.354  53.795  1.00  0.00     0.152 A 
HETATM   27 CL   UNL     1      25.980  47.880  54.453  1.00  0.00    -0.060 Cl
HETATM   28  N   UNL     1      27.270  45.689  54.639  1.00  0.00    -0.247 NA
HETATM   29  C   UNL     1      27.866  44.577  54.169  1.00  0.00     0.118 A 
HETATM   30  C   UNL     1      27.702  44.110  52.878  1.00  0.00     0.022 A 
HETATM   31  C   UNL     1      26.847  44.809  52.027  1.00  0.00     0.034 A 
ENDBRANCH  21  25
ENDBRANCH  18  19
ENDBRANCH   1  18
TORSDOF 7
ENDMDL
