MODEL 1
REMARK VINA RESULT:      -9.1      0.000      0.000
REMARK  4 active torsions:
REMARK  status: ('A' for Active; 'I' for Inactive)
REMARK    1  A    between atoms: C_3  and  N_4 
REMARK       I    between atoms: N_4  and  C_5 
REMARK    2  A    between atoms: C_5  and  C_6 
REMARK    3  A    between atoms: C_14  and  C_15 
REMARK       I    between atoms: C_15  and  N_16 
REMARK    4  A    between atoms: N_16  and  C_17 
ROOT
HETATM    1  C   UNL     1      26.615  49.233  48.762  1.00  0.00     0.003 A 
HETATM    2  C   UNL     1      26.847  48.237  49.717  1.00  0.00     0.029 A 
HETATM    3  C   UNL     1      25.780  47.562  50.314  1.00  0.00     0.036 A 
HETATM    4  C   UNL     1      24.473  47.895  49.944  1.00  0.00     0.046 A 
HETATM    5  C   UNL     1      24.237  48.907  49.003  1.00  0.00     0.034 A 
HETATM    6  C   UNL     1      25.312  49.571  48.403  1.00  0.00     0.017 A 
ENDROOT
BRANCH   5   7
HETATM    7  C   UNL     1      22.831  49.233  48.648  1.00  0.00     0.257 C 
HETATM    8  N   UNL     1      22.174  50.011  49.569  1.00  0.00    -0.307 N 
HETATM    9  H   UNL     1      22.611  50.211  50.459  1.00  0.00     0.170 HD
HETATM   10  O   UNL     1      22.363  48.769  47.615  1.00  0.00    -0.267 OA
BRANCH   8  11
HETATM   11  C   UNL     1      20.873  50.507  49.506  1.00  0.00     0.130 A 
HETATM   12  N   UNL     1      19.992  49.793  50.241  1.00  0.00    -0.242 NA
HETATM   13  C   UNL     1      18.700  50.205  50.238  1.00  0.00     0.142 A 
HETATM   14  C   UNL     1      18.244  51.312  49.542  1.00  0.00     0.051 A 
HETATM   15 CL   UNL     1      16.593  51.772  49.593  1.00  0.00    -0.083 Cl
HETATM   16  C   UNL     1      19.164  52.040  48.803  1.00  0.00     0.029 A 
HETATM   17  C   UNL     1      20.499  51.633  48.782  1.00  0.00     0.052 A 
ENDBRANCH   8  11
ENDBRANCH   5   7
BRANCH   3  18
HETATM   18  N   UNL     1      25.936  46.561  51.288  1.00  0.00    -0.322 N 
HETATM   19  C   UNL     1      25.784  46.657  52.657  1.00  0.00     0.276 C 
HETATM   20  O   UNL     1      25.509  47.667  53.296  1.00  0.00    -0.266 OA
HETATM   21  H   UNL     1      26.180  45.622  50.979  1.00  0.00     0.169 HD
BRANCH  19  22
HETATM   22  C   UNL     1      25.993  45.357  53.320  1.00  0.00     0.146 A 
HETATM   23  N   UNL     1      24.960  44.550  53.651  1.00  0.00    -0.170 NA
HETATM   24  N   UNL     1      25.548  43.490  54.235  1.00  0.00    -0.289 N 
HETATM   25  H   UNL     1      24.958  42.738  54.576  1.00  0.00     0.188 HD
HETATM   26  C   UNL     1      26.907  43.579  54.288  1.00  0.00     0.112 A 
HETATM   27  C   UNL     1      27.231  44.778  53.702  1.00  0.00     0.058 A 
ENDBRANCH  19  22
ENDBRANCH   3  18
TORSDOF 4
ENDMDL
MODEL 2
REMARK VINA RESULT:      -8.7      4.004      6.681
REMARK  4 active torsions:
REMARK  status: ('A' for Active; 'I' for Inactive)
REMARK    1  A    between atoms: C_3  and  N_4 
REMARK       I    between atoms: N_4  and  C_5 
REMARK    2  A    between atoms: C_5  and  C_6 
REMARK    3  A    between atoms: C_14  and  C_15 
REMARK       I    between atoms: C_15  and  N_16 
REMARK    4  A    between atoms: N_16  and  C_17 
ROOT
HETATM    1  C   UNL     1      27.620  41.472  52.433  1.00  0.00     0.003 A 
HETATM    2  C   UNL     1      28.199  41.972  53.605  1.00  0.00     0.029 A 
HETATM    3  C   UNL     1      28.367  43.346  53.785  1.00  0.00     0.036 A 
HETATM    4  C   UNL     1      27.946  44.221  52.777  1.00  0.00     0.046 A 
HETATM    5  C   UNL     1      27.383  43.722  51.594  1.00  0.00     0.034 A 
HETATM    6  C   UNL     1      27.211  42.344  51.425  1.00  0.00     0.017 A 
ENDROOT
BRANCH   5   7
HETATM    7  C   UNL     1      26.959  44.688  50.547  1.00  0.00     0.257 C 
HETATM    8  N   UNL     1      26.418  45.854  51.030  1.00  0.00    -0.307 N 
HETATM    9  H   UNL     1      26.227  45.946  52.019  1.00  0.00     0.170 HD
HETATM   10  O   UNL     1      27.082  44.370  49.370  1.00  0.00    -0.267 OA
BRANCH   8  11
HETATM   11  C   UNL     1      25.963  46.956  50.308  1.00  0.00     0.130 A 
HETATM   12  N   UNL     1      24.616  47.012  50.210  1.00  0.00    -0.242 NA
HETATM   13  C   UNL     1      24.084  48.054  49.523  1.00  0.00     0.142 A 
HETATM   14  C   UNL     1      24.838  49.056  48.936  1.00  0.00     0.051 A 
HETATM   15 CL   UNL     1      24.090  50.344  48.087  1.00  0.00    -0.083 Cl
HETATM   16  C   UNL     1      26.218  48.990  49.057  1.00  0.00     0.029 A 
HETATM   17  C   UNL     1      26.792  47.923  49.752  1.00  0.00     0.052 A 
ENDBRANCH   8  11
ENDBRANCH   5   7
BRANCH   3  18
HETATM   18  N   UNL     1      28.951  43.919  54.927  1.00  0.00    -0.322 N 
HETATM   19  C   UNL     1      30.243  43.782  55.398  1.00  0.00     0.276 C 
HETATM   20  O   UNL     1      31.132  43.095  54.910  1.00  0.00    -0.266 OA
HETATM   21  H   UNL     1      28.380  44.534  55.504  1.00  0.00     0.169 HD
BRANCH  19  22
HETATM   22  C   UNL     1      30.467  44.590  56.611  1.00  0.00     0.146 A 
HETATM   23  N   UNL     1      31.301  44.184  57.595  1.00  0.00    -0.170 NA
HETATM   24  N   UNL     1      31.225  45.165  58.512  1.00  0.00    -0.289 N 
HETATM   25  H   UNL     1      31.774  45.076  59.360  1.00  0.00     0.188 HD
HETATM   26  C   UNL     1      30.389  46.181  58.159  1.00  0.00     0.112 A 
HETATM   27  C   UNL     1      29.879  45.841  56.929  1.00  0.00     0.058 A 
ENDBRANCH  19  22
ENDBRANCH   3  18
TORSDOF 4
ENDMDL
MODEL 3
REMARK VINA RESULT:      -8.2      1.660      1.872
REMARK  4 active torsions:
REMARK  status: ('A' for Active; 'I' for Inactive)
REMARK    1  A    between atoms: C_3  and  N_4 
REMARK       I    between atoms: N_4  and  C_5 
REMARK    2  A    between atoms: C_5  and  C_6 
REMARK    3  A    between atoms: C_14  and  C_15 
REMARK       I    between atoms: C_15  and  N_16 
REMARK    4  A    between atoms: N_16  and  C_17 
ROOT
HETATM    1  C   UNL     1      26.588  49.486  48.703  1.00  0.00     0.003 A 
HETATM    2  C   UNL     1      26.921  48.492  49.629  1.00  0.00     0.029 A 
HETATM    3  C   UNL     1      25.931  47.682  50.190  1.00  0.00     0.036 A 
HETATM    4  C   UNL     1      24.599  47.876  49.811  1.00  0.00     0.046 A 
HETATM    5  C   UNL     1      24.260  48.885  48.898  1.00  0.00     0.034 A 
HETATM    6  C   UNL     1      25.259  49.685  48.334  1.00  0.00     0.017 A 
ENDROOT
BRANCH   5   7
HETATM    7  C   UNL     1      22.830  49.061  48.532  1.00  0.00     0.257 C 
HETATM    8  N   UNL     1      21.956  48.278  49.245  1.00  0.00    -0.307 N 
HETATM    9  H   UNL     1      22.315  47.564  49.865  1.00  0.00     0.170 HD
HETATM   10  O   UNL     1      22.547  49.836  47.626  1.00  0.00    -0.267 OA
BRANCH   8  11
HETATM   11  C   UNL     1      20.566  48.241  49.158  1.00  0.00     0.130 A 
HETATM   12  N   UNL     1      20.103  47.190  48.445  1.00  0.00    -0.242 NA
HETATM   13  C   UNL     1      18.758  47.074  48.308  1.00  0.00     0.142 A 
HETATM   14  C   UNL     1      17.847  47.956  48.865  1.00  0.00     0.051 A 
HETATM   15 CL   UNL     1      16.160  47.738  48.651  1.00  0.00    -0.083 Cl
HETATM   16  C   UNL     1      18.339  49.021  49.604  1.00  0.00     0.029 A 
HETATM   17  C   UNL     1      19.720  49.169  49.753  1.00  0.00     0.052 A 
ENDBRANCH   8  11
ENDBRANCH   5   7
BRANCH   3  18
HETATM   18  N   UNL     1      26.188  46.674  51.134  1.00  0.00    -0.322 N 
HETATM   19  C   UNL     1      25.967  46.691  52.498  1.00  0.00     0.276 C 
HETATM   20  O   UNL     1      25.522  47.623  53.157  1.00  0.00    -0.266 OA
HETATM   21  H   UNL     1      26.578  45.792  50.805  1.00  0.00     0.169 HD
BRANCH  19  22
HETATM   22  C   UNL     1      26.334  45.407  53.124  1.00  0.00     0.146 A 
HETATM   23  N   UNL     1      25.705  44.253  52.806  1.00  0.00    -0.170 NA
HETATM   24  N   UNL     1      26.304  43.332  53.583  1.00  0.00    -0.289 N 
HETATM   25  H   UNL     1      25.989  42.369  53.519  1.00  0.00     0.188 HD
HETATM   26  C   UNL     1      27.287  43.840  54.376  1.00  0.00     0.112 A 
HETATM   27  C   UNL     1      27.335  45.186  54.104  1.00  0.00     0.058 A 
ENDBRANCH  19  22
ENDBRANCH   3  18
TORSDOF 4
ENDMDL
MODEL 4
REMARK VINA RESULT:      -8.1      4.566      9.380
REMARK  4 active torsions:
REMARK  status: ('A' for Active; 'I' for Inactive)
REMARK    1  A    between atoms: C_3  and  N_4 
REMARK       I    between atoms: N_4  and  C_5 
REMARK    2  A    between atoms: C_5  and  C_6 
REMARK    3  A    between atoms: C_14  and  C_15 
REMARK       I    between atoms: C_15  and  N_16 
REMARK    4  A    between atoms: N_16  and  C_17 
ROOT
HETATM    1  C   UNL     1      23.838  43.234  49.870  1.00  0.00     0.003 A 
HETATM    2  C   UNL     1      23.494  44.493  49.365  1.00  0.00     0.029 A 
HETATM    3  C   UNL     1      23.892  45.657  50.026  1.00  0.00     0.036 A 
HETATM    4  C   UNL     1      24.643  45.548  51.202  1.00  0.00     0.046 A 
HETATM    5  C   UNL     1      24.971  44.288  51.720  1.00  0.00     0.034 A 
HETATM    6  C   UNL     1      24.577  43.127  51.047  1.00  0.00     0.017 A 
ENDROOT
BRANCH   5   7
HETATM    7  C   UNL     1      25.762  44.221  52.977  1.00  0.00     0.257 C 
HETATM    8  N   UNL     1      27.123  44.282  52.801  1.00  0.00    -0.307 N 
HETATM    9  H   UNL     1      27.509  44.245  51.867  1.00  0.00     0.170 HD
HETATM   10  O   UNL     1      25.167  44.081  54.039  1.00  0.00    -0.267 OA
BRANCH   8  11
HETATM   11  C   UNL     1      28.118  44.277  53.776  1.00  0.00     0.130 A 
HETATM   12  N   UNL     1      28.876  43.158  53.760  1.00  0.00    -0.242 NA
HETATM   13  C   UNL     1      29.872  43.067  54.677  1.00  0.00     0.142 A 
HETATM   14  C   UNL     1      30.158  44.053  55.607  1.00  0.00     0.051 A 
HETATM   15 CL   UNL     1      31.438  43.866  56.731  1.00  0.00    -0.083 Cl
HETATM   16  C   UNL     1      29.377  45.200  55.601  1.00  0.00     0.029 A 
HETATM   17  C   UNL     1      28.341  45.315  54.672  1.00  0.00     0.052 A 
ENDBRANCH   8  11
ENDBRANCH   5   7
BRANCH   3  18
HETATM   18  N   UNL     1      23.574  46.952  49.587  1.00  0.00    -0.322 N 
HETATM   19  C   UNL     1      24.425  48.007  49.317  1.00  0.00     0.276 C 
HETATM   20  O   UNL     1      25.644  48.017  49.443  1.00  0.00    -0.266 OA
HETATM   21  H   UNL     1      22.595  47.179  49.422  1.00  0.00     0.169 HD
BRANCH  19  22
HETATM   22  C   UNL     1      23.689  49.189  48.832  1.00  0.00     0.146 A 
HETATM   23  N   UNL     1      24.001  49.794  47.664  1.00  0.00    -0.170 NA
HETATM   24  N   UNL     1      23.131  50.817  47.584  1.00  0.00    -0.289 N 
HETATM   25  H   UNL     1      23.177  51.428  46.776  1.00  0.00     0.188 HD
HETATM   26  C   UNL     1      22.276  50.892  48.642  1.00  0.00     0.112 A 
HETATM   27  C   UNL     1      22.609  49.849  49.472  1.00  0.00     0.058 A 
ENDBRANCH  19  22
ENDBRANCH   3  18
TORSDOF 4
ENDMDL
MODEL 5
REMARK VINA RESULT:      -8.0      2.309      3.002
REMARK  4 active torsions:
REMARK  status: ('A' for Active; 'I' for Inactive)
REMARK    1  A    between atoms: C_3  and  N_4 
REMARK       I    between atoms: N_4  and  C_5 
REMARK    2  A    between atoms: C_5  and  C_6 
REMARK    3  A    between atoms: C_14  and  C_15 
REMARK       I    between atoms: C_15  and  N_16 
REMARK    4  A    between atoms: N_16  and  C_17 
ROOT
HETATM    1  C   UNL     1      24.437  44.226  50.097  1.00  0.00     0.003 A 
HETATM    2  C   UNL     1      25.377  44.180  51.132  1.00  0.00     0.029 A 
HETATM    3  C   UNL     1      25.839  45.357  51.726  1.00  0.00     0.036 A 
HETATM    4  C   UNL     1      25.347  46.586  51.272  1.00  0.00     0.046 A 
HETATM    5  C   UNL     1      24.421  46.636  50.221  1.00  0.00     0.034 A 
HETATM    6  C   UNL     1      23.956  45.452  49.638  1.00  0.00     0.017 A 
ENDROOT
BRANCH   5   7
HETATM    7  C   UNL     1      23.933  47.964  49.765  1.00  0.00     0.257 C 
HETATM    8  N   UNL     1      22.570  48.056  49.627  1.00  0.00    -0.307 N 
HETATM    9  H   UNL     1      22.001  47.226  49.715  1.00  0.00     0.170 HD
HETATM   10  O   UNL     1      24.755  48.838  49.517  1.00  0.00    -0.267 OA
BRANCH   8  11
HETATM   11  C   UNL     1      21.816  49.167  49.254  1.00  0.00     0.130 A 
HETATM   12  N   UNL     1      20.489  49.005  49.455  1.00  0.00    -0.242 NA
HETATM   13  C   UNL     1      19.678  50.039  49.118  1.00  0.00     0.142 A 
HETATM   14  C   UNL     1      20.132  51.240  48.601  1.00  0.00     0.051 A 
HETATM   15 CL   UNL     1      19.041  52.502  48.206  1.00  0.00    -0.083 Cl
HETATM   16  C   UNL     1      21.497  51.394  48.413  1.00  0.00     0.029 A 
HETATM   17  C   UNL     1      22.355  50.342  48.743  1.00  0.00     0.052 A 
ENDBRANCH   8  11
ENDBRANCH   5   7
BRANCH   3  18
HETATM   18  N   UNL     1      26.789  45.390  52.759  1.00  0.00    -0.322 N 
HETATM   19  C   UNL     1      26.637  45.831  54.060  1.00  0.00     0.276 C 
HETATM   20  O   UNL     1      25.627  46.317  54.556  1.00  0.00    -0.266 OA
HETATM   21  H   UNL     1      27.725  45.037  52.566  1.00  0.00     0.169 HD
BRANCH  19  22
HETATM   22  C   UNL     1      27.874  45.652  54.843  1.00  0.00     0.146 A 
HETATM   23  N   UNL     1      28.748  44.655  54.578  1.00  0.00    -0.170 NA
HETATM   24  N   UNL     1      29.716  44.818  55.498  1.00  0.00    -0.289 N 
HETATM   25  H   UNL     1      30.495  44.168  55.498  1.00  0.00     0.188 HD
HETATM   26  C   UNL     1      29.506  45.873  56.333  1.00  0.00     0.112 A 
HETATM   27  C   UNL     1      28.318  46.439  55.936  1.00  0.00     0.058 A 
ENDBRANCH  19  22
ENDBRANCH   3  18
TORSDOF 4
ENDMDL
MODEL 6
REMARK VINA RESULT:      -8.0      3.813      8.044
REMARK  4 active torsions:
REMARK  status: ('A' for Active; 'I' for Inactive)
REMARK    1  A    between atoms: C_3  and  N_4 
REMARK       I    between atoms: N_4  and  C_5 
REMARK    2  A    between atoms: C_5  and  C_6 
REMARK    3  A    between atoms: C_14  and  C_15 
REMARK       I    between atoms: C_15  and  N_16 
REMARK    4  A    between atoms: N_16  and  C_17 
ROOT
HETATM    1  C   UNL     1      24.077  50.418  47.748  1.00  0.00     0.003 A 
HETATM    2  C   UNL     1      22.775  49.907  47.761  1.00  0.00     0.029 A 
HETATM    3  C   UNL     1      22.465  48.772  48.511  1.00  0.00     0.036 A 
HETATM    4  C   UNL     1      23.475  48.150  49.254  1.00  0.00     0.046 A 
HETATM    5  C   UNL     1      24.784  48.649  49.227  1.00  0.00     0.034 A 
HETATM    6  C   UNL     1      25.085  49.793  48.479  1.00  0.00     0.017 A 
ENDROOT
BRANCH   5   7
HETATM    7  C   UNL     1      25.827  47.951  50.024  1.00  0.00     0.257 C 
HETATM    8  N   UNL     1      25.341  47.181  51.052  1.00  0.00    -0.307 N 
HETATM    9  H   UNL     1      24.359  47.222  51.287  1.00  0.00     0.170 HD
HETATM   10  O   UNL     1      27.005  48.136  49.741  1.00  0.00    -0.267 OA
BRANCH   8  11
HETATM   11  C   UNL     1      26.058  46.388  51.946  1.00  0.00     0.130 A 
HETATM   12  N   UNL     1      26.455  45.210  51.416  1.00  0.00    -0.242 NA
HETATM   13  C   UNL     1      27.161  44.373  52.217  1.00  0.00     0.142 A 
HETATM   14  C   UNL     1      27.503  44.663  53.527  1.00  0.00     0.051 A 
HETATM   15 CL   UNL     1      28.402  43.553  54.475  1.00  0.00    -0.083 Cl
HETATM   16  C   UNL     1      27.097  45.882  54.051  1.00  0.00     0.029 A 
HETATM   17  C   UNL     1      26.363  46.759  53.250  1.00  0.00     0.052 A 
ENDBRANCH   8  11
ENDBRANCH   5   7
BRANCH   3  18
HETATM   18  N   UNL     1      21.185  48.195  48.563  1.00  0.00    -0.322 N 
HETATM   19  C   UNL     1      20.053  48.659  49.203  1.00  0.00     0.276 C 
HETATM   20  O   UNL     1      19.960  49.671  49.889  1.00  0.00    -0.266 OA
HETATM   21  H   UNL     1      21.029  47.322  48.061  1.00  0.00     0.169 HD
BRANCH  19  22
HETATM   22  C   UNL     1      18.895  47.775  48.971  1.00  0.00     0.146 A 
HETATM   23  N   UNL     1      19.044  46.504  48.533  1.00  0.00    -0.170 NA
HETATM   24  N   UNL     1      17.784  46.043  48.436  1.00  0.00    -0.289 N 
HETATM   25  H   UNL     1      17.642  45.092  48.115  1.00  0.00     0.188 HD
HETATM   26  C   UNL     1      16.839  46.956  48.796  1.00  0.00     0.112 A 
HETATM   27  C   UNL     1      17.524  48.092  49.150  1.00  0.00     0.058 A 
ENDBRANCH  19  22
ENDBRANCH   3  18
TORSDOF 4
ENDMDL
MODEL 7
REMARK VINA RESULT:      -7.8      2.430      2.971
REMARK  4 active torsions:
REMARK  status: ('A' for Active; 'I' for Inactive)
REMARK    1  A    between atoms: C_3  and  N_4 
REMARK       I    between atoms: N_4  and  C_5 
REMARK    2  A    between atoms: C_5  and  C_6 
REMARK    3  A    between atoms: C_14  and  C_15 
REMARK       I    between atoms: C_15  and  N_16 
REMARK    4  A    between atoms: N_16  and  C_17 
ROOT
HETATM    1  C   UNL     1      24.386  43.507  49.141  1.00  0.00     0.003 A 
HETATM    2  C   UNL     1      25.142  43.788  50.284  1.00  0.00     0.029 A 
HETATM    3  C   UNL     1      25.117  45.061  50.857  1.00  0.00     0.036 A 
HETATM    4  C   UNL     1      24.323  46.054  50.274  1.00  0.00     0.046 A 
HETATM    5  C   UNL     1      23.580  45.781  49.117  1.00  0.00     0.034 A 
HETATM    6  C   UNL     1      23.604  44.500  48.554  1.00  0.00     0.017 A 
ENDROOT
BRANCH   5   7
HETATM    7  C   UNL     1      22.758  46.870  48.527  1.00  0.00     0.257 C 
HETATM    8  N   UNL     1      22.440  47.883  49.398  1.00  0.00    -0.307 N 
HETATM    9  H   UNL     1      22.661  47.787  50.380  1.00  0.00     0.170 HD
HETATM   10  O   UNL     1      22.402  46.769  47.359  1.00  0.00    -0.267 OA
BRANCH   8  11
HETATM   11  C   UNL     1      21.719  49.047  49.138  1.00  0.00     0.130 A 
HETATM   12  N   UNL     1      20.399  48.927  49.403  1.00  0.00    -0.242 NA
HETATM   13  C   UNL     1      19.618  50.014  49.179  1.00  0.00     0.142 A 
HETATM   14  C   UNL     1      20.097  51.226  48.712  1.00  0.00     0.051 A 
HETATM   15 CL   UNL     1      19.046  52.556  48.459  1.00  0.00    -0.083 Cl
HETATM   16  C   UNL     1      21.457  51.335  48.457  1.00  0.00     0.029 A 
HETATM   17  C   UNL     1      22.282  50.228  48.672  1.00  0.00     0.052 A 
ENDBRANCH   8  11
ENDBRANCH   5   7
BRANCH   3  18
HETATM   18  N   UNL     1      25.858  45.420  51.995  1.00  0.00    -0.322 N 
HETATM   19  C   UNL     1      25.678  45.020  53.305  1.00  0.00     0.276 C 
HETATM   20  O   UNL     1      24.797  44.283  53.733  1.00  0.00    -0.266 OA
HETATM   21  H   UNL     1      26.652  46.048  51.876  1.00  0.00     0.169 HD
BRANCH  19  22
HETATM   22  C   UNL     1      26.706  45.593  54.195  1.00  0.00     0.146 A 
HETATM   23  N   UNL     1      26.766  46.918  54.456  1.00  0.00    -0.170 NA
HETATM   24  N   UNL     1      27.824  47.041  55.278  1.00  0.00    -0.289 N 
HETATM   25  H   UNL     1      28.071  47.967  55.611  1.00  0.00     0.188 HD
HETATM   26  C   UNL     1      28.438  45.859  55.559  1.00  0.00     0.112 A 
HETATM   27  C   UNL     1      27.739  44.896  54.873  1.00  0.00     0.058 A 
ENDBRANCH  19  22
ENDBRANCH   3  18
TORSDOF 4
ENDMDL
MODEL 8
REMARK VINA RESULT:      -7.8      3.217      4.948
REMARK  4 active torsions:
REMARK  status: ('A' for Active; 'I' for Inactive)
REMARK    1  A    between atoms: C_3  and  N_4 
REMARK       I    between atoms: N_4  and  C_5 
REMARK    2  A    between atoms: C_5  and  C_6 
REMARK    3  A    between atoms: C_14  and  C_15 
REMARK       I    between atoms: C_15  and  N_16 
REMARK    4  A    between atoms: N_16  and  C_17 
ROOT
HETATM    1  C   UNL     1      26.024  42.988  51.157  1.00  0.00     0.003 A 
HETATM    2  C   UNL     1      26.940  42.974  52.213  1.00  0.00     0.029 A 
HETATM    3  C   UNL     1      27.228  44.143  52.921  1.00  0.00     0.036 A 
HETATM    4  C   UNL     1      26.585  45.332  52.560  1.00  0.00     0.046 A 
HETATM    5  C   UNL     1      25.681  45.353  51.489  1.00  0.00     0.034 A 
HETATM    6  C   UNL     1      25.391  44.175  50.791  1.00  0.00     0.017 A 
ENDROOT
BRANCH   5   7
HETATM    7  C   UNL     1      25.028  46.641  51.135  1.00  0.00     0.257 C 
HETATM    8  N   UNL     1      24.399  46.646  49.914  1.00  0.00    -0.307 N 
HETATM    9  H   UNL     1      24.509  45.858  49.290  1.00  0.00     0.170 HD
HETATM   10  O   UNL     1      25.128  47.583  51.911  1.00  0.00    -0.267 OA
BRANCH   8  11
HETATM   11  C   UNL     1      23.677  47.681  49.323  1.00  0.00     0.130 A 
HETATM   12  N   UNL     1      22.373  47.382  49.131  1.00  0.00    -0.242 NA
HETATM   13  C   UNL     1      21.593  48.333  48.559  1.00  0.00     0.142 A 
HETATM   14  C   UNL     1      22.053  49.583  48.181  1.00  0.00     0.051 A 
HETATM   15 CL   UNL     1      21.002  50.735  47.469  1.00  0.00    -0.083 Cl
HETATM   16  C   UNL     1      23.391  49.878  48.396  1.00  0.00     0.029 A 
HETATM   17  C   UNL     1      24.218  48.913  48.976  1.00  0.00     0.052 A 
ENDBRANCH   8  11
ENDBRANCH   5   7
BRANCH   3  18
HETATM   18  N   UNL     1      28.145  44.208  53.983  1.00  0.00    -0.322 N 
HETATM   19  C   UNL     1      29.442  43.734  54.035  1.00  0.00     0.276 C 
HETATM   20  O   UNL     1      30.037  43.127  53.152  1.00  0.00    -0.266 OA
HETATM   21  H   UNL     1      27.856  44.671  54.843  1.00  0.00     0.169 HD
BRANCH  19  22
HETATM   22  C   UNL     1      30.083  44.047  55.326  1.00  0.00     0.146 A 
HETATM   23  N   UNL     1      29.842  45.205  55.981  1.00  0.00    -0.170 NA
HETATM   24  N   UNL     1      30.607  45.121  57.084  1.00  0.00    -0.289 N 
HETATM   25  H   UNL     1      30.594  45.895  57.740  1.00  0.00     0.188 HD
HETATM   26  C   UNL     1      31.321  43.964  57.168  1.00  0.00     0.112 A 
HETATM   27  C   UNL     1      31.005  43.242  56.043  1.00  0.00     0.058 A 
ENDBRANCH  19  22
ENDBRANCH   3  18
TORSDOF 4
ENDMDL
MODEL 9
REMARK VINA RESULT:      -7.8      5.992      9.578
REMARK  4 active torsions:
REMARK  status: ('A' for Active; 'I' for Inactive)
REMARK    1  A    between atoms: C_3  and  N_4 
REMARK       I    between atoms: N_4  and  C_5 
REMARK    2  A    between atoms: C_5  and  C_6 
REMARK    3  A    between atoms: C_14  and  C_15 
REMARK       I    between atoms: C_15  and  N_16 
REMARK    4  A    between atoms: N_16  and  C_17 
ROOT
HETATM    1  C   UNL     1      24.990  47.160  51.059  1.00  0.00     0.003 A 
HETATM    2  C   UNL     1      24.509  46.188  50.174  1.00  0.00     0.029 A 
HETATM    3  C   UNL     1      24.727  44.831  50.421  1.00  0.00     0.036 A 
HETATM    4  C   UNL     1      25.434  44.454  51.568  1.00  0.00     0.046 A 
HETATM    5  C   UNL     1      25.935  45.426  52.445  1.00  0.00     0.034 A 
HETATM    6  C   UNL     1      25.704  46.783  52.195  1.00  0.00     0.017 A 
ENDROOT
BRANCH   5   7
HETATM    7  C   UNL     1      26.689  44.979  53.646  1.00  0.00     0.257 C 
HETATM    8  N   UNL     1      28.044  44.853  53.457  1.00  0.00    -0.307 N 
HETATM    9  H   UNL     1      28.430  44.943  52.527  1.00  0.00     0.170 HD
HETATM   10  O   UNL     1      26.066  44.727  54.671  1.00  0.00    -0.267 OA
BRANCH   8  11
HETATM   11  C   UNL     1      29.013  44.490  54.391  1.00  0.00     0.130 A 
HETATM   12  N   UNL     1      29.249  45.447  55.315  1.00  0.00    -0.242 NA
HETATM   13  C   UNL     1      30.180  45.179  56.265  1.00  0.00     0.142 A 
HETATM   14  C   UNL     1      30.880  43.987  56.345  1.00  0.00     0.051 A 
HETATM   15 CL   UNL     1      32.038  43.721  57.581  1.00  0.00    -0.083 Cl
HETATM   16  C   UNL     1      30.616  43.011  55.395  1.00  0.00     0.029 A 
HETATM   17  C   UNL     1      29.668  43.265  54.401  1.00  0.00     0.052 A 
ENDBRANCH   8  11
ENDBRANCH   5   7
BRANCH   3  18
HETATM   18  N   UNL     1      24.286  43.802  49.574  1.00  0.00    -0.322 N 
HETATM   19  C   UNL     1      23.149  43.023  49.679  1.00  0.00     0.276 C 
HETATM   20  O   UNL     1      22.310  43.068  50.571  1.00  0.00    -0.266 OA
HETATM   21  H   UNL     1      24.846  43.579  48.753  1.00  0.00     0.169 HD
BRANCH  19  22
HETATM   22  C   UNL     1      23.030  42.080  48.552  1.00  0.00     0.146 A 
HETATM   23  N   UNL     1      21.960  42.088  47.725  1.00  0.00    -0.170 NA
HETATM   24  N   UNL     1      22.213  41.094  46.855  1.00  0.00    -0.289 N 
HETATM   25  H   UNL     1      21.532  40.905  46.127  1.00  0.00     0.188 HD
HETATM   26  C   UNL     1      23.395  40.455  47.083  1.00  0.00     0.112 A 
HETATM   27  C   UNL     1      23.953  41.070  48.177  1.00  0.00     0.058 A 
ENDBRANCH  19  22
ENDBRANCH   3  18
TORSDOF 4
ENDMDL
MODEL 10
REMARK VINA RESULT:      -7.6      7.357      9.608
REMARK  4 active torsions:
REMARK  status: ('A' for Active; 'I' for Inactive)
REMARK    1  A    between atoms: C_3  and  N_4 
REMARK       I    between atoms: N_4  and  C_5 
REMARK    2  A    between atoms: C_5  and  C_6 
REMARK    3  A    between atoms: C_14  and  C_15 
REMARK       I    between atoms: C_15  and  N_16 
REMARK    4  A    between atoms: N_16  and  C_17 
ROOT
HETATM    1  C   UNL     1      25.415  45.304  52.880  1.00  0.00     0.003 A 
HETATM    2  C   UNL     1      26.378  45.283  53.895  1.00  0.00     0.029 A 
HETATM    3  C   UNL     1      27.532  44.509  53.763  1.00  0.00     0.036 A 
HETATM    4  C   UNL     1      27.716  43.753  52.600  1.00  0.00     0.046 A 
HETATM    5  C   UNL     1      26.743  43.757  51.590  1.00  0.00     0.034 A 
HETATM    6  C   UNL     1      25.594  44.543  51.726  1.00  0.00     0.017 A 
ENDROOT
BRANCH   5   7
HETATM    7  C   UNL     1      26.976  42.931  50.376  1.00  0.00     0.257 C 
HETATM    8  N   UNL     1      27.291  41.618  50.628  1.00  0.00    -0.307 N 
HETATM    9  H   UNL     1      27.465  41.319  51.578  1.00  0.00     0.170 HD
HETATM   10  O   UNL     1      26.910  43.471  49.278  1.00  0.00    -0.267 OA
BRANCH   8  11
HETATM   11  C   UNL     1      27.529  40.599  49.709  1.00  0.00     0.130 A 
HETATM   12  N   UNL     1      28.767  40.066  49.810  1.00  0.00    -0.242 NA
HETATM   13  C   UNL     1      29.086  39.065  48.952  1.00  0.00     0.142 A 
HETATM   14  C   UNL     1      28.217  38.557  48.001  1.00  0.00     0.051 A 
HETATM   15 CL   UNL     1      28.694  37.284  46.956  1.00  0.00    -0.083 Cl
HETATM   16  C   UNL     1      26.946  39.106  47.920  1.00  0.00     0.029 A 
HETATM   17  C   UNL     1      26.595  40.144  48.786  1.00  0.00     0.052 A 
ENDBRANCH   8  11
ENDBRANCH   5   7
BRANCH   3  18
HETATM   18  N   UNL     1      28.535  44.428  54.743  1.00  0.00    -0.322 N 
HETATM   19  C   UNL     1      29.192  45.454  55.395  1.00  0.00     0.276 C 
HETATM   20  O   UNL     1      29.039  46.656  55.211  1.00  0.00    -0.266 OA
HETATM   21  H   UNL     1      28.836  43.505  55.051  1.00  0.00     0.169 HD
BRANCH  19  22
HETATM   22  C   UNL     1      30.149  44.941  56.393  1.00  0.00     0.146 A 
HETATM   23  N   UNL     1      30.297  45.522  57.604  1.00  0.00    -0.170 NA
HETATM   24  N   UNL     1      31.250  44.786  58.204  1.00  0.00    -0.289 N 
HETATM   25  H   UNL     1      31.538  45.042  59.143  1.00  0.00     0.188 HD
HETATM   26  C   UNL     1      31.714  43.761  57.436  1.00  0.00     0.112 A 
HETATM   27  C   UNL     1      31.020  43.830  56.253  1.00  0.00     0.058 A 
ENDBRANCH  19  22
ENDBRANCH   3  18
TORSDOF 4
ENDMDL
