MODEL 1
REMARK VINA RESULT:      -8.8      0.000      0.000
REMARK  9 active torsions:
REMARK  status: ('A' for Active; 'I' for Inactive)
REMARK    1  A    between atoms: C_2  and  N_3 
REMARK    2  A    between atoms: C_4  and  S_5 
REMARK    3  A    between atoms: S_5  and  C_6 
REMARK    4  A    between atoms: C_6  and  C_7 
REMARK       I    between atoms: C_7  and  N_8 
REMARK    5  A    between atoms: N_8  and  C_9 
REMARK    6  A    between atoms: C_9  and  C_10 
REMARK    7  A    between atoms: C_10  and  C_11 
REMARK    8  A    between atoms: C_20  and  C_21 
REMARK    9  A    between atoms: C_24  and  O_25 
ROOT
HETATM    1  N   UNL     1      26.627  44.636  53.013  1.00  0.00    -0.308 N 
HETATM    2  C   UNL     1      26.159  44.352  51.753  1.00  0.00     0.192 A 
HETATM    3  N   UNL     1      27.114  43.841  51.020  1.00  0.00    -0.122 NA
HETATM    4  N   UNL     1      28.222  43.741  51.808  1.00  0.00    -0.128 NA
HETATM    5  C   UNL     1      27.949  44.210  53.019  1.00  0.00     0.164 A 
ENDROOT
BRANCH   2   6
HETATM    6  S   UNL     1      24.534  44.614  51.219  1.00  0.00    -0.081 SA
BRANCH   6   7
HETATM    7  C   UNL     1      24.809  45.690  49.785  1.00  0.00     0.185 C 
BRANCH   7   8
HETATM    8  C   UNL     1      24.278  47.091  50.019  1.00  0.00     0.227 C 
HETATM    9  N   UNL     1      23.137  47.412  49.313  1.00  0.00    -0.360 N 
HETATM   10  H   UNL     1      22.734  46.704  48.698  1.00  0.00     0.162 HD
HETATM   11  O   UNL     1      24.860  47.892  50.748  1.00  0.00    -0.273 OA
BRANCH   9  12
HETATM   12  C   UNL     1      22.640  48.771  49.255  1.00  0.00     0.127 C 
BRANCH  12  13
HETATM   13  C   UNL     1      21.490  48.929  48.261  1.00  0.00     0.058 C 
BRANCH  13  14
HETATM   14  C   UNL     1      20.486  49.951  48.730  1.00  0.00    -0.057 A 
HETATM   15  C   UNL     1      20.466  51.234  48.167  1.00  0.00     0.007 A 
HETATM   16  C   UNL     1      19.559  52.193  48.621  1.00  0.00     0.001 A 
HETATM   17  C   UNL     1      18.666  51.880  49.643  1.00  0.00     0.000 A 
HETATM   18  C   UNL     1      18.680  50.609  50.213  1.00  0.00     0.001 A 
HETATM   19  C   UNL     1      19.586  49.648  49.761  1.00  0.00     0.007 A 
ENDBRANCH  13  14
ENDBRANCH  12  13
ENDBRANCH   9  12
ENDBRANCH   7   8
ENDBRANCH   6   7
ENDBRANCH   2   6
BRANCH   1  20
HETATM   20  C   UNL     1      25.869  45.252  54.080  1.00  0.00     0.128 C 
HETATM   21  C   UNL     1      25.860  46.768  54.027  1.00  0.00     0.027 C 
ENDBRANCH   1  20
BRANCH   5  22
HETATM   22  C   UNL     1      28.926  44.164  54.122  1.00  0.00     0.012 A 
HETATM   23  C   UNL     1      28.974  45.263  54.997  1.00  0.00     0.018 A 
HETATM   24  C   UNL     1      29.844  45.289  56.093  1.00  0.00     0.037 A 
HETATM   25  C   UNL     1      30.694  44.217  56.346  1.00  0.00     0.068 A 
HETATM   26  C   UNL     1      30.659  43.116  55.493  1.00  0.00     0.037 A 
HETATM   27  C   UNL     1      29.772  43.086  54.403  1.00  0.00     0.018 A 
BRANCH  25  28
HETATM   28  O   UNL     1      31.489  44.361  57.448  1.00  0.00    -0.356 OA
HETATM   29  C   UNL     1      31.006  45.204  58.487  1.00  0.00     0.210 C 
ENDBRANCH  25  28
ENDBRANCH   5  22
TORSDOF 9
ENDMDL
MODEL 2
REMARK VINA RESULT:      -8.7      2.263     11.073
REMARK  9 active torsions:
REMARK  status: ('A' for Active; 'I' for Inactive)
REMARK    1  A    between atoms: C_2  and  N_3 
REMARK    2  A    between atoms: C_4  and  S_5 
REMARK    3  A    between atoms: S_5  and  C_6 
REMARK    4  A    between atoms: C_6  and  C_7 
REMARK       I    between atoms: C_7  and  N_8 
REMARK    5  A    between atoms: N_8  and  C_9 
REMARK    6  A    between atoms: C_9  and  C_10 
REMARK    7  A    between atoms: C_10  and  C_11 
REMARK    8  A    between atoms: C_20  and  C_21 
REMARK    9  A    between atoms: C_24  and  O_25 
ROOT
HETATM    1  N   UNL     1      21.892  47.565  48.779  1.00  0.00    -0.308 N 
HETATM    2  C   UNL     1      23.111  47.030  49.118  1.00  0.00     0.192 A 
HETATM    3  N   UNL     1      23.882  47.951  49.636  1.00  0.00    -0.122 NA
HETATM    4  N   UNL     1      23.158  49.106  49.684  1.00  0.00    -0.128 NA
HETATM    5  C   UNL     1      21.950  48.895  49.178  1.00  0.00     0.164 A 
ENDROOT
BRANCH   2   6
HETATM    6  S   UNL     1      23.556  45.371  48.909  1.00  0.00    -0.081 SA
BRANCH   6   7
HETATM    7  C   UNL     1      25.185  45.345  49.705  1.00  0.00     0.185 C 
BRANCH   7   8
HETATM    8  C   UNL     1      25.096  44.952  51.167  1.00  0.00     0.227 C 
HETATM    9  N   UNL     1      26.214  45.236  51.921  1.00  0.00    -0.360 N 
HETATM   10  H   UNL     1      27.008  45.683  51.460  1.00  0.00     0.162 HD
HETATM   11  O   UNL     1      24.111  44.375  51.623  1.00  0.00    -0.273 OA
BRANCH   9  12
HETATM   12  C   UNL     1      26.371  44.723  53.266  1.00  0.00     0.127 C 
BRANCH  12  13
HETATM   13  C   UNL     1      27.260  45.616  54.130  1.00  0.00     0.058 C 
BRANCH  13  14
HETATM   14  C   UNL     1      28.494  44.886  54.598  1.00  0.00    -0.057 A 
HETATM   15  C   UNL     1      28.846  43.654  54.028  1.00  0.00     0.007 A 
HETATM   16  C   UNL     1      29.969  42.959  54.480  1.00  0.00     0.001 A 
HETATM   17  C   UNL     1      30.749  43.487  55.507  1.00  0.00     0.000 A 
HETATM   18  C   UNL     1      30.406  44.709  56.083  1.00  0.00     0.001 A 
HETATM   19  C   UNL     1      29.283  45.405  55.632  1.00  0.00     0.007 A 
ENDBRANCH  13  14
ENDBRANCH  12  13
ENDBRANCH   9  12
ENDBRANCH   7   8
ENDBRANCH   6   7
ENDBRANCH   2   6
BRANCH   1  20
HETATM   20  C   UNL     1      20.803  46.858  48.140  1.00  0.00     0.128 C 
HETATM   21  C   UNL     1      20.866  46.880  46.624  1.00  0.00     0.027 C 
ENDBRANCH   1  20
BRANCH   5  22
HETATM   22  C   UNL     1      20.907  49.936  49.163  1.00  0.00     0.012 A 
HETATM   23  C   UNL     1      19.811  49.775  50.028  1.00  0.00     0.018 A 
HETATM   24  C   UNL     1      18.793  50.731  50.107  1.00  0.00     0.037 A 
HETATM   25  C   UNL     1      18.840  51.880  49.321  1.00  0.00     0.068 A 
HETATM   26  C   UNL     1      19.920  52.060  48.460  1.00  0.00     0.037 A 
HETATM   27  C   UNL     1      20.949  51.105  48.395  1.00  0.00     0.018 A 
BRANCH  25  28
HETATM   28  O   UNL     1      17.792  52.738  49.495  1.00  0.00    -0.356 OA
HETATM   29  C   UNL     1      16.526  52.161  49.792  1.00  0.00     0.210 C 
ENDBRANCH  25  28
ENDBRANCH   5  22
TORSDOF 9
ENDMDL
MODEL 3
REMARK VINA RESULT:      -8.6      1.654      2.247
REMARK  9 active torsions:
REMARK  status: ('A' for Active; 'I' for Inactive)
REMARK    1  A    between atoms: C_2  and  N_3 
REMARK    2  A    between atoms: C_4  and  S_5 
REMARK    3  A    between atoms: S_5  and  C_6 
REMARK    4  A    between atoms: C_6  and  C_7 
REMARK       I    between atoms: C_7  and  N_8 
REMARK    5  A    between atoms: N_8  and  C_9 
REMARK    6  A    between atoms: C_9  and  C_10 
REMARK    7  A    between atoms: C_10  and  C_11 
REMARK    8  A    between atoms: C_20  and  C_21 
REMARK    9  A    between atoms: C_24  and  O_25 
ROOT
HETATM    1  N   UNL     1      26.474  45.690  51.949  1.00  0.00    -0.308 N 
HETATM    2  C   UNL     1      25.586  46.731  51.826  1.00  0.00     0.192 A 
HETATM    3  N   UNL     1      25.504  47.392  52.951  1.00  0.00    -0.122 NA
HETATM    4  N   UNL     1      26.377  46.815  53.826  1.00  0.00    -0.128 NA
HETATM    5  C   UNL     1      26.980  45.789  53.239  1.00  0.00     0.164 A 
ENDROOT
BRANCH   2   6
HETATM    6  S   UNL     1      24.716  47.123  50.383  1.00  0.00    -0.081 SA
BRANCH   6   7
HETATM    7  C   UNL     1      25.885  48.244  49.566  1.00  0.00     0.185 C 
BRANCH   7   8
HETATM    8  C   UNL     1      25.175  49.337  48.791  1.00  0.00     0.227 C 
HETATM    9  N   UNL     1      23.845  49.513  49.109  1.00  0.00    -0.360 N 
HETATM   10  H   UNL     1      23.436  48.915  49.828  1.00  0.00     0.162 HD
HETATM   11  O   UNL     1      25.742  49.978  47.908  1.00  0.00    -0.273 OA
BRANCH   9  12
HETATM   12  C   UNL     1      22.979  50.353  48.307  1.00  0.00     0.127 C 
BRANCH  12  13
HETATM   13  C   UNL     1      21.655  49.671  47.969  1.00  0.00     0.058 C 
BRANCH  13  14
HETATM   14  C   UNL     1      20.484  50.392  48.588  1.00  0.00    -0.057 A 
HETATM   15  C   UNL     1      20.174  51.703  48.199  1.00  0.00     0.007 A 
HETATM   16  C   UNL     1      19.111  52.385  48.792  1.00  0.00     0.001 A 
HETATM   17  C   UNL     1      18.350  51.767  49.782  1.00  0.00     0.000 A 
HETATM   18  C   UNL     1      18.652  50.466  50.179  1.00  0.00     0.001 A 
HETATM   19  C   UNL     1      19.715  49.781  49.587  1.00  0.00     0.007 A 
ENDBRANCH  13  14
ENDBRANCH  12  13
ENDBRANCH   9  12
ENDBRANCH   7   8
ENDBRANCH   6   7
ENDBRANCH   2   6
BRANCH   1  20
HETATM   20  C   UNL     1      26.787  44.717  50.925  1.00  0.00     0.128 C 
HETATM   21  C   UNL     1      25.860  43.515  50.921  1.00  0.00     0.027 C 
ENDBRANCH   1  20
BRANCH   5  22
HETATM   22  C   UNL     1      28.040  45.010  53.905  1.00  0.00     0.012 A 
HETATM   23  C   UNL     1      28.730  45.620  54.967  1.00  0.00     0.018 A 
HETATM   24  C   UNL     1      29.725  44.941  55.679  1.00  0.00     0.037 A 
HETATM   25  C   UNL     1      30.061  43.631  55.350  1.00  0.00     0.068 A 
HETATM   26  C   UNL     1      29.386  43.007  54.304  1.00  0.00     0.037 A 
HETATM   27  C   UNL     1      28.376  43.687  53.600  1.00  0.00     0.018 A 
BRANCH  25  28
HETATM   28  O   UNL     1      31.042  43.078  56.124  1.00  0.00    -0.356 OA
HETATM   29  C   UNL     1      31.464  43.821  57.261  1.00  0.00     0.210 C 
ENDBRANCH  25  28
ENDBRANCH   5  22
TORSDOF 9
ENDMDL
MODEL 4
REMARK VINA RESULT:      -8.5      2.142     10.442
REMARK  9 active torsions:
REMARK  status: ('A' for Active; 'I' for Inactive)
REMARK    1  A    between atoms: C_2  and  N_3 
REMARK    2  A    between atoms: C_4  and  S_5 
REMARK    3  A    between atoms: S_5  and  C_6 
REMARK    4  A    between atoms: C_6  and  C_7 
REMARK       I    between atoms: C_7  and  N_8 
REMARK    5  A    between atoms: N_8  and  C_9 
REMARK    6  A    between atoms: C_9  and  C_10 
REMARK    7  A    between atoms: C_10  and  C_11 
REMARK    8  A    between atoms: C_20  and  C_21 
REMARK    9  A    between atoms: C_24  and  O_25 
ROOT
HETATM    1  N   UNL     1      24.477  46.770  49.578  1.00  0.00    -0.308 N 
HETATM    2  C   UNL     1      24.672  45.434  49.323  1.00  0.00     0.192 A 
HETATM    3  N   UNL     1      23.678  44.959  48.618  1.00  0.00    -0.122 NA
HETATM    4  N   UNL     1      22.830  45.995  48.361  1.00  0.00    -0.128 NA
HETATM    5  C   UNL     1      23.296  47.101  48.926  1.00  0.00     0.164 A 
ENDROOT
BRANCH   2   6
HETATM    6  S   UNL     1      26.043  44.517  49.842  1.00  0.00    -0.081 SA
BRANCH   6   7
HETATM    7  C   UNL     1      25.298  43.472  51.124  1.00  0.00     0.185 C 
BRANCH   7   8
HETATM    8  C   UNL     1      26.100  43.496  52.411  1.00  0.00     0.227 C 
HETATM    9  N   UNL     1      27.063  42.516  52.521  1.00  0.00    -0.360 N 
HETATM   10  H   UNL     1      27.174  41.857  51.748  1.00  0.00     0.162 HD
HETATM   11  O   UNL     1      25.863  44.304  53.307  1.00  0.00    -0.273 OA
BRANCH   9  12
HETATM   12  C   UNL     1      27.752  42.267  53.771  1.00  0.00     0.127 C 
BRANCH  12  13
HETATM   13  C   UNL     1      29.240  42.603  53.693  1.00  0.00     0.058 C 
BRANCH  13  14
HETATM   14  C   UNL     1      29.643  43.597  54.753  1.00  0.00    -0.057 A 
HETATM   15  C   UNL     1      30.729  43.331  55.597  1.00  0.00     0.007 A 
HETATM   16  C   UNL     1      31.085  44.234  56.600  1.00  0.00     0.001 A 
HETATM   17  C   UNL     1      30.357  45.409  56.771  1.00  0.00     0.000 A 
HETATM   18  C   UNL     1      29.272  45.682  55.940  1.00  0.00     0.001 A 
HETATM   19  C   UNL     1      28.915  44.780  54.936  1.00  0.00     0.007 A 
ENDBRANCH  13  14
ENDBRANCH  12  13
ENDBRANCH   9  12
ENDBRANCH   7   8
ENDBRANCH   6   7
ENDBRANCH   2   6
BRANCH   1  20
HETATM   20  C   UNL     1      25.346  47.617  50.367  1.00  0.00     0.128 C 
HETATM   21  C   UNL     1      26.488  48.227  49.576  1.00  0.00     0.027 C 
ENDBRANCH   1  20
BRANCH   5  22
HETATM   22  C   UNL     1      22.640  48.411  48.760  1.00  0.00     0.012 A 
HETATM   23  C   UNL     1      21.293  48.520  49.148  1.00  0.00     0.018 A 
HETATM   24  C   UNL     1      20.602  49.733  49.060  1.00  0.00     0.037 A 
HETATM   25  C   UNL     1      21.237  50.875  48.581  1.00  0.00     0.068 A 
HETATM   26  C   UNL     1      22.573  50.789  48.196  1.00  0.00     0.037 A 
HETATM   27  C   UNL     1      23.269  49.573  48.300  1.00  0.00     0.018 A 
BRANCH  25  28
HETATM   28  O   UNL     1      20.457  51.997  48.551  1.00  0.00    -0.356 OA
HETATM   29  C   UNL     1      19.195  51.923  49.203  1.00  0.00     0.210 C 
ENDBRANCH  25  28
ENDBRANCH   5  22
TORSDOF 9
ENDMDL
MODEL 5
REMARK VINA RESULT:      -8.4      2.209     10.622
REMARK  9 active torsions:
REMARK  status: ('A' for Active; 'I' for Inactive)
REMARK    1  A    between atoms: C_2  and  N_3 
REMARK    2  A    between atoms: C_4  and  S_5 
REMARK    3  A    between atoms: S_5  and  C_6 
REMARK    4  A    between atoms: C_6  and  C_7 
REMARK       I    between atoms: C_7  and  N_8 
REMARK    5  A    between atoms: N_8  and  C_9 
REMARK    6  A    between atoms: C_9  and  C_10 
REMARK    7  A    between atoms: C_10  and  C_11 
REMARK    8  A    between atoms: C_20  and  C_21 
REMARK    9  A    between atoms: C_24  and  O_25 
ROOT
HETATM    1  N   UNL     1      25.003  46.058  49.776  1.00  0.00    -0.308 N 
HETATM    2  C   UNL     1      25.920  45.782  50.761  1.00  0.00     0.192 A 
HETATM    3  N   UNL     1      26.268  46.882  51.377  1.00  0.00    -0.122 NA
HETATM    4  N   UNL     1      25.546  47.900  50.827  1.00  0.00    -0.128 NA
HETATM    5  C   UNL     1      24.769  47.424  49.862  1.00  0.00     0.164 A 
ENDROOT
BRANCH   2   6
HETATM    6  S   UNL     1      26.514  44.203  51.147  1.00  0.00    -0.081 SA
BRANCH   6   7
HETATM    7  C   UNL     1      25.795  43.955  52.794  1.00  0.00     0.185 C 
BRANCH   7   8
HETATM    8  C   UNL     1      26.829  43.484  53.798  1.00  0.00     0.227 C 
HETATM    9  N   UNL     1      28.033  43.082  53.258  1.00  0.00    -0.360 N 
HETATM   10  H   UNL     1      28.147  43.129  52.244  1.00  0.00     0.162 HD
HETATM   11  O   UNL     1      26.582  43.421  55.001  1.00  0.00    -0.273 OA
BRANCH   9  12
HETATM   12  C   UNL     1      29.031  42.401  54.056  1.00  0.00     0.127 C 
BRANCH  12  13
HETATM   13  C   UNL     1      30.341  43.182  54.141  1.00  0.00     0.058 C 
BRANCH  13  14
HETATM   14  C   UNL     1      30.493  43.869  55.474  1.00  0.00    -0.057 A 
HETATM   15  C   UNL     1      31.325  43.323  56.462  1.00  0.00     0.007 A 
HETATM   16  C   UNL     1      31.443  43.939  57.709  1.00  0.00     0.001 A 
HETATM   17  C   UNL     1      30.730  45.104  57.982  1.00  0.00     0.000 A 
HETATM   18  C   UNL     1      29.897  45.653  57.009  1.00  0.00     0.001 A 
HETATM   19  C   UNL     1      29.777  45.039  55.761  1.00  0.00     0.007 A 
ENDBRANCH  13  14
ENDBRANCH  12  13
ENDBRANCH   9  12
ENDBRANCH   7   8
ENDBRANCH   6   7
ENDBRANCH   2   6
BRANCH   1  20
HETATM   20  C   UNL     1      24.428  45.096  48.861  1.00  0.00     0.128 C 
HETATM   21  C   UNL     1      23.228  44.358  49.424  1.00  0.00     0.027 C 
ENDBRANCH   1  20
BRANCH   5  22
HETATM   22  C   UNL     1      23.810  48.270  49.130  1.00  0.00     0.012 A 
HETATM   23  C   UNL     1      22.451  47.915  49.186  1.00  0.00     0.018 A 
HETATM   24  C   UNL     1      21.467  48.681  48.552  1.00  0.00     0.037 A 
HETATM   25  C   UNL     1      21.813  49.827  47.841  1.00  0.00     0.068 A 
HETATM   26  C   UNL     1      23.154  50.199  47.778  1.00  0.00     0.037 A 
HETATM   27  C   UNL     1      24.138  49.436  48.429  1.00  0.00     0.018 A 
BRANCH  25  28
HETATM   28  O   UNL     1      20.762  50.491  47.275  1.00  0.00    -0.356 OA
HETATM   29  C   UNL     1      20.030  51.378  48.112  1.00  0.00     0.210 C 
ENDBRANCH  25  28
ENDBRANCH   5  22
TORSDOF 9
ENDMDL
MODEL 6
REMARK VINA RESULT:      -8.4     12.793     13.655
REMARK  9 active torsions:
REMARK  status: ('A' for Active; 'I' for Inactive)
REMARK    1  A    between atoms: C_2  and  N_3 
REMARK    2  A    between atoms: C_4  and  S_5 
REMARK    3  A    between atoms: S_5  and  C_6 
REMARK    4  A    between atoms: C_6  and  C_7 
REMARK       I    between atoms: C_7  and  N_8 
REMARK    5  A    between atoms: N_8  and  C_9 
REMARK    6  A    between atoms: C_9  and  C_10 
REMARK    7  A    between atoms: C_10  and  C_11 
REMARK    8  A    between atoms: C_20  and  C_21 
REMARK    9  A    between atoms: C_24  and  O_25 
ROOT
HETATM    1  N   UNL     1      31.637  48.860  40.255  1.00  0.00    -0.308 N 
HETATM    2  C   UNL     1      31.344  47.564  39.906  1.00  0.00     0.192 A 
HETATM    3  N   UNL     1      32.121  46.735  40.554  1.00  0.00    -0.122 NA
HETATM    4  N   UNL     1      32.914  47.479  41.376  1.00  0.00    -0.128 NA
HETATM    5  C   UNL     1      32.634  48.766  41.217  1.00  0.00     0.164 A 
ENDROOT
BRANCH   2   6
HETATM    6  S   UNL     1      30.110  47.095  38.788  1.00  0.00    -0.081 SA
BRANCH   6   7
HETATM    7  C   UNL     1      28.795  46.570  39.921  1.00  0.00     0.185 C 
BRANCH   7   8
HETATM    8  C   UNL     1      27.850  47.707  40.257  1.00  0.00     0.227 C 
HETATM    9  N   UNL     1      27.071  48.152  39.210  1.00  0.00    -0.360 N 
HETATM   10  H   UNL     1      27.175  47.698  38.302  1.00  0.00     0.162 HD
HETATM   11  O   UNL     1      27.826  48.222  41.374  1.00  0.00    -0.273 OA
BRANCH   9  12
HETATM   12  C   UNL     1      26.289  49.368  39.311  1.00  0.00     0.127 C 
BRANCH  12  13
HETATM   13  C   UNL     1      26.790  50.462  38.369  1.00  0.00     0.058 C 
BRANCH  13  14
HETATM   14  C   UNL     1      27.659  51.461  39.089  1.00  0.00    -0.057 A 
HETATM   15  C   UNL     1      27.662  51.517  40.490  1.00  0.00     0.007 A 
HETATM   16  C   UNL     1      28.441  52.462  41.160  1.00  0.00     0.001 A 
HETATM   17  C   UNL     1      29.221  53.361  40.437  1.00  0.00     0.000 A 
HETATM   18  C   UNL     1      29.223  53.317  39.044  1.00  0.00     0.001 A 
HETATM   19  C   UNL     1      28.445  52.373  38.373  1.00  0.00     0.007 A 
ENDBRANCH  13  14
ENDBRANCH  12  13
ENDBRANCH   9  12
ENDBRANCH   7   8
ENDBRANCH   6   7
ENDBRANCH   2   6
BRANCH   1  20
HETATM   20  C   UNL     1      31.015  50.047  39.707  1.00  0.00     0.128 C 
HETATM   21  C   UNL     1      31.878  50.779  38.698  1.00  0.00     0.027 C 
ENDBRANCH   1  20
BRANCH   5  22
HETATM   22  C   UNL     1      33.273  49.820  42.027  1.00  0.00     0.012 A 
HETATM   23  C   UNL     1      34.626  50.107  41.775  1.00  0.00     0.018 A 
HETATM   24  C   UNL     1      35.302  51.115  42.470  1.00  0.00     0.037 A 
HETATM   25  C   UNL     1      34.645  51.868  43.440  1.00  0.00     0.068 A 
HETATM   26  C   UNL     1      33.303  51.602  43.701  1.00  0.00     0.037 A 
HETATM   27  C   UNL     1      32.622  50.598  42.990  1.00  0.00     0.018 A 
BRANCH  25  28
HETATM   28  O   UNL     1      35.412  52.826  44.041  1.00  0.00    -0.356 OA
HETATM   29  C   UNL     1      36.806  52.806  43.762  1.00  0.00     0.210 C 
ENDBRANCH  25  28
ENDBRANCH   5  22
TORSDOF 9
ENDMDL
MODEL 7
REMARK VINA RESULT:      -8.3      2.348     11.396
REMARK  9 active torsions:
REMARK  status: ('A' for Active; 'I' for Inactive)
REMARK    1  A    between atoms: C_2  and  N_3 
REMARK    2  A    between atoms: C_4  and  S_5 
REMARK    3  A    between atoms: S_5  and  C_6 
REMARK    4  A    between atoms: C_6  and  C_7 
REMARK       I    between atoms: C_7  and  N_8 
REMARK    5  A    between atoms: N_8  and  C_9 
REMARK    6  A    between atoms: C_9  and  C_10 
REMARK    7  A    between atoms: C_10  and  C_11 
REMARK    8  A    between atoms: C_20  and  C_21 
REMARK    9  A    between atoms: C_24  and  O_25 
ROOT
HETATM    1  N   UNL     1      22.610  48.688  48.886  1.00  0.00    -0.308 N 
HETATM    2  C   UNL     1      23.953  48.704  49.174  1.00  0.00     0.192 A 
HETATM    3  N   UNL     1      24.372  49.936  49.310  1.00  0.00    -0.122 NA
HETATM    4  N   UNL     1      23.290  50.752  49.155  1.00  0.00    -0.128 NA
HETATM    5  C   UNL     1      22.213  50.019  48.904  1.00  0.00     0.164 A 
ENDROOT
BRANCH   2   6
HETATM    6  S   UNL     1      24.945  47.298  49.351  1.00  0.00    -0.081 SA
BRANCH   6   7
HETATM    7  C   UNL     1      24.454  46.732  51.003  1.00  0.00     0.185 C 
BRANCH   7   8
HETATM    8  C   UNL     1      25.627  46.703  51.963  1.00  0.00     0.227 C 
HETATM    9  N   UNL     1      25.752  45.547  52.703  1.00  0.00    -0.360 N 
HETATM   10  H   UNL     1      25.067  44.804  52.559  1.00  0.00     0.162 HD
HETATM   11  O   UNL     1      26.376  47.668  52.100  1.00  0.00    -0.273 OA
BRANCH   9  12
HETATM   12  C   UNL     1      26.677  45.454  53.814  1.00  0.00     0.127 C 
BRANCH  12  13
HETATM   13  C   UNL     1      27.439  44.130  53.829  1.00  0.00     0.058 C 
BRANCH  13  14
HETATM   14  C   UNL     1      28.678  44.211  54.685  1.00  0.00    -0.057 A 
HETATM   15  C   UNL     1      28.915  45.340  55.483  1.00  0.00     0.007 A 
HETATM   16  C   UNL     1      30.075  45.433  56.252  1.00  0.00     0.001 A 
HETATM   17  C   UNL     1      31.012  44.402  56.230  1.00  0.00     0.000 A 
HETATM   18  C   UNL     1      30.788  43.277  55.438  1.00  0.00     0.001 A 
HETATM   19  C   UNL     1      29.628  43.182  54.668  1.00  0.00     0.007 A 
ENDBRANCH  13  14
ENDBRANCH  12  13
ENDBRANCH   9  12
ENDBRANCH   7   8
ENDBRANCH   6   7
ENDBRANCH   2   6
BRANCH   1  20
HETATM   20  C   UNL     1      21.814  47.509  48.624  1.00  0.00     0.128 C 
HETATM   21  C   UNL     1      21.744  47.132  47.155  1.00  0.00     0.027 C 
ENDBRANCH   1  20
BRANCH   5  22
HETATM   22  C   UNL     1      20.870  50.610  48.766  1.00  0.00     0.012 A 
HETATM   23  C   UNL     1      20.266  51.137  49.920  1.00  0.00     0.018 A 
HETATM   24  C   UNL     1      19.009  51.750  49.874  1.00  0.00     0.037 A 
HETATM   25  C   UNL     1      18.316  51.854  48.671  1.00  0.00     0.068 A 
HETATM   26  C   UNL     1      18.900  51.342  47.515  1.00  0.00     0.037 A 
HETATM   27  C   UNL     1      20.170  50.741  47.561  1.00  0.00     0.018 A 
BRANCH  25  28
HETATM   28  O   UNL     1      17.105  52.478  48.757  1.00  0.00    -0.356 OA
HETATM   29  C   UNL     1      16.628  52.787  50.062  1.00  0.00     0.210 C 
ENDBRANCH  25  28
ENDBRANCH   5  22
TORSDOF 9
ENDMDL
MODEL 8
REMARK VINA RESULT:      -8.2      1.995      3.184
REMARK  9 active torsions:
REMARK  status: ('A' for Active; 'I' for Inactive)
REMARK    1  A    between atoms: C_2  and  N_3 
REMARK    2  A    between atoms: C_4  and  S_5 
REMARK    3  A    between atoms: S_5  and  C_6 
REMARK    4  A    between atoms: C_6  and  C_7 
REMARK       I    between atoms: C_7  and  N_8 
REMARK    5  A    between atoms: N_8  and  C_9 
REMARK    6  A    between atoms: C_9  and  C_10 
REMARK    7  A    between atoms: C_10  and  C_11 
REMARK    8  A    between atoms: C_20  and  C_21 
REMARK    9  A    between atoms: C_24  and  O_25 
ROOT
HETATM    1  N   UNL     1      25.329  45.456  50.547  1.00  0.00    -0.308 N 
HETATM    2  C   UNL     1      24.194  44.868  50.044  1.00  0.00     0.192 A 
HETATM    3  N   UNL     1      23.596  44.170  50.975  1.00  0.00    -0.122 NA
HETATM    4  N   UNL     1      24.313  44.327  52.124  1.00  0.00    -0.128 NA
HETATM    5  C   UNL     1      25.361  45.106  51.891  1.00  0.00     0.164 A 
ENDROOT
BRANCH   2   6
HETATM    6  S   UNL     1      23.627  45.041  48.419  1.00  0.00    -0.081 SA
BRANCH   6   7
HETATM    7  C   UNL     1      22.039  45.873  48.693  1.00  0.00     0.185 C 
BRANCH   7   8
HETATM    8  C   UNL     1      21.991  47.235  48.027  1.00  0.00     0.227 C 
HETATM    9  N   UNL     1      22.877  48.165  48.529  1.00  0.00    -0.360 N 
HETATM   10  H   UNL     1      23.493  47.883  49.293  1.00  0.00     0.162 HD
HETATM   11  O   UNL     1      21.180  47.495  47.141  1.00  0.00    -0.273 OA
BRANCH   9  12
HETATM   12  C   UNL     1      22.799  49.563  48.158  1.00  0.00     0.127 C 
BRANCH  12  13
HETATM   13  C   UNL     1      22.456  50.462  49.344  1.00  0.00     0.058 C 
BRANCH  13  14
HETATM   14  C   UNL     1      20.995  50.834  49.355  1.00  0.00    -0.057 A 
HETATM   15  C   UNL     1      20.106  50.188  50.226  1.00  0.00     0.007 A 
HETATM   16  C   UNL     1      18.748  50.506  50.217  1.00  0.00     0.001 A 
HETATM   17  C   UNL     1      18.263  51.471  49.337  1.00  0.00     0.000 A 
HETATM   18  C   UNL     1      19.137  52.118  48.465  1.00  0.00     0.001 A 
HETATM   19  C   UNL     1      20.496  51.800  48.472  1.00  0.00     0.007 A 
ENDBRANCH  13  14
ENDBRANCH  12  13
ENDBRANCH   9  12
ENDBRANCH   7   8
ENDBRANCH   6   7
ENDBRANCH   2   6
BRANCH   1  20
HETATM   20  C   UNL     1      26.269  46.263  49.799  1.00  0.00     0.128 C 
HETATM   21  C   UNL     1      26.105  47.756  50.021  1.00  0.00     0.027 C 
ENDBRANCH   1  20
BRANCH   5  22
HETATM   22  C   UNL     1      26.287  45.525  52.959  1.00  0.00     0.012 A 
HETATM   23  C   UNL     1      27.320  44.641  53.311  1.00  0.00     0.018 A 
HETATM   24  C   UNL     1      28.266  44.972  54.288  1.00  0.00     0.037 A 
HETATM   25  C   UNL     1      28.206  46.199  54.943  1.00  0.00     0.068 A 
HETATM   26  C   UNL     1      27.192  47.092  54.604  1.00  0.00     0.037 A 
HETATM   27  C   UNL     1      26.253  46.762  53.612  1.00  0.00     0.018 A 
BRANCH  25  28
HETATM   28  O   UNL     1      29.190  46.405  55.868  1.00  0.00    -0.356 OA
HETATM   29  C   UNL     1      30.036  45.303  56.168  1.00  0.00     0.210 C 
ENDBRANCH  25  28
ENDBRANCH   5  22
TORSDOF 9
ENDMDL
MODEL 9
REMARK VINA RESULT:      -8.1      1.651      2.628
REMARK  9 active torsions:
REMARK  status: ('A' for Active; 'I' for Inactive)
REMARK    1  A    between atoms: C_2  and  N_3 
REMARK    2  A    between atoms: C_4  and  S_5 
REMARK    3  A    between atoms: S_5  and  C_6 
REMARK    4  A    between atoms: C_6  and  C_7 
REMARK       I    between atoms: C_7  and  N_8 
REMARK    5  A    between atoms: N_8  and  C_9 
REMARK    6  A    between atoms: C_9  and  C_10 
REMARK    7  A    between atoms: C_10  and  C_11 
REMARK    8  A    between atoms: C_20  and  C_21 
REMARK    9  A    between atoms: C_24  and  O_25 
ROOT
HETATM    1  N   UNL     1      26.138  44.445  51.146  1.00  0.00    -0.308 N 
HETATM    2  C   UNL     1      24.794  44.609  50.916  1.00  0.00     0.192 A 
HETATM    3  N   UNL     1      24.119  44.413  52.019  1.00  0.00    -0.122 NA
HETATM    4  N   UNL     1      25.022  44.157  53.008  1.00  0.00    -0.128 NA
HETATM    5  C   UNL     1      26.250  44.177  52.504  1.00  0.00     0.164 A 
ENDROOT
BRANCH   2   6
HETATM    6  S   UNL     1      24.095  45.034  49.391  1.00  0.00    -0.081 SA
BRANCH   6   7
HETATM    7  C   UNL     1      23.987  46.838  49.550  1.00  0.00     0.185 C 
BRANCH   7   8
HETATM    8  C   UNL     1      22.668  47.375  49.027  1.00  0.00     0.227 C 
HETATM    9  N   UNL     1      22.332  48.637  49.467  1.00  0.00    -0.360 N 
HETATM   10  H   UNL     1      22.977  49.118  50.097  1.00  0.00     0.162 HD
HETATM   11  O   UNL     1      21.936  46.702  48.304  1.00  0.00    -0.273 OA
BRANCH   9  12
HETATM   12  C   UNL     1      21.014  49.192  49.241  1.00  0.00     0.127 C 
BRANCH  12  13
HETATM   13  C   UNL     1      20.932  50.671  49.615  1.00  0.00     0.058 C 
BRANCH  13  14
HETATM   14  C   UNL     1      19.665  51.306  49.099  1.00  0.00    -0.057 A 
HETATM   15  C   UNL     1      18.770  51.921  49.986  1.00  0.00     0.007 A 
HETATM   16  C   UNL     1      17.580  52.481  49.517  1.00  0.00     0.001 A 
HETATM   17  C   UNL     1      17.273  52.430  48.159  1.00  0.00     0.000 A 
HETATM   18  C   UNL     1      18.154  51.818  47.270  1.00  0.00     0.001 A 
HETATM   19  C   UNL     1      19.344  51.257  47.737  1.00  0.00     0.007 A 
ENDBRANCH  13  14
ENDBRANCH  12  13
ENDBRANCH   9  12
ENDBRANCH   7   8
ENDBRANCH   6   7
ENDBRANCH   2   6
BRANCH   1  20
HETATM   20  C   UNL     1      27.186  44.538  50.151  1.00  0.00     0.128 C 
HETATM   21  C   UNL     1      27.508  45.961  49.735  1.00  0.00     0.027 C 
ENDBRANCH   1  20
BRANCH   5  22
HETATM   22  C   UNL     1      27.451  44.012  53.343  1.00  0.00     0.012 A 
HETATM   23  C   UNL     1      28.166  42.808  53.229  1.00  0.00     0.018 A 
HETATM   24  C   UNL     1      29.338  42.580  53.959  1.00  0.00     0.037 A 
HETATM   25  C   UNL     1      29.830  43.551  54.827  1.00  0.00     0.068 A 
HETATM   26  C   UNL     1      29.138  44.754  54.950  1.00  0.00     0.037 A 
HETATM   27  C   UNL     1      27.970  44.985  54.204  1.00  0.00     0.018 A 
BRANCH  25  28
HETATM   28  O   UNL     1      30.983  43.211  55.475  1.00  0.00    -0.356 OA
HETATM   29  C   UNL     1      31.191  43.776  56.764  1.00  0.00     0.210 C 
ENDBRANCH  25  28
ENDBRANCH   5  22
TORSDOF 9
ENDMDL
MODEL 10
REMARK VINA RESULT:      -8.0     12.865     14.964
REMARK  9 active torsions:
REMARK  status: ('A' for Active; 'I' for Inactive)
REMARK    1  A    between atoms: C_2  and  N_3 
REMARK    2  A    between atoms: C_4  and  S_5 
REMARK    3  A    between atoms: S_5  and  C_6 
REMARK    4  A    between atoms: C_6  and  C_7 
REMARK       I    between atoms: C_7  and  N_8 
REMARK    5  A    between atoms: N_8  and  C_9 
REMARK    6  A    between atoms: C_9  and  C_10 
REMARK    7  A    between atoms: C_10  and  C_11 
REMARK    8  A    between atoms: C_20  and  C_21 
REMARK    9  A    between atoms: C_24  and  O_25 
ROOT
HETATM    1  N   UNL     1      33.194  50.572  42.243  1.00  0.00    -0.308 N 
HETATM    2  C   UNL     1      34.554  50.497  42.066  1.00  0.00     0.192 A 
HETATM    3  N   UNL     1      34.873  49.366  41.492  1.00  0.00    -0.122 NA
HETATM    4  N   UNL     1      33.713  48.695  41.243  1.00  0.00    -0.128 NA
HETATM    5  C   UNL     1      32.684  49.408  41.683  1.00  0.00     0.164 A 
ENDROOT
BRANCH   2   6
HETATM    6  S   UNL     1      35.681  51.729  42.519  1.00  0.00    -0.081 SA
BRANCH   6   7
HETATM    7  C   UNL     1      36.601  51.943  40.970  1.00  0.00     0.185 C 
BRANCH   7   8
HETATM    8  C   UNL     1      35.701  52.388  39.833  1.00  0.00     0.227 C 
HETATM    9  N   UNL     1      34.426  52.761  40.205  1.00  0.00    -0.360 N 
HETATM   10  H   UNL     1      34.179  52.718  41.195  1.00  0.00     0.162 HD
HETATM   11  O   UNL     1      36.075  52.363  38.663  1.00  0.00    -0.273 OA
BRANCH   9  12
HETATM   12  C   UNL     1      33.388  52.992  39.222  1.00  0.00     0.127 C 
BRANCH  12  13
HETATM   13  C   UNL     1      32.680  51.703  38.809  1.00  0.00     0.058 C 
BRANCH  13  14
HETATM   14  C   UNL     1      31.198  51.771  39.080  1.00  0.00    -0.057 A 
HETATM   15  C   UNL     1      30.696  52.642  40.057  1.00  0.00     0.007 A 
HETATM   16  C   UNL     1      29.329  52.685  40.333  1.00  0.00     0.001 A 
HETATM   17  C   UNL     1      28.451  51.856  39.638  1.00  0.00     0.000 A 
HETATM   18  C   UNL     1      28.939  50.983  38.668  1.00  0.00     0.001 A 
HETATM   19  C   UNL     1      30.307  50.939  38.390  1.00  0.00     0.007 A 
ENDBRANCH  13  14
ENDBRANCH  12  13
ENDBRANCH   9  12
ENDBRANCH   7   8
ENDBRANCH   6   7
ENDBRANCH   2   6
BRANCH   1  20
HETATM   20  C   UNL     1      32.482  51.656  42.887  1.00  0.00     0.128 C 
HETATM   21  C   UNL     1      32.540  51.611  44.402  1.00  0.00     0.027 C 
ENDBRANCH   1  20
BRANCH   5  22
HETATM   22  C   UNL     1      31.286  48.983  41.487  1.00  0.00     0.012 A 
HETATM   23  C   UNL     1      31.029  48.019  40.498  1.00  0.00     0.018 A 
HETATM   24  C   UNL     1      29.738  47.530  40.269  1.00  0.00     0.037 A 
HETATM   25  C   UNL     1      28.663  47.992  41.024  1.00  0.00     0.068 A 
HETATM   26  C   UNL     1      28.898  48.944  42.012  1.00  0.00     0.037 A 
HETATM   27  C   UNL     1      30.198  49.422  42.250  1.00  0.00     0.018 A 
BRANCH  25  28
HETATM   28  O   UNL     1      27.457  47.433  40.709  1.00  0.00    -0.356 OA
HETATM   29  C   UNL     1      26.419  48.318  40.308  1.00  0.00     0.210 C 
ENDBRANCH  25  28
ENDBRANCH   5  22
TORSDOF 9
ENDMDL
