MODEL 1
REMARK VINA RESULT:      -8.9      0.000      0.000
REMARK  5 active torsions:
REMARK  status: ('A' for Active; 'I' for Inactive)
REMARK    1  A    between atoms: C_2  and  C_3 
REMARK    2  A    between atoms: C_2  and  C_18 
REMARK       I    between atoms: C_3  and  N_4 
REMARK    3  A    between atoms: N_4  and  C_5 
REMARK    4  A    between atoms: C_7  and  C_8 
REMARK    5  A    between atoms: C_18  and  C_19 
ROOT
HETATM    1  C   UNL     1      27.582  44.225  52.529  1.00  0.00     0.226 C 
HETATM    2  N   UNL     1      26.501  45.094  52.593  1.00  0.00    -0.327 N 
HETATM    3  O   UNL     1      28.029  43.737  51.496  1.00  0.00    -0.273 OA
HETATM    4  H   UNL     1      26.081  45.233  53.503  1.00  0.00     0.169 HD
ENDROOT
BRANCH   2   5
HETATM    5  C   UNL     1      25.847  45.721  51.511  1.00  0.00     0.035 A 
HETATM    6  C   UNL     1      26.353  46.844  50.847  1.00  0.00     0.042 A 
HETATM    7  C   UNL     1      25.644  47.455  49.796  1.00  0.00    -0.021 A 
HETATM    8  C   UNL     1      24.414  46.900  49.414  1.00  0.00     0.012 A 
HETATM    9  C   UNL     1      23.899  45.783  50.073  1.00  0.00     0.003 A 
HETATM   10  C   UNL     1      24.608  45.203  51.125  1.00  0.00     0.029 A 
BRANCH   7  11
HETATM   11  C   UNL     1      26.151  48.648  49.124  1.00  0.00     0.010 A 
HETATM   12  C   UNL     1      25.491  49.613  48.321  1.00  0.00     0.152 A 
HETATM   13  N   UNL     1      26.304  50.582  47.890  1.00  0.00    -0.187 NA
HETATM   14  N   UNL     1      27.491  50.246  48.414  1.00  0.00    -0.289 N 
HETATM   15  H   UNL     1      28.289  50.845  48.226  1.00  0.00     0.188 HD
HETATM   16  C   UNL     1      27.454  49.102  49.157  1.00  0.00     0.123 A 
ENDBRANCH   7  11
ENDBRANCH   2   5
BRANCH   1  17
HETATM   17  C   UNL     1      28.133  43.875  53.918  1.00  0.00     0.078 C 
HETATM   18  C   UNL     1      27.090  43.129  54.751  1.00  0.00     0.020 C 
BRANCH  17  19
HETATM   19  C   UNL     1      28.745  45.087  54.654  1.00  0.00     0.052 C 
BRANCH  19  20
HETATM   20  C   UNL     1      29.724  44.807  55.772  1.00  0.00    -0.057 A 
HETATM   21  C   UNL     1      29.780  45.637  56.901  1.00  0.00     0.007 A 
HETATM   22  C   UNL     1      30.676  45.369  57.938  1.00  0.00     0.001 A 
HETATM   23  C   UNL     1      31.521  44.264  57.864  1.00  0.00     0.000 A 
HETATM   24  C   UNL     1      31.469  43.426  56.754  1.00  0.00     0.001 A 
HETATM   25  C   UNL     1      30.575  43.695  55.715  1.00  0.00     0.007 A 
ENDBRANCH  19  20
ENDBRANCH  17  19
ENDBRANCH   1  17
TORSDOF 5
ENDMDL
MODEL 2
REMARK VINA RESULT:      -8.7      2.452      3.738
REMARK  5 active torsions:
REMARK  status: ('A' for Active; 'I' for Inactive)
REMARK    1  A    between atoms: C_2  and  C_3 
REMARK    2  A    between atoms: C_2  and  C_18 
REMARK       I    between atoms: C_3  and  N_4 
REMARK    3  A    between atoms: N_4  and  C_5 
REMARK    4  A    between atoms: C_7  and  C_8 
REMARK    5  A    between atoms: C_18  and  C_19 
ROOT
HETATM    1  C   UNL     1      26.073  46.655  52.067  1.00  0.00     0.226 C 
HETATM    2  N   UNL     1      26.316  46.781  50.706  1.00  0.00    -0.327 N 
HETATM    3  O   UNL     1      25.644  47.549  52.788  1.00  0.00    -0.273 OA
HETATM    4  H   UNL     1      26.888  46.066  50.276  1.00  0.00     0.169 HD
ENDROOT
BRANCH   2   5
HETATM    5  C   UNL     1      25.950  47.860  49.871  1.00  0.00     0.035 A 
HETATM    6  C   UNL     1      24.625  48.168  49.543  1.00  0.00     0.042 A 
HETATM    7  C   UNL     1      24.313  49.232  48.676  1.00  0.00    -0.021 A 
HETATM    8  C   UNL     1      25.369  49.995  48.156  1.00  0.00     0.012 A 
HETATM    9  C   UNL     1      26.694  49.692  48.474  1.00  0.00     0.003 A 
HETATM   10  C   UNL     1      26.983  48.622  49.320  1.00  0.00     0.029 A 
BRANCH   7  11
HETATM   11  C   UNL     1      22.935  49.535  48.302  1.00  0.00     0.010 A 
HETATM   12  C   UNL     1      22.228  50.763  48.275  1.00  0.00     0.152 A 
HETATM   13  N   UNL     1      20.965  50.634  47.856  1.00  0.00    -0.187 NA
HETATM   14  N   UNL     1      20.854  49.321  47.611  1.00  0.00    -0.289 N 
HETATM   15  H   UNL     1      19.966  48.967  47.271  1.00  0.00     0.188 HD
HETATM   16  C   UNL     1      21.998  48.621  47.862  1.00  0.00     0.123 A 
ENDBRANCH   7  11
ENDBRANCH   2   5
BRANCH   1  17
HETATM   17  C   UNL     1      26.466  45.272  52.604  1.00  0.00     0.078 C 
HETATM   18  C   UNL     1      25.427  44.217  52.218  1.00  0.00     0.020 C 
BRANCH  17  19
HETATM   19  C   UNL     1      26.798  45.275  54.112  1.00  0.00     0.052 C 
BRANCH  19  20
HETATM   20  C   UNL     1      28.117  44.672  54.540  1.00  0.00    -0.057 A 
HETATM   21  C   UNL     1      28.555  43.452  54.005  1.00  0.00     0.007 A 
HETATM   22  C   UNL     1      29.780  42.903  54.391  1.00  0.00     0.001 A 
HETATM   23  C   UNL     1      30.586  43.570  55.310  1.00  0.00     0.000 A 
HETATM   24  C   UNL     1      30.168  44.787  55.842  1.00  0.00     0.001 A 
HETATM   25  C   UNL     1      28.942  45.335  55.458  1.00  0.00     0.007 A 
ENDBRANCH  19  20
ENDBRANCH  17  19
ENDBRANCH   1  17
TORSDOF 5
ENDMDL
MODEL 3
REMARK VINA RESULT:      -8.6      3.580      5.574
REMARK  5 active torsions:
REMARK  status: ('A' for Active; 'I' for Inactive)
REMARK    1  A    between atoms: C_2  and  C_3 
REMARK    2  A    between atoms: C_2  and  C_18 
REMARK       I    between atoms: C_3  and  N_4 
REMARK    3  A    between atoms: N_4  and  C_5 
REMARK    4  A    between atoms: C_7  and  C_8 
REMARK    5  A    between atoms: C_18  and  C_19 
ROOT
HETATM    1  C   UNL     1      26.929  44.976  54.627  1.00  0.00     0.226 C 
HETATM    2  N   UNL     1      26.752  45.037  53.250  1.00  0.00    -0.327 N 
HETATM    3  O   UNL     1      26.660  44.005  55.326  1.00  0.00    -0.273 OA
HETATM    4  H   UNL     1      26.779  45.956  52.827  1.00  0.00     0.169 HD
ENDROOT
BRANCH   2   5
HETATM    5  C   UNL     1      26.424  43.970  52.386  1.00  0.00     0.035 A 
HETATM    6  C   UNL     1      27.251  42.861  52.178  1.00  0.00     0.042 A 
HETATM    7  C   UNL     1      26.895  41.840  51.277  1.00  0.00    -0.021 A 
HETATM    8  C   UNL     1      25.675  41.952  50.596  1.00  0.00     0.012 A 
HETATM    9  C   UNL     1      24.845  43.057  50.793  1.00  0.00     0.003 A 
HETATM   10  C   UNL     1      25.224  44.067  51.676  1.00  0.00     0.029 A 
BRANCH   7  11
HETATM   11  C   UNL     1      27.772  40.699  51.030  1.00  0.00     0.010 A 
HETATM   12  C   UNL     1      27.799  39.761  49.967  1.00  0.00     0.152 A 
HETATM   13  N   UNL     1      28.773  38.855  50.090  1.00  0.00    -0.187 NA
HETATM   14  N   UNL     1      29.379  39.205  51.233  1.00  0.00    -0.289 N 
HETATM   15  H   UNL     1      30.172  38.656  51.547  1.00  0.00     0.188 HD
HETATM   16  C   UNL     1      28.820  40.297  51.833  1.00  0.00     0.123 A 
ENDBRANCH   7  11
ENDBRANCH   2   5
BRANCH   1  17
HETATM   17  C   UNL     1      27.445  46.300  55.207  1.00  0.00     0.078 C 
HETATM   18  C   UNL     1      26.707  47.492  54.597  1.00  0.00     0.020 C 
BRANCH  17  19
HETATM   19  C   UNL     1      28.981  46.437  55.141  1.00  0.00     0.052 C 
BRANCH  19  20
HETATM   20  C   UNL     1      29.807  45.487  55.979  1.00  0.00    -0.057 A 
HETATM   21  C   UNL     1      30.313  44.300  55.429  1.00  0.00     0.007 A 
HETATM   22  C   UNL     1      31.086  43.430  56.201  1.00  0.00     0.001 A 
HETATM   23  C   UNL     1      31.371  43.740  57.529  1.00  0.00     0.000 A 
HETATM   24  C   UNL     1      30.883  44.919  58.085  1.00  0.00     0.001 A 
HETATM   25  C   UNL     1      30.107  45.788  57.314  1.00  0.00     0.007 A 
ENDBRANCH  19  20
ENDBRANCH  17  19
ENDBRANCH   1  17
TORSDOF 5
ENDMDL
MODEL 4
REMARK VINA RESULT:      -8.6      2.519      8.324
REMARK  5 active torsions:
REMARK  status: ('A' for Active; 'I' for Inactive)
REMARK    1  A    between atoms: C_2  and  C_3 
REMARK    2  A    between atoms: C_2  and  C_18 
REMARK       I    between atoms: C_3  and  N_4 
REMARK    3  A    between atoms: N_4  and  C_5 
REMARK    4  A    between atoms: C_7  and  C_8 
REMARK    5  A    between atoms: C_18  and  C_19 
ROOT
HETATM    1  C   UNL     1      26.636  45.723  52.765  1.00  0.00     0.226 C 
HETATM    2  N   UNL     1      27.345  44.555  52.519  1.00  0.00    -0.327 N 
HETATM    3  O   UNL     1      26.762  46.422  53.765  1.00  0.00    -0.273 OA
HETATM    4  H   UNL     1      26.987  43.948  51.792  1.00  0.00     0.169 HD
ENDROOT
BRANCH   2   5
HETATM    5  C   UNL     1      28.449  44.059  53.246  1.00  0.00     0.035 A 
HETATM    6  C   UNL     1      28.831  44.547  54.501  1.00  0.00     0.042 A 
HETATM    7  C   UNL     1      29.961  44.043  55.170  1.00  0.00    -0.021 A 
HETATM    8  C   UNL     1      30.697  43.020  54.554  1.00  0.00     0.012 A 
HETATM    9  C   UNL     1      30.326  42.530  53.301  1.00  0.00     0.003 A 
HETATM   10  C   UNL     1      29.213  43.055  52.645  1.00  0.00     0.029 A 
BRANCH   7  11
HETATM   11  C   UNL     1      30.385  44.575  56.462  1.00  0.00     0.010 A 
HETATM   12  C   UNL     1      31.272  44.052  57.436  1.00  0.00     0.152 A 
HETATM   13  N   UNL     1      31.415  44.850  58.499  1.00  0.00    -0.187 NA
HETATM   14  N   UNL     1      30.621  45.892  58.213  1.00  0.00    -0.289 N 
HETATM   15  H   UNL     1      30.561  46.651  58.884  1.00  0.00     0.188 HD
HETATM   16  C   UNL     1      29.983  45.776  57.012  1.00  0.00     0.123 A 
ENDBRANCH   7  11
ENDBRANCH   2   5
BRANCH   1  17
HETATM   17  C   UNL     1      25.609  46.025  51.666  1.00  0.00     0.078 C 
HETATM   18  C   UNL     1      24.476  44.996  51.675  1.00  0.00     0.020 C 
BRANCH  17  19
HETATM   19  C   UNL     1      26.245  46.215  50.272  1.00  0.00     0.052 C 
BRANCH  19  20
HETATM   20  C   UNL     1      26.154  47.587  49.641  1.00  0.00    -0.057 A 
HETATM   21  C   UNL     1      27.315  48.298  49.303  1.00  0.00     0.007 A 
HETATM   22  C   UNL     1      27.229  49.559  48.708  1.00  0.00     0.001 A 
HETATM   23  C   UNL     1      25.984  50.121  48.438  1.00  0.00     0.000 A 
HETATM   24  C   UNL     1      24.824  49.422  48.761  1.00  0.00     0.001 A 
HETATM   25  C   UNL     1      24.909  48.162  49.357  1.00  0.00     0.007 A 
ENDBRANCH  19  20
ENDBRANCH  17  19
ENDBRANCH   1  17
TORSDOF 5
ENDMDL
MODEL 5
REMARK VINA RESULT:      -8.5      3.962      5.482
REMARK  5 active torsions:
REMARK  status: ('A' for Active; 'I' for Inactive)
REMARK    1  A    between atoms: C_2  and  C_3 
REMARK    2  A    between atoms: C_2  and  C_18 
REMARK       I    between atoms: C_3  and  N_4 
REMARK    3  A    between atoms: N_4  and  C_5 
REMARK    4  A    between atoms: C_7  and  C_8 
REMARK    5  A    between atoms: C_18  and  C_19 
ROOT
HETATM    1  C   UNL     1      27.080  44.683  54.578  1.00  0.00     0.226 C 
HETATM    2  N   UNL     1      27.742  44.443  53.381  1.00  0.00    -0.327 N 
HETATM    3  O   UNL     1      26.330  43.889  55.135  1.00  0.00    -0.273 OA
HETATM    4  H   UNL     1      28.131  45.248  52.905  1.00  0.00     0.169 HD
ENDROOT
BRANCH   2   5
HETATM    5  C   UNL     1      27.837  43.215  52.691  1.00  0.00     0.035 A 
HETATM    6  C   UNL     1      26.950  42.824  51.682  1.00  0.00     0.042 A 
HETATM    7  C   UNL     1      27.066  41.572  51.050  1.00  0.00    -0.021 A 
HETATM    8  C   UNL     1      28.109  40.722  51.446  1.00  0.00     0.012 A 
HETATM    9  C   UNL     1      28.996  41.101  52.454  1.00  0.00     0.003 A 
HETATM   10  C   UNL     1      28.853  42.338  53.082  1.00  0.00     0.029 A 
BRANCH   7  11
HETATM   11  C   UNL     1      26.120  41.145  50.023  1.00  0.00     0.010 A 
HETATM   12  C   UNL     1      24.947  41.766  49.524  1.00  0.00     0.152 A 
HETATM   13  N   UNL     1      24.347  41.060  48.561  1.00  0.00    -0.187 NA
HETATM   14  N   UNL     1      25.133  39.981  48.434  1.00  0.00    -0.289 N 
HETATM   15  H   UNL     1      24.882  39.280  47.744  1.00  0.00     0.188 HD
HETATM   16  C   UNL     1      26.202  39.983  49.282  1.00  0.00     0.123 A 
ENDBRANCH   7  11
ENDBRANCH   2   5
BRANCH   1  17
HETATM   17  C   UNL     1      27.335  46.099  55.112  1.00  0.00     0.078 C 
HETATM   18  C   UNL     1      26.510  47.133  54.343  1.00  0.00     0.020 C 
BRANCH  17  19
HETATM   19  C   UNL     1      28.834  46.459  55.196  1.00  0.00     0.052 C 
BRANCH  19  20
HETATM   20  C   UNL     1      29.700  45.639  56.126  1.00  0.00    -0.057 A 
HETATM   21  C   UNL     1      30.454  44.562  55.640  1.00  0.00     0.007 A 
HETATM   22  C   UNL     1      31.264  43.814  56.498  1.00  0.00     0.001 A 
HETATM   23  C   UNL     1      31.336  44.139  57.850  1.00  0.00     0.000 A 
HETATM   24  C   UNL     1      30.600  45.212  58.345  1.00  0.00     0.001 A 
HETATM   25  C   UNL     1      29.788  45.958  57.488  1.00  0.00     0.007 A 
ENDBRANCH  19  20
ENDBRANCH  17  19
ENDBRANCH   1  17
TORSDOF 5
ENDMDL
MODEL 6
REMARK VINA RESULT:      -8.3      2.725      7.967
REMARK  5 active torsions:
REMARK  status: ('A' for Active; 'I' for Inactive)
REMARK    1  A    between atoms: C_2  and  C_3 
REMARK    2  A    between atoms: C_2  and  C_18 
REMARK       I    between atoms: C_3  and  N_4 
REMARK    3  A    between atoms: N_4  and  C_5 
REMARK    4  A    between atoms: C_7  and  C_8 
REMARK    5  A    between atoms: C_18  and  C_19 
ROOT
HETATM    1  C   UNL     1      25.700  43.963  52.257  1.00  0.00     0.226 C 
HETATM    2  N   UNL     1      27.058  44.105  52.511  1.00  0.00    -0.327 N 
HETATM    3  O   UNL     1      24.805  44.307  53.021  1.00  0.00    -0.273 OA
HETATM    4  H   UNL     1      27.690  43.572  51.927  1.00  0.00     0.169 HD
ENDROOT
BRANCH   2   5
HETATM    5  C   UNL     1      27.656  44.822  53.570  1.00  0.00     0.035 A 
HETATM    6  C   UNL     1      28.688  44.311  54.365  1.00  0.00     0.042 A 
HETATM    7  C   UNL     1      29.227  45.053  55.432  1.00  0.00    -0.021 A 
HETATM    8  C   UNL     1      28.712  46.334  55.677  1.00  0.00     0.012 A 
HETATM    9  C   UNL     1      27.679  46.851  54.893  1.00  0.00     0.003 A 
HETATM   10  C   UNL     1      27.147  46.093  53.851  1.00  0.00     0.029 A 
BRANCH   7  11
HETATM   11  C   UNL     1      30.278  44.509  56.287  1.00  0.00     0.010 A 
HETATM   12  C   UNL     1      30.756  44.929  57.554  1.00  0.00     0.152 A 
HETATM   13  N   UNL     1      31.737  44.156  58.029  1.00  0.00    -0.187 NA
HETATM   14  N   UNL     1      31.896  43.234  57.069  1.00  0.00    -0.289 N 
HETATM   15  H   UNL     1      32.599  42.515  57.203  1.00  0.00     0.188 HD
HETATM   16  C   UNL     1      31.052  43.400  56.009  1.00  0.00     0.123 A 
ENDBRANCH   7  11
ENDBRANCH   2   5
BRANCH   1  17
HETATM   17  C   UNL     1      25.427  43.256  50.923  1.00  0.00     0.078 C 
HETATM   18  C   UNL     1      25.952  41.819  50.945  1.00  0.00     0.020 C 
BRANCH  17  19
HETATM   19  C   UNL     1      25.910  44.060  49.696  1.00  0.00     0.052 C 
BRANCH  19  20
HETATM   20  C   UNL     1      25.549  45.527  49.634  1.00  0.00    -0.057 A 
HETATM   21  C   UNL     1      24.216  45.931  49.474  1.00  0.00     0.007 A 
HETATM   22  C   UNL     1      23.883  47.287  49.430  1.00  0.00     0.001 A 
HETATM   23  C   UNL     1      24.876  48.255  49.555  1.00  0.00     0.000 A 
HETATM   24  C   UNL     1      26.203  47.868  49.724  1.00  0.00     0.001 A 
HETATM   25  C   UNL     1      26.537  46.512  49.766  1.00  0.00     0.007 A 
ENDBRANCH  19  20
ENDBRANCH  17  19
ENDBRANCH   1  17
TORSDOF 5
ENDMDL
MODEL 7
REMARK VINA RESULT:      -8.2      1.578      2.236
REMARK  5 active torsions:
REMARK  status: ('A' for Active; 'I' for Inactive)
REMARK    1  A    between atoms: C_2  and  C_3 
REMARK    2  A    between atoms: C_2  and  C_18 
REMARK       I    between atoms: C_3  and  N_4 
REMARK    3  A    between atoms: N_4  and  C_5 
REMARK    4  A    between atoms: C_7  and  C_8 
REMARK    5  A    between atoms: C_18  and  C_19 
ROOT
HETATM    1  C   UNL     1      27.205  43.875  52.512  1.00  0.00     0.226 C 
HETATM    2  N   UNL     1      25.817  43.829  52.492  1.00  0.00    -0.327 N 
HETATM    3  O   UNL     1      27.916  43.989  51.519  1.00  0.00    -0.273 OA
HETATM    4  H   UNL     1      25.360  43.494  53.331  1.00  0.00     0.169 HD
ENDROOT
BRANCH   2   5
HETATM    5  C   UNL     1      24.971  44.088  51.392  1.00  0.00     0.035 A 
HETATM    6  C   UNL     1      24.752  45.367  50.869  1.00  0.00     0.042 A 
HETATM    7  C   UNL     1      23.870  45.578  49.793  1.00  0.00    -0.021 A 
HETATM    8  C   UNL     1      23.219  44.465  49.240  1.00  0.00     0.012 A 
HETATM    9  C   UNL     1      23.427  43.186  49.759  1.00  0.00     0.003 A 
HETATM   10  C   UNL     1      24.291  43.000  50.837  1.00  0.00     0.029 A 
BRANCH   7  11
HETATM   11  C   UNL     1      23.612  46.915  49.267  1.00  0.00     0.010 A 
HETATM   12  C   UNL     1      24.314  48.134  49.443  1.00  0.00     0.152 A 
HETATM   13  N   UNL     1      23.765  49.157  48.781  1.00  0.00    -0.187 NA
HETATM   14  N   UNL     1      22.707  48.601  48.174  1.00  0.00    -0.289 N 
HETATM   15  H   UNL     1      22.119  49.190  47.594  1.00  0.00     0.188 HD
HETATM   16  C   UNL     1      22.570  47.268  48.432  1.00  0.00     0.123 A 
ENDBRANCH   7  11
ENDBRANCH   2   5
BRANCH   1  17
HETATM   17  C   UNL     1      27.775  43.701  53.926  1.00  0.00     0.078 C 
HETATM   18  C   UNL     1      26.661  43.418  54.936  1.00  0.00     0.020 C 
BRANCH  17  19
HETATM   19  C   UNL     1      28.705  44.856  54.355  1.00  0.00     0.052 C 
BRANCH  19  20
HETATM   20  C   UNL     1      29.649  44.604  55.510  1.00  0.00    -0.057 A 
HETATM   21  C   UNL     1      29.710  45.492  56.593  1.00  0.00     0.007 A 
HETATM   22  C   UNL     1      30.573  45.250  57.665  1.00  0.00     0.001 A 
HETATM   23  C   UNL     1      31.378  44.113  57.671  1.00  0.00     0.000 A 
HETATM   24  C   UNL     1      31.320  43.218  56.606  1.00  0.00     0.001 A 
HETATM   25  C   UNL     1      30.460  43.461  55.533  1.00  0.00     0.007 A 
ENDBRANCH  19  20
ENDBRANCH  17  19
ENDBRANCH   1  17
TORSDOF 5
ENDMDL
MODEL 8
REMARK VINA RESULT:      -8.0      4.301      6.137
REMARK  5 active torsions:
REMARK  status: ('A' for Active; 'I' for Inactive)
REMARK    1  A    between atoms: C_2  and  C_3 
REMARK    2  A    between atoms: C_2  and  C_18 
REMARK       I    between atoms: C_3  and  N_4 
REMARK    3  A    between atoms: N_4  and  C_5 
REMARK    4  A    between atoms: C_7  and  C_8 
REMARK    5  A    between atoms: C_18  and  C_19 
ROOT
HETATM    1  C   UNL     1      27.826  43.088  52.827  1.00  0.00     0.226 C 
HETATM    2  N   UNL     1      26.682  42.423  52.404  1.00  0.00    -0.327 N 
HETATM    3  O   UNL     1      28.878  43.142  52.198  1.00  0.00    -0.273 OA
HETATM    4  H   UNL     1      25.973  42.246  53.104  1.00  0.00     0.169 HD
ENDROOT
BRANCH   2   5
HETATM    5  C   UNL     1      26.444  41.863  51.131  1.00  0.00     0.035 A 
HETATM    6  C   UNL     1      27.143  40.760  50.628  1.00  0.00     0.042 A 
HETATM    7  C   UNL     1      26.893  40.261  49.336  1.00  0.00    -0.021 A 
HETATM    8  C   UNL     1      25.908  40.890  48.560  1.00  0.00     0.012 A 
HETATM    9  C   UNL     1      25.209  41.994  49.051  1.00  0.00     0.003 A 
HETATM   10  C   UNL     1      25.484  42.485  50.327  1.00  0.00     0.029 A 
BRANCH   7  11
HETATM   11  C   UNL     1      27.645  39.133  48.794  1.00  0.00     0.010 A 
HETATM   12  C   UNL     1      28.198  38.919  47.506  1.00  0.00     0.152 A 
HETATM   13  N   UNL     1      28.836  37.750  47.395  1.00  0.00    -0.187 NA
HETATM   14  N   UNL     1      28.697  37.206  48.613  1.00  0.00    -0.289 N 
HETATM   15  H   UNL     1      29.110  36.295  48.784  1.00  0.00     0.188 HD
HETATM   16  C   UNL     1      27.995  37.989  49.482  1.00  0.00     0.123 A 
ENDBRANCH   7  11
ENDBRANCH   2   5
BRANCH   1  17
HETATM   17  C   UNL     1      27.660  43.707  54.221  1.00  0.00     0.078 C 
HETATM   18  C   UNL     1      26.203  44.095  54.480  1.00  0.00     0.020 C 
BRANCH  17  19
HETATM   19  C   UNL     1      28.653  44.856  54.501  1.00  0.00     0.052 C 
BRANCH  19  20
HETATM   20  C   UNL     1      29.638  44.670  55.633  1.00  0.00    -0.057 A 
HETATM   21  C   UNL     1      29.662  45.561  56.716  1.00  0.00     0.007 A 
HETATM   22  C   UNL     1      30.564  45.380  57.767  1.00  0.00     0.001 A 
HETATM   23  C   UNL     1      31.446  44.302  57.754  1.00  0.00     0.000 A 
HETATM   24  C   UNL     1      31.427  43.405  56.690  1.00  0.00     0.001 A 
HETATM   25  C   UNL     1      30.527  43.587  55.637  1.00  0.00     0.007 A 
ENDBRANCH  19  20
ENDBRANCH  17  19
ENDBRANCH   1  17
TORSDOF 5
ENDMDL
MODEL 9
REMARK VINA RESULT:      -7.9      4.233      9.662
REMARK  5 active torsions:
REMARK  status: ('A' for Active; 'I' for Inactive)
REMARK    1  A    between atoms: C_2  and  C_3 
REMARK    2  A    between atoms: C_2  and  C_18 
REMARK       I    between atoms: C_3  and  N_4 
REMARK    3  A    between atoms: N_4  and  C_5 
REMARK    4  A    between atoms: C_7  and  C_8 
REMARK    5  A    between atoms: C_18  and  C_19 
ROOT
HETATM    1  C   UNL     1      23.568  48.439  49.527  1.00  0.00     0.226 C 
HETATM    2  N   UNL     1      23.533  47.178  50.107  1.00  0.00    -0.327 N 
HETATM    3  O   UNL     1      24.582  49.110  49.369  1.00  0.00    -0.273 OA
HETATM    4  H   UNL     1      22.627  46.835  50.400  1.00  0.00     0.169 HD
ENDROOT
BRANCH   2   5
HETATM    5  C   UNL     1      24.637  46.363  50.441  1.00  0.00     0.035 A 
HETATM    6  C   UNL     1      25.233  46.350  51.708  1.00  0.00     0.042 A 
HETATM    7  C   UNL     1      26.355  45.546  51.981  1.00  0.00    -0.021 A 
HETATM    8  C   UNL     1      26.860  44.739  50.951  1.00  0.00     0.012 A 
HETATM    9  C   UNL     1      26.275  44.749  49.683  1.00  0.00     0.003 A 
HETATM   10  C   UNL     1      25.175  45.566  49.427  1.00  0.00     0.029 A 
BRANCH   7  11
HETATM   11  C   UNL     1      27.002  45.556  53.289  1.00  0.00     0.010 A 
HETATM   12  C   UNL     1      26.945  46.499  54.346  1.00  0.00     0.152 A 
HETATM   13  N   UNL     1      27.677  46.146  55.407  1.00  0.00    -0.187 NA
HETATM   14  N   UNL     1      28.209  44.972  55.037  1.00  0.00    -0.289 N 
HETATM   15  H   UNL     1      28.817  44.490  55.692  1.00  0.00     0.188 HD
HETATM   16  C   UNL     1      27.839  44.577  53.785  1.00  0.00     0.123 A 
ENDBRANCH   7  11
ENDBRANCH   2   5
BRANCH   1  17
HETATM   17  C   UNL     1      22.169  48.949  49.154  1.00  0.00     0.078 C 
HETATM   18  C   UNL     1      21.836  48.621  47.698  1.00  0.00     0.020 C 
BRANCH  17  19
HETATM   19  C   UNL     1      21.946  50.435  49.509  1.00  0.00     0.052 C 
BRANCH  19  20
HETATM   20  C   UNL     1      20.539  50.978  49.401  1.00  0.00    -0.057 A 
HETATM   21  C   UNL     1      20.222  51.964  48.456  1.00  0.00     0.007 A 
HETATM   22  C   UNL     1      18.919  52.455  48.348  1.00  0.00     0.001 A 
HETATM   23  C   UNL     1      17.915  51.960  49.177  1.00  0.00     0.000 A 
HETATM   24  C   UNL     1      18.214  50.974  50.113  1.00  0.00     0.001 A 
HETATM   25  C   UNL     1      19.517  50.485  50.223  1.00  0.00     0.007 A 
ENDBRANCH  19  20
ENDBRANCH  17  19
ENDBRANCH   1  17
TORSDOF 5
ENDMDL
MODEL 10
REMARK VINA RESULT:      -7.9      3.365      4.937
REMARK  5 active torsions:
REMARK  status: ('A' for Active; 'I' for Inactive)
REMARK    1  A    between atoms: C_2  and  C_3 
REMARK    2  A    between atoms: C_2  and  C_18 
REMARK       I    between atoms: C_3  and  N_4 
REMARK    3  A    between atoms: N_4  and  C_5 
REMARK    4  A    between atoms: C_7  and  C_8 
REMARK    5  A    between atoms: C_18  and  C_19 
ROOT
HETATM    1  C   UNL     1      25.544  46.963  50.835  1.00  0.00     0.226 C 
HETATM    2  N   UNL     1      24.556  47.183  49.884  1.00  0.00    -0.327 N 
HETATM    3  O   UNL     1      26.344  47.808  51.223  1.00  0.00    -0.273 OA
HETATM    4  H   UNL     1      24.125  46.363  49.476  1.00  0.00     0.169 HD
ENDROOT
BRANCH   2   5
HETATM    5  C   UNL     1      24.162  48.423  49.336  1.00  0.00     0.035 A 
HETATM    6  C   UNL     1      22.900  48.992  49.538  1.00  0.00     0.042 A 
HETATM    7  C   UNL     1      22.543  50.215  48.939  1.00  0.00    -0.021 A 
HETATM    8  C   UNL     1      23.494  50.864  48.138  1.00  0.00     0.012 A 
HETATM    9  C   UNL     1      24.753  50.301  47.926  1.00  0.00     0.003 A 
HETATM   10  C   UNL     1      25.082  49.080  48.514  1.00  0.00     0.029 A 
BRANCH   7  11
HETATM   11  C   UNL     1      21.215  50.794  49.118  1.00  0.00     0.010 A 
HETATM   12  C   UNL     1      20.302  51.332  48.176  1.00  0.00     0.152 A 
HETATM   13  N   UNL     1      19.165  51.762  48.732  1.00  0.00    -0.187 NA
HETATM   14  N   UNL     1      19.341  51.501  50.036  1.00  0.00    -0.289 N 
HETATM   15  H   UNL     1      18.595  51.741  50.680  1.00  0.00     0.188 HD
HETATM   16  C   UNL     1      20.546  50.926  50.318  1.00  0.00     0.123 A 
ENDBRANCH   7  11
ENDBRANCH   2   5
BRANCH   1  17
HETATM   17  C   UNL     1      25.576  45.506  51.316  1.00  0.00     0.078 C 
HETATM   18  C   UNL     1      24.265  44.789  50.987  1.00  0.00     0.020 C 
BRANCH  17  19
HETATM   19  C   UNL     1      25.993  45.361  52.796  1.00  0.00     0.052 C 
BRANCH  19  20
HETATM   20  C   UNL     1      27.279  44.624  53.093  1.00  0.00    -0.057 A 
HETATM   21  C   UNL     1      27.860  44.680  54.368  1.00  0.00     0.007 A 
HETATM   22  C   UNL     1      29.041  43.987  54.644  1.00  0.00     0.001 A 
HETATM   23  C   UNL     1      29.651  43.223  53.652  1.00  0.00     0.000 A 
HETATM   24  C   UNL     1      29.081  43.151  52.384  1.00  0.00     0.001 A 
HETATM   25  C   UNL     1      27.901  43.846  52.107  1.00  0.00     0.007 A 
ENDBRANCH  19  20
ENDBRANCH  17  19
ENDBRANCH   1  17
TORSDOF 5
ENDMDL
