MODEL 1
REMARK VINA RESULT:      -7.7      0.000      0.000
REMARK  2 active torsions:
REMARK  status: ('A' for Active; 'I' for Inactive)
REMARK    1  A    between atoms: C_3  and  N_4 
REMARK       I    between atoms: N_4  and  C_5 
REMARK       I    between atoms: C_5  and  N_6 
REMARK    2  A    between atoms: N_6  and  C_7 
ROOT
HETATM    1  N   UNL     1      26.846  43.867  53.772  1.00  0.00    -0.307 N 
HETATM    2  C   UNL     1      27.184  43.475  52.498  1.00  0.00     0.321 C 
HETATM    3  N   UNL     1      26.850  42.146  52.301  1.00  0.00    -0.338 N 
HETATM    4  O   UNL     1      27.748  44.134  51.635  1.00  0.00    -0.247 OA
HETATM    5  H   UNL     1      26.887  43.109  54.439  1.00  0.00     0.170 HD
HETATM    6  H   UNL     1      26.073  41.814  52.860  1.00  0.00     0.164 HD
ENDROOT
BRANCH   3   7
HETATM    7  C   UNL     1      27.147  41.431  51.060  1.00  0.00     0.090 C 
HETATM    8  C   UNL     1      28.356  40.493  51.219  1.00  0.00     0.058 C 
HETATM    9  C   UNL     1      28.512  39.445  50.116  1.00  0.00     0.190 C 
HETATM   10  N   UNL     1      27.182  38.749  49.954  1.00  0.00    -0.066 N 
HETATM   11  C   UNL     1      28.992  39.995  48.767  1.00  0.00     0.033 C 
HETATM   12  H   UNL     1      26.874  38.496  50.910  1.00  0.00     0.280 HD
HETATM   13  C   UNL     1      27.253  37.427  49.237  1.00  0.00     0.270 C 
HETATM   14  C   UNL     1      26.137  39.696  49.419  1.00  0.00     0.190 C 
HETATM   15  C   UNL     1      25.885  40.762  50.486  1.00  0.00     0.058 C 
HETATM   16  C   UNL     1      26.565  40.246  48.055  1.00  0.00     0.033 C 
HETATM   17  C   UNL     1      27.969  40.838  48.015  1.00  0.00     0.004 C 
ENDBRANCH   3   7
BRANCH   1  18
HETATM   18  C   UNL     1      26.977  45.163  54.327  1.00  0.00     0.059 A 
HETATM   19  C   UNL     1      28.076  45.654  55.044  1.00  0.00    -0.032 A 
HETATM   20  C   UNL     1      29.348  44.898  55.289  1.00  0.00     0.050 C 
HETATM   21  C   UNL     1      28.007  46.967  55.547  1.00  0.00     0.028 A 
HETATM   22  C   UNL     1      26.897  47.751  55.276  1.00  0.00     0.117 A 
HETATM   23  N   UNL     1      25.854  47.327  54.541  1.00  0.00    -0.271 NA
HETATM   24  C   UNL     1      25.923  46.055  54.085  1.00  0.00     0.146 A 
ENDBRANCH   1  18
TORSDOF 2
ENDMDL
MODEL 2
REMARK VINA RESULT:      -7.3      8.445     10.287
REMARK  2 active torsions:
REMARK  status: ('A' for Active; 'I' for Inactive)
REMARK    1  A    between atoms: C_3  and  N_4 
REMARK       I    between atoms: N_4  and  C_5 
REMARK       I    between atoms: C_5  and  N_6 
REMARK    2  A    between atoms: N_6  and  C_7 
ROOT
HETATM    1  N   UNL     1      23.310  48.790  49.628  1.00  0.00    -0.307 N 
HETATM    2  C   UNL     1      22.325  48.351  48.777  1.00  0.00     0.321 C 
HETATM    3  N   UNL     1      21.078  48.544  49.347  1.00  0.00    -0.338 N 
HETATM    4  O   UNL     1      22.460  47.809  47.687  1.00  0.00    -0.247 OA
HETATM    5  H   UNL     1      23.052  48.710  50.602  1.00  0.00     0.170 HD
HETATM    6  H   UNL     1      21.024  49.313  50.004  1.00  0.00     0.164 HD
ENDROOT
BRANCH   3   7
HETATM    7  C   UNL     1      19.837  48.116  48.701  1.00  0.00     0.090 C 
HETATM    8  C   UNL     1      18.731  47.824  49.730  1.00  0.00     0.058 C 
HETATM    9  C   UNL     1      17.317  47.736  49.152  1.00  0.00     0.190 C 
HETATM   10  N   UNL     1      17.092  48.963  48.303  1.00  0.00    -0.066 N 
HETATM   11  C   UNL     1      17.032  46.467  48.339  1.00  0.00     0.033 C 
HETATM   12  H   UNL     1      17.398  49.769  48.877  1.00  0.00     0.280 HD
HETATM   13  C   UNL     1      15.646  49.261  48.009  1.00  0.00     0.270 C 
HETATM   14  C   UNL     1      17.987  48.955  47.089  1.00  0.00     0.190 C 
HETATM   15  C   UNL     1      19.431  49.085  47.576  1.00  0.00     0.058 C 
HETATM   16  C   UNL     1      17.711  47.715  46.232  1.00  0.00     0.033 C 
HETATM   17  C   UNL     1      17.738  46.393  46.991  1.00  0.00     0.004 C 
ENDBRANCH   3   7
BRANCH   1  18
HETATM   18  C   UNL     1      24.704  48.813  49.378  1.00  0.00     0.059 A 
HETATM   19  C   UNL     1      25.662  47.951  49.925  1.00  0.00    -0.032 A 
HETATM   20  C   UNL     1      25.359  46.795  50.833  1.00  0.00     0.050 C 
HETATM   21  C   UNL     1      27.012  48.152  49.578  1.00  0.00     0.028 A 
HETATM   22  C   UNL     1      27.349  49.145  48.672  1.00  0.00     0.117 A 
HETATM   23  N   UNL     1      26.444  49.949  48.085  1.00  0.00    -0.271 NA
HETATM   24  C   UNL     1      25.155  49.759  48.447  1.00  0.00     0.146 A 
ENDBRANCH   1  18
TORSDOF 2
ENDMDL
MODEL 3
REMARK VINA RESULT:      -7.3      3.009      4.728
REMARK  2 active torsions:
REMARK  status: ('A' for Active; 'I' for Inactive)
REMARK    1  A    between atoms: C_3  and  N_4 
REMARK       I    between atoms: N_4  and  C_5 
REMARK       I    between atoms: C_5  and  N_6 
REMARK    2  A    between atoms: N_6  and  C_7 
ROOT
HETATM    1  N   UNL     1      28.955  45.226  54.912  1.00  0.00    -0.307 N 
HETATM    2  C   UNL     1      28.337  44.307  54.099  1.00  0.00     0.321 C 
HETATM    3  N   UNL     1      27.644  44.950  53.088  1.00  0.00    -0.338 N 
HETATM    4  O   UNL     1      28.316  43.089  54.223  1.00  0.00    -0.247 OA
HETATM    5  H   UNL     1      28.458  46.105  54.960  1.00  0.00     0.170 HD
HETATM    6  H   UNL     1      28.020  45.852  52.821  1.00  0.00     0.164 HD
ENDROOT
BRANCH   3   7
HETATM    7  C   UNL     1      26.835  44.234  52.102  1.00  0.00     0.090 C 
HETATM    8  C   UNL     1      25.338  44.553  52.255  1.00  0.00     0.058 C 
HETATM    9  C   UNL     1      24.467  44.157  51.061  1.00  0.00     0.190 C 
HETATM   10  N   UNL     1      25.114  44.715  49.817  1.00  0.00    -0.066 N 
HETATM   11  C   UNL     1      24.230  42.650  50.908  1.00  0.00     0.033 C 
HETATM   12  H   UNL     1      25.336  45.704  50.028  1.00  0.00     0.280 HD
HETATM   13  C   UNL     1      24.202  44.798  48.622  1.00  0.00     0.270 C 
HETATM   14  C   UNL     1      26.438  44.043  49.547  1.00  0.00     0.190 C 
HETATM   15  C   UNL     1      27.392  44.423  50.680  1.00  0.00     0.058 C 
HETATM   16  C   UNL     1      26.240  42.535  49.357  1.00  0.00     0.033 C 
HETATM   17  C   UNL     1      25.448  41.849  50.463  1.00  0.00     0.004 C 
ENDBRANCH   3   7
BRANCH   1  18
HETATM   18  C   UNL     1      29.801  44.955  56.015  1.00  0.00     0.059 A 
HETATM   19  C   UNL     1      29.688  45.494  57.303  1.00  0.00    -0.032 A 
HETATM   20  C   UNL     1      28.593  46.415  57.756  1.00  0.00     0.050 C 
HETATM   21  C   UNL     1      30.649  45.126  58.264  1.00  0.00     0.028 A 
HETATM   22  C   UNL     1      31.634  44.208  57.935  1.00  0.00     0.117 A 
HETATM   23  N   UNL     1      31.731  43.629  56.726  1.00  0.00    -0.271 NA
HETATM   24  C   UNL     1      30.816  44.011  55.806  1.00  0.00     0.146 A 
ENDBRANCH   1  18
TORSDOF 2
ENDMDL
MODEL 4
REMARK VINA RESULT:      -7.3      7.811     10.776
REMARK  2 active torsions:
REMARK  status: ('A' for Active; 'I' for Inactive)
REMARK    1  A    between atoms: C_3  and  N_4 
REMARK       I    between atoms: N_4  and  C_5 
REMARK       I    between atoms: C_5  and  N_6 
REMARK    2  A    between atoms: N_6  and  C_7 
ROOT
HETATM    1  N   UNL     1      23.896  48.054  50.101  1.00  0.00    -0.307 N 
HETATM    2  C   UNL     1      22.763  48.244  49.346  1.00  0.00     0.321 C 
HETATM    3  N   UNL     1      22.117  49.406  49.735  1.00  0.00    -0.338 N 
HETATM    4  O   UNL     1      22.305  47.509  48.482  1.00  0.00    -0.247 OA
HETATM    5  H   UNL     1      23.817  48.442  51.032  1.00  0.00     0.170 HD
HETATM    6  H   UNL     1      22.722  50.119  50.126  1.00  0.00     0.164 HD
ENDROOT
BRANCH   3   7
HETATM    7  C   UNL     1      20.847  49.838  49.153  1.00  0.00     0.090 C 
HETATM    8  C   UNL     1      19.651  49.423  50.026  1.00  0.00     0.058 C 
HETATM    9  C   UNL     1      18.337  50.138  49.705  1.00  0.00     0.190 C 
HETATM   10  N   UNL     1      18.618  51.620  49.672  1.00  0.00    -0.066 N 
HETATM   11  C   UNL     1      17.664  49.695  48.401  1.00  0.00     0.033 C 
HETATM   12  H   UNL     1      19.159  51.829  50.531  1.00  0.00     0.280 HD
HETATM   13  C   UNL     1      17.396  52.490  49.798  1.00  0.00     0.270 C 
HETATM   14  C   UNL     1      19.522  51.975  48.518  1.00  0.00     0.190 C 
HETATM   15  C   UNL     1      20.885  51.331  48.780  1.00  0.00     0.058 C 
HETATM   16  C   UNL     1      18.871  51.575  47.190  1.00  0.00     0.033 C 
HETATM   17  C   UNL     1      18.377  50.135  47.127  1.00  0.00     0.004 C 
ENDBRANCH   3   7
BRANCH   1  18
HETATM   18  C   UNL     1      24.847  47.014  49.963  1.00  0.00     0.059 A 
HETATM   19  C   UNL     1      26.210  47.165  49.680  1.00  0.00    -0.032 A 
HETATM   20  C   UNL     1      26.919  48.481  49.540  1.00  0.00     0.050 C 
HETATM   21  C   UNL     1      26.994  46.002  49.549  1.00  0.00     0.028 A 
HETATM   22  C   UNL     1      26.420  44.758  49.757  1.00  0.00     0.117 A 
HETATM   23  N   UNL     1      25.128  44.586  50.088  1.00  0.00    -0.271 NA
HETATM   24  C   UNL     1      24.383  45.710  50.186  1.00  0.00     0.146 A 
ENDBRANCH   1  18
TORSDOF 2
ENDMDL
MODEL 5
REMARK VINA RESULT:      -7.2      2.456      3.797
REMARK  2 active torsions:
REMARK  status: ('A' for Active; 'I' for Inactive)
REMARK    1  A    between atoms: C_3  and  N_4 
REMARK       I    between atoms: N_4  and  C_5 
REMARK       I    between atoms: C_5  and  N_6 
REMARK    2  A    between atoms: N_6  and  C_7 
ROOT
HETATM    1  N   UNL     1      29.931  44.293  54.393  1.00  0.00    -0.307 N 
HETATM    2  C   UNL     1      28.848  43.609  53.895  1.00  0.00     0.321 C 
HETATM    3  N   UNL     1      28.952  43.485  52.519  1.00  0.00    -0.338 N 
HETATM    4  O   UNL     1      27.876  43.192  54.509  1.00  0.00    -0.247 OA
HETATM    5  H   UNL     1      30.312  44.959  53.735  1.00  0.00     0.170 HD
HETATM    6  H   UNL     1      29.900  43.479  52.162  1.00  0.00     0.164 HD
ENDROOT
BRANCH   3   7
HETATM    7  C   UNL     1      27.915  42.856  51.701  1.00  0.00     0.090 C 
HETATM    8  C   UNL     1      27.533  43.732  50.496  1.00  0.00     0.058 C 
HETATM    9  C   UNL     1      26.747  43.013  49.397  1.00  0.00     0.190 C 
HETATM   10  N   UNL     1      27.493  41.747  49.055  1.00  0.00    -0.066 N 
HETATM   11  C   UNL     1      25.290  42.694  49.751  1.00  0.00     0.033 C 
HETATM   12  H   UNL     1      28.483  42.023  48.928  1.00  0.00     0.280 HD
HETATM   13  C   UNL     1      27.117  41.140  47.729  1.00  0.00     0.270 C 
HETATM   14  C   UNL     1      27.478  40.779  50.212  1.00  0.00     0.190 C 
HETATM   15  C   UNL     1      28.285  41.404  51.351  1.00  0.00     0.058 C 
HETATM   16  C   UNL     1      26.037  40.410  50.578  1.00  0.00     0.033 C 
HETATM   17  C   UNL     1      25.106  41.597  50.794  1.00  0.00     0.004 C 
ENDBRANCH   3   7
BRANCH   1  18
HETATM   18  C   UNL     1      30.212  44.568  55.754  1.00  0.00     0.059 A 
HETATM   19  C   UNL     1      29.614  45.559  56.543  1.00  0.00    -0.032 A 
HETATM   20  C   UNL     1      28.508  46.467  56.091  1.00  0.00     0.050 C 
HETATM   21  C   UNL     1      30.051  45.701  57.874  1.00  0.00     0.028 A 
HETATM   22  C   UNL     1      31.004  44.832  58.382  1.00  0.00     0.117 A 
HETATM   23  N   UNL     1      31.552  43.835  57.666  1.00  0.00    -0.271 NA
HETATM   24  C   UNL     1      31.140  43.727  56.382  1.00  0.00     0.146 A 
ENDBRANCH   1  18
TORSDOF 2
ENDMDL
MODEL 6
REMARK VINA RESULT:      -7.2      8.785     11.350
REMARK  2 active torsions:
REMARK  status: ('A' for Active; 'I' for Inactive)
REMARK    1  A    between atoms: C_3  and  N_4 
REMARK       I    between atoms: N_4  and  C_5 
REMARK       I    between atoms: C_5  and  N_6 
REMARK    2  A    between atoms: N_6  and  C_7 
ROOT
HETATM    1  N   UNL     1      23.735  48.932  48.249  1.00  0.00    -0.307 N 
HETATM    2  C   UNL     1      22.724  49.750  48.694  1.00  0.00     0.321 C 
HETATM    3  N   UNL     1      21.545  49.461  48.028  1.00  0.00    -0.338 N 
HETATM    4  O   UNL     1      22.797  50.656  49.514  1.00  0.00    -0.247 OA
HETATM    5  H   UNL     1      23.617  48.652  47.285  1.00  0.00     0.170 HD
HETATM    6  H   UNL     1      21.464  48.506  47.701  1.00  0.00     0.164 HD
ENDROOT
BRANCH   3   7
HETATM    7  C   UNL     1      20.308  50.211  48.245  1.00  0.00     0.090 C 
HETATM    8  C   UNL     1      19.519  50.398  46.938  1.00  0.00     0.058 C 
HETATM    9  C   UNL     1      18.063  50.831  47.118  1.00  0.00     0.190 C 
HETATM   10  N   UNL     1      17.428  49.898  48.119  1.00  0.00    -0.066 N 
HETATM   11  C   UNL     1      17.874  52.289  47.554  1.00  0.00     0.033 C 
HETATM   12  H   UNL     1      17.679  48.940  47.818  1.00  0.00     0.280 HD
HETATM   13  C   UNL     1      15.922  49.896  48.102  1.00  0.00     0.270 C 
HETATM   14  C   UNL     1      18.037  50.075  49.488  1.00  0.00     0.190 C 
HETATM   15  C   UNL     1      19.495  49.620  49.410  1.00  0.00     0.058 C 
HETATM   16  C   UNL     1      17.842  51.515  49.975  1.00  0.00     0.033 C 
HETATM   17  C   UNL     1      18.287  52.590  48.990  1.00  0.00     0.004 C 
ENDBRANCH   3   7
BRANCH   1  18
HETATM   18  C   UNL     1      25.066  48.886  48.729  1.00  0.00     0.059 A 
HETATM   19  C   UNL     1      25.577  47.996  49.682  1.00  0.00    -0.032 A 
HETATM   20  C   UNL     1      24.801  46.879  50.317  1.00  0.00     0.050 C 
HETATM   21  C   UNL     1      26.928  48.127  50.057  1.00  0.00     0.028 A 
HETATM   22  C   UNL     1      27.724  49.080  49.440  1.00  0.00     0.117 A 
HETATM   23  N   UNL     1      27.276  49.907  48.480  1.00  0.00    -0.271 NA
HETATM   24  C   UNL     1      25.971  49.786  48.148  1.00  0.00     0.146 A 
ENDBRANCH   1  18
TORSDOF 2
ENDMDL
MODEL 7
REMARK VINA RESULT:      -6.9      1.451      2.512
REMARK  2 active torsions:
REMARK  status: ('A' for Active; 'I' for Inactive)
REMARK    1  A    between atoms: C_3  and  N_4 
REMARK       I    between atoms: N_4  and  C_5 
REMARK       I    between atoms: C_5  and  N_6 
REMARK    2  A    between atoms: N_6  and  C_7 
ROOT
HETATM    1  N   UNL     1      27.274  42.322  53.428  1.00  0.00    -0.307 N 
HETATM    2  C   UNL     1      27.390  42.038  52.088  1.00  0.00     0.321 C 
HETATM    3  N   UNL     1      26.839  40.799  51.811  1.00  0.00    -0.338 N 
HETATM    4  O   UNL     1      27.935  42.711  51.223  1.00  0.00    -0.247 OA
HETATM    5  H   UNL     1      27.284  41.493  54.007  1.00  0.00     0.170 HD
HETATM    6  H   UNL     1      26.097  40.513  52.438  1.00  0.00     0.164 HD
ENDROOT
BRANCH   3   7
HETATM    7  C   UNL     1      26.870  40.199  50.478  1.00  0.00     0.090 C 
HETATM    8  C   UNL     1      25.969  40.959  49.490  1.00  0.00     0.058 C 
HETATM    9  C   UNL     1      26.218  40.646  48.014  1.00  0.00     0.190 C 
HETATM   10  N   UNL     1      27.700  40.782  47.760  1.00  0.00    -0.066 N 
HETATM   11  C   UNL     1      25.724  39.268  47.555  1.00  0.00     0.033 C 
HETATM   12  H   UNL     1      27.981  41.684  48.182  1.00  0.00     0.280 HD
HETATM   13  C   UNL     1      28.073  40.932  46.309  1.00  0.00     0.270 C 
HETATM   14  C   UNL     1      28.476  39.719  48.499  1.00  0.00     0.190 C 
HETATM   15  C   UNL     1      28.317  39.985  49.996  1.00  0.00     0.058 C 
HETATM   16  C   UNL     1      28.032  38.324  48.046  1.00  0.00     0.033 C 
HETATM   17  C   UNL     1      26.527  38.087  48.086  1.00  0.00     0.004 C 
ENDBRANCH   3   7
BRANCH   1  18
HETATM   18  C   UNL     1      27.665  43.515  54.083  1.00  0.00     0.059 A 
HETATM   19  C   UNL     1      28.951  43.828  54.544  1.00  0.00    -0.032 A 
HETATM   20  C   UNL     1      30.165  42.966  54.356  1.00  0.00     0.050 C 
HETATM   21  C   UNL     1      29.138  45.058  55.203  1.00  0.00     0.028 A 
HETATM   22  C   UNL     1      28.077  45.941  55.327  1.00  0.00     0.117 A 
HETATM   23  N   UNL     1      26.848  45.693  54.843  1.00  0.00    -0.271 NA
HETATM   24  C   UNL     1      26.677  44.497  54.234  1.00  0.00     0.146 A 
ENDBRANCH   1  18
TORSDOF 2
ENDMDL
MODEL 8
REMARK VINA RESULT:      -6.8      8.341     10.854
REMARK  2 active torsions:
REMARK  status: ('A' for Active; 'I' for Inactive)
REMARK    1  A    between atoms: C_3  and  N_4 
REMARK       I    between atoms: N_4  and  C_5 
REMARK       I    between atoms: C_5  and  N_6 
REMARK    2  A    between atoms: N_6  and  C_7 
ROOT
HETATM    1  N   UNL     1      23.285  47.907  49.949  1.00  0.00    -0.307 N 
HETATM    2  C   UNL     1      22.470  48.353  48.936  1.00  0.00     0.321 C 
HETATM    3  N   UNL     1      21.374  49.018  49.461  1.00  0.00    -0.338 N 
HETATM    4  O   UNL     1      22.602  48.176  47.733  1.00  0.00    -0.247 OA
HETATM    5  H   UNL     1      22.779  47.699  50.798  1.00  0.00     0.170 HD
HETATM    6  H   UNL     1      21.533  49.456  50.360  1.00  0.00     0.164 HD
ENDROOT
BRANCH   3   7
HETATM    7  C   UNL     1      20.298  49.551  48.627  1.00  0.00     0.090 C 
HETATM    8  C   UNL     1      19.126  48.562  48.509  1.00  0.00     0.058 C 
HETATM    9  C   UNL     1      17.822  49.163  47.981  1.00  0.00     0.190 C 
HETATM   10  N   UNL     1      17.530  50.404  48.788  1.00  0.00    -0.066 N 
HETATM   11  C   UNL     1      17.824  49.491  46.483  1.00  0.00     0.033 C 
HETATM   12  H   UNL     1      17.645  50.134  49.781  1.00  0.00     0.280 HD
HETATM   13  C   UNL     1      16.104  50.880  48.708  1.00  0.00     0.270 C 
HETATM   14  C   UNL     1      18.562  51.475  48.529  1.00  0.00     0.190 C 
HETATM   15  C   UNL     1      19.900  50.971  49.070  1.00  0.00     0.058 C 
HETATM   16  C   UNL     1      18.574  51.853  47.044  1.00  0.00     0.033 C 
HETATM   17  C   UNL     1      18.696  50.676  46.084  1.00  0.00     0.004 C 
ENDBRANCH   3   7
BRANCH   1  18
HETATM   18  C   UNL     1      24.526  47.238  49.811  1.00  0.00     0.059 A 
HETATM   19  C   UNL     1      24.730  45.852  49.834  1.00  0.00    -0.032 A 
HETATM   20  C   UNL     1      23.642  44.824  49.944  1.00  0.00     0.050 C 
HETATM   21  C   UNL     1      26.049  45.373  49.712  1.00  0.00     0.028 A 
HETATM   22  C   UNL     1      27.090  46.266  49.515  1.00  0.00     0.117 A 
HETATM   23  N   UNL     1      26.916  47.597  49.429  1.00  0.00    -0.271 NA
HETATM   24  C   UNL     1      25.648  48.043  49.573  1.00  0.00     0.146 A 
ENDBRANCH   1  18
TORSDOF 2
ENDMDL
MODEL 9
REMARK VINA RESULT:      -6.8      2.811      4.059
REMARK  2 active torsions:
REMARK  status: ('A' for Active; 'I' for Inactive)
REMARK    1  A    between atoms: C_3  and  N_4 
REMARK       I    between atoms: N_4  and  C_5 
REMARK       I    between atoms: C_5  and  N_6 
REMARK    2  A    between atoms: N_6  and  C_7 
ROOT
HETATM    1  N   UNL     1      29.478  44.641  54.607  1.00  0.00    -0.307 N 
HETATM    2  C   UNL     1      28.221  44.488  54.072  1.00  0.00     0.321 C 
HETATM    3  N   UNL     1      28.307  44.162  52.729  1.00  0.00    -0.338 N 
HETATM    4  O   UNL     1      27.143  44.655  54.628  1.00  0.00    -0.247 OA
HETATM    5  H   UNL     1      30.155  44.964  53.930  1.00  0.00     0.170 HD
HETATM    6  H   UNL     1      29.152  43.669  52.464  1.00  0.00     0.164 HD
ENDROOT
BRANCH   3   7
HETATM    7  C   UNL     1      27.130  43.998  51.877  1.00  0.00     0.090 C 
HETATM    8  C   UNL     1      27.366  44.564  50.466  1.00  0.00     0.058 C 
HETATM    9  C   UNL     1      26.354  44.113  49.411  1.00  0.00     0.190 C 
HETATM   10  N   UNL     1      26.252  42.609  49.486  1.00  0.00    -0.066 N 
HETATM   11  C   UNL     1      24.964  44.748  49.540  1.00  0.00     0.033 C 
HETATM   12  H   UNL     1      27.225  42.256  49.496  1.00  0.00     0.280 HD
HETATM   13  C   UNL     1      25.647  41.963  48.268  1.00  0.00     0.270 C 
HETATM   14  C   UNL     1      25.640  42.172  50.795  1.00  0.00     0.190 C 
HETATM   15  C   UNL     1      26.615  42.548  51.912  1.00  0.00     0.058 C 
HETATM   16  C   UNL     1      24.234  42.762  50.948  1.00  0.00     0.033 C 
HETATM   17  C   UNL     1      24.145  44.268  50.732  1.00  0.00     0.004 C 
ENDBRANCH   3   7
BRANCH   1  18
HETATM   18  C   UNL     1      29.800  44.917  55.958  1.00  0.00     0.059 A 
HETATM   19  C   UNL     1      30.800  44.295  56.718  1.00  0.00    -0.032 A 
HETATM   20  C   UNL     1      31.757  43.263  56.199  1.00  0.00     0.050 C 
HETATM   21  C   UNL     1      30.950  44.685  58.063  1.00  0.00     0.028 A 
HETATM   22  C   UNL     1      30.158  45.699  58.578  1.00  0.00     0.117 A 
HETATM   23  N   UNL     1      29.232  46.354  57.855  1.00  0.00    -0.271 NA
HETATM   24  C   UNL     1      29.083  45.952  56.573  1.00  0.00     0.146 A 
ENDBRANCH   1  18
TORSDOF 2
ENDMDL
MODEL 10
REMARK VINA RESULT:      -6.7     12.783     15.180
REMARK  2 active torsions:
REMARK  status: ('A' for Active; 'I' for Inactive)
REMARK    1  A    between atoms: C_3  and  N_4 
REMARK       I    between atoms: N_4  and  C_5 
REMARK       I    between atoms: C_5  and  N_6 
REMARK    2  A    between atoms: N_6  and  C_7 
ROOT
HETATM    1  N   UNL     1      15.618  54.328  49.659  1.00  0.00    -0.307 N 
HETATM    2  C   UNL     1      16.081  53.038  49.569  1.00  0.00     0.321 C 
HETATM    3  N   UNL     1      17.405  53.031  49.161  1.00  0.00    -0.338 N 
HETATM    4  O   UNL     1      15.457  52.001  49.753  1.00  0.00    -0.247 OA
HETATM    5  H   UNL     1      16.072  54.955  49.009  1.00  0.00     0.170 HD
HETATM    6  H   UNL     1      17.933  53.858  49.415  1.00  0.00     0.164 HD
ENDROOT
BRANCH   3   7
HETATM    7  C   UNL     1      18.151  51.798  48.916  1.00  0.00     0.090 C 
HETATM    8  C   UNL     1      18.603  51.688  47.449  1.00  0.00     0.058 C 
HETATM    9  C   UNL     1      19.688  50.643  47.183  1.00  0.00     0.190 C 
HETATM   10  N   UNL     1      20.799  50.873  48.178  1.00  0.00    -0.066 N 
HETATM   11  C   UNL     1      19.209  49.187  47.247  1.00  0.00     0.033 C 
HETATM   12  H   UNL     1      21.001  51.888  48.153  1.00  0.00     0.280 HD
HETATM   13  C   UNL     1      22.112  50.237  47.804  1.00  0.00     0.270 C 
HETATM   14  C   UNL     1      20.339  50.576  49.583  1.00  0.00     0.190 C 
HETATM   15  C   UNL     1      19.275  51.611  49.952  1.00  0.00     0.058 C 
HETATM   16  C   UNL     1      19.880  49.119  49.697  1.00  0.00     0.033 C 
HETATM   17  C   UNL     1      18.869  48.682  48.644  1.00  0.00     0.004 C 
ENDBRANCH   3   7
BRANCH   1  18
HETATM   18  C   UNL     1      14.337  54.744  50.098  1.00  0.00     0.059 A 
HETATM   19  C   UNL     1      13.209  54.951  49.294  1.00  0.00    -0.032 A 
HETATM   20  C   UNL     1      13.149  54.698  47.816  1.00  0.00     0.050 C 
HETATM   21  C   UNL     1      12.025  55.398  49.913  1.00  0.00     0.028 A 
HETATM   22  C   UNL     1      11.988  55.563  51.288  1.00  0.00     0.117 A 
HETATM   23  N   UNL     1      13.037  55.315  52.091  1.00  0.00    -0.271 NA
HETATM   24  C   UNL     1      14.174  54.910  51.480  1.00  0.00     0.146 A 
ENDBRANCH   1  18
TORSDOF 2
ENDMDL
