MODEL 1
REMARK VINA RESULT:      -9.8      0.000      0.000
REMARK  6 active torsions:
REMARK  status: ('A' for Active; 'I' for Inactive)
REMARK    1  A    between atoms: C_2  and  C_3 
REMARK    2  A    between atoms: C_3  and  C_4 
REMARK    3  A    between atoms: C_3  and  C_11 
REMARK    4  A    between atoms: C_11  and  C_12 
REMARK       I    between atoms: C_12  and  N_13 
REMARK    5  A    between atoms: N_13  and  C_14 
REMARK    6  A    between atoms: C_21  and  C_22 
REMARK       I    between atoms: C_22  and  N_23 
ROOT
HETATM    1  C   UNL     1      25.832  47.572  50.414  1.00  0.00     0.035 A 
HETATM    2  C   UNL     1      24.515  47.750  49.967  1.00  0.00     0.046 A 
HETATM    3  C   UNL     1      24.243  48.715  48.970  1.00  0.00     0.030 A 
HETATM    4  C   UNL     1      25.293  49.477  48.470  1.00  0.00     0.063 A 
HETATM    5  N   UNL     1      24.729  50.308  47.545  1.00  0.00    -0.277 N 
HETATM    6  H   UNL     1      25.199  51.009  46.982  1.00  0.00     0.189 HD
HETATM    7  N   UNL     1      23.408  50.145  47.380  1.00  0.00    -0.168 NA
HETATM    8  C   UNL     1      23.092  49.159  48.252  1.00  0.00     0.156 A 
HETATM    9  C   UNL     1      26.613  49.330  48.897  1.00  0.00     0.034 A 
HETATM   10  C   UNL     1      26.860  48.357  49.872  1.00  0.00     0.032 A 
ENDROOT
BRANCH   1  11
HETATM   11  N   UNL     1      26.214  46.599  51.363  1.00  0.00    -0.327 N 
HETATM   12  C   UNL     1      26.064  46.656  52.735  1.00  0.00     0.222 C 
HETATM   13  O   UNL     1      25.662  47.627  53.372  1.00  0.00    -0.273 OA
HETATM   14  H   UNL     1      26.713  45.807  50.987  1.00  0.00     0.169 HD
BRANCH  12  15
HETATM   15  C   UNL     1      26.327  45.339  53.463  1.00  0.00     0.112 C 
BRANCH  15  16
HETATM   16  C   UNL     1      27.531  44.504  52.989  1.00  0.00     0.027 C 
BRANCH  16  17
HETATM   17  C   UNL     1      27.095  43.154  52.371  1.00  0.00     0.005 C 
HETATM   18  C   UNL     1      27.275  43.013  50.865  1.00  0.00     0.006 C 
ENDBRANCH  16  17
BRANCH  16  19
HETATM   19  C   UNL     1      28.629  44.317  54.025  1.00  0.00    -0.053 A 
HETATM   20  C   UNL     1      28.852  45.233  55.061  1.00  0.00     0.008 A 
HETATM   21  C   UNL     1      29.854  45.009  56.010  1.00  0.00     0.007 A 
HETATM   22  C   UNL     1      30.653  43.864  55.947  1.00  0.00    -0.062 A 
HETATM   23  C   UNL     1      31.744  43.648  56.953  1.00  0.00     0.048 C 
HETATM   24  C   UNL     1      30.449  42.954  54.907  1.00  0.00     0.007 A 
HETATM   25  C   UNL     1      29.442  43.174  53.962  1.00  0.00     0.008 A 
ENDBRANCH  16  19
ENDBRANCH  15  16
ENDBRANCH  12  15
ENDBRANCH   1  11
BRANCH   8  26
HETATM   26  C   UNL     1      21.713  48.664  48.366  1.00  0.00     0.270 C 
HETATM   27  N   UNL     1      21.171  48.806  49.614  1.00  0.00    -0.365 N 
HETATM   28  H   UNL     1      21.731  49.238  50.339  1.00  0.00     0.159 HD
HETATM   29  H   UNL     1      20.221  48.513  49.781  1.00  0.00     0.159 HD
HETATM   30  O   UNL     1      21.067  48.172  47.447  1.00  0.00    -0.266 OA
ENDBRANCH   8  26
TORSDOF 6
ENDMDL
MODEL 2
REMARK VINA RESULT:      -9.1      1.952      2.860
REMARK  6 active torsions:
REMARK  status: ('A' for Active; 'I' for Inactive)
REMARK    1  A    between atoms: C_2  and  C_3 
REMARK    2  A    between atoms: C_3  and  C_4 
REMARK    3  A    between atoms: C_3  and  C_11 
REMARK    4  A    between atoms: C_11  and  C_12 
REMARK       I    between atoms: C_12  and  N_13 
REMARK    5  A    between atoms: N_13  and  C_14 
REMARK    6  A    between atoms: C_21  and  C_22 
REMARK       I    between atoms: C_22  and  N_23 
ROOT
HETATM    1  C   UNL     1      24.897  46.302  50.317  1.00  0.00     0.035 A 
HETATM    2  C   UNL     1      24.305  47.570  50.228  1.00  0.00     0.046 A 
HETATM    3  C   UNL     1      23.250  47.783  49.311  1.00  0.00     0.030 A 
HETATM    4  C   UNL     1      22.841  46.728  48.504  1.00  0.00     0.063 A 
HETATM    5  N   UNL     1      21.831  47.232  47.734  1.00  0.00    -0.277 N 
HETATM    6  H   UNL     1      21.297  46.742  47.024  1.00  0.00     0.189 HD
HETATM    7  N   UNL     1      21.530  48.516  47.979  1.00  0.00    -0.168 NA
HETATM    8  C   UNL     1      22.398  48.871  48.955  1.00  0.00     0.156 A 
HETATM    9  C   UNL     1      23.412  45.457  48.561  1.00  0.00     0.034 A 
HETATM   10  C   UNL     1      24.441  45.266  49.490  1.00  0.00     0.032 A 
ENDROOT
BRANCH   1  11
HETATM   11  N   UNL     1      25.916  45.974  51.238  1.00  0.00    -0.327 N 
HETATM   12  C   UNL     1      25.784  45.301  52.437  1.00  0.00     0.222 C 
HETATM   13  O   UNL     1      24.723  44.965  52.956  1.00  0.00    -0.273 OA
HETATM   14  H   UNL     1      26.829  46.339  51.012  1.00  0.00     0.169 HD
BRANCH  12  15
HETATM   15  C   UNL     1      27.101  44.864  53.073  1.00  0.00     0.112 C 
BRANCH  15  16
HETATM   16  C   UNL     1      27.473  45.501  54.426  1.00  0.00     0.027 C 
BRANCH  16  17
HETATM   17  C   UNL     1      27.569  47.043  54.335  1.00  0.00     0.005 C 
HETATM   18  C   UNL     1      26.514  47.830  55.103  1.00  0.00     0.006 C 
ENDBRANCH  16  17
BRANCH  16  19
HETATM   19  C   UNL     1      28.697  44.903  55.101  1.00  0.00    -0.053 A 
HETATM   20  C   UNL     1      29.278  43.700  54.681  1.00  0.00     0.008 A 
HETATM   21  C   UNL     1      30.421  43.199  55.312  1.00  0.00     0.007 A 
HETATM   22  C   UNL     1      31.010  43.890  56.375  1.00  0.00    -0.062 A 
HETATM   23  C   UNL     1      32.218  43.328  57.063  1.00  0.00     0.048 C 
HETATM   24  C   UNL     1      30.426  45.081  56.812  1.00  0.00     0.007 A 
HETATM   25  C   UNL     1      29.288  45.587  56.177  1.00  0.00     0.008 A 
ENDBRANCH  16  19
ENDBRANCH  15  16
ENDBRANCH  12  15
ENDBRANCH   1  11
BRANCH   8  26
HETATM   26  C   UNL     1      22.380  50.226  49.526  1.00  0.00     0.270 C 
HETATM   27  N   UNL     1      21.248  50.517  50.237  1.00  0.00    -0.365 N 
HETATM   28  H   UNL     1      20.536  49.803  50.327  1.00  0.00     0.159 HD
HETATM   29  H   UNL     1      21.157  51.415  50.683  1.00  0.00     0.159 HD
HETATM   30  O   UNL     1      23.284  51.047  49.410  1.00  0.00    -0.266 OA
ENDBRANCH   8  26
TORSDOF 6
ENDMDL
MODEL 3
REMARK VINA RESULT:      -9.1      4.765      7.946
REMARK  6 active torsions:
REMARK  status: ('A' for Active; 'I' for Inactive)
REMARK    1  A    between atoms: C_2  and  C_3 
REMARK    2  A    between atoms: C_3  and  C_4 
REMARK    3  A    between atoms: C_3  and  C_11 
REMARK    4  A    between atoms: C_11  and  C_12 
REMARK       I    between atoms: C_12  and  N_13 
REMARK    5  A    between atoms: N_13  and  C_14 
REMARK    6  A    between atoms: C_21  and  C_22 
REMARK       I    between atoms: C_22  and  N_23 
ROOT
HETATM    1  C   UNL     1      27.240  41.619  50.285  1.00  0.00     0.035 A 
HETATM    2  C   UNL     1      28.020  40.471  50.480  1.00  0.00     0.046 A 
HETATM    3  C   UNL     1      27.669  39.271  49.820  1.00  0.00     0.030 A 
HETATM    4  C   UNL     1      26.542  39.258  49.007  1.00  0.00     0.063 A 
HETATM    5  N   UNL     1      26.458  37.984  48.523  1.00  0.00    -0.277 N 
HETATM    6  H   UNL     1      25.752  37.609  47.898  1.00  0.00     0.189 HD
HETATM    7  N   UNL     1      27.441  37.166  48.931  1.00  0.00    -0.168 NA
HETATM    8  C   UNL     1      28.201  37.949  49.732  1.00  0.00     0.156 A 
HETATM    9  C   UNL     1      25.740  40.380  48.798  1.00  0.00     0.034 A 
HETATM   10  C   UNL     1      26.118  41.561  49.446  1.00  0.00     0.032 A 
ENDROOT
BRANCH   1  11
HETATM   11  N   UNL     1      27.539  42.877  50.853  1.00  0.00    -0.327 N 
HETATM   12  C   UNL     1      26.773  43.603  51.745  1.00  0.00     0.222 C 
HETATM   13  O   UNL     1      25.637  43.314  52.114  1.00  0.00    -0.273 OA
HETATM   14  H   UNL     1      28.380  43.313  50.507  1.00  0.00     0.169 HD
BRANCH  12  15
HETATM   15  C   UNL     1      27.488  44.793  52.380  1.00  0.00     0.112 C 
BRANCH  15  16
HETATM   16  C   UNL     1      27.341  44.969  53.903  1.00  0.00     0.027 C 
BRANCH  16  17
HETATM   17  C   UNL     1      26.793  46.367  54.277  1.00  0.00     0.005 C 
HETATM   18  C   UNL     1      26.212  47.191  53.135  1.00  0.00     0.006 C 
ENDBRANCH  16  17
BRANCH  16  19
HETATM   19  C   UNL     1      28.580  44.618  54.712  1.00  0.00    -0.053 A 
HETATM   20  C   UNL     1      29.103  45.465  55.696  1.00  0.00     0.008 A 
HETATM   21  C   UNL     1      30.229  45.092  56.437  1.00  0.00     0.007 A 
HETATM   22  C   UNL     1      30.854  43.862  56.213  1.00  0.00    -0.062 A 
HETATM   23  C   UNL     1      32.077  43.484  56.994  1.00  0.00     0.048 C 
HETATM   24  C   UNL     1      30.349  43.019  55.221  1.00  0.00     0.007 A 
HETATM   25  C   UNL     1      29.219  43.388  54.486  1.00  0.00     0.008 A 
ENDBRANCH  16  19
ENDBRANCH  15  16
ENDBRANCH  12  15
ENDBRANCH   1  11
BRANCH   8  26
HETATM   26  C   UNL     1      29.412  37.421  50.376  1.00  0.00     0.270 C 
HETATM   27  N   UNL     1      29.185  36.358  51.206  1.00  0.00    -0.365 N 
HETATM   28  H   UNL     1      28.237  36.015  51.305  1.00  0.00     0.159 HD
HETATM   29  H   UNL     1      29.960  35.917  51.675  1.00  0.00     0.159 HD
HETATM   30  O   UNL     1      30.545  37.857  50.201  1.00  0.00    -0.266 OA
ENDBRANCH   8  26
TORSDOF 6
ENDMDL
MODEL 4
REMARK VINA RESULT:      -8.9      2.210      3.135
REMARK  6 active torsions:
REMARK  status: ('A' for Active; 'I' for Inactive)
REMARK    1  A    between atoms: C_2  and  C_3 
REMARK    2  A    between atoms: C_3  and  C_4 
REMARK    3  A    between atoms: C_3  and  C_11 
REMARK    4  A    between atoms: C_11  and  C_12 
REMARK       I    between atoms: C_12  and  N_13 
REMARK    5  A    between atoms: N_13  and  C_14 
REMARK    6  A    between atoms: C_21  and  C_22 
REMARK       I    between atoms: C_22  and  N_23 
ROOT
HETATM    1  C   UNL     1      24.591  45.023  50.837  1.00  0.00     0.035 A 
HETATM    2  C   UNL     1      24.611  46.368  50.440  1.00  0.00     0.046 A 
HETATM    3  C   UNL     1      23.749  46.801  49.406  1.00  0.00     0.030 A 
HETATM    4  C   UNL     1      22.915  45.872  48.796  1.00  0.00     0.063 A 
HETATM    5  N   UNL     1      22.221  46.573  47.852  1.00  0.00    -0.277 N 
HETATM    6  H   UNL     1      21.522  46.213  47.210  1.00  0.00     0.189 HD
HETATM    7  N   UNL     1      22.512  47.882  47.803  1.00  0.00    -0.168 NA
HETATM    8  C   UNL     1      23.454  48.040  48.761  1.00  0.00     0.156 A 
HETATM    9  C   UNL     1      22.875  44.526  49.161  1.00  0.00     0.034 A 
HETATM   10  C   UNL     1      23.724  44.125  50.199  1.00  0.00     0.032 A 
ENDROOT
BRANCH   1  11
HETATM   11  N   UNL     1      25.371  44.505  51.894  1.00  0.00    -0.327 N 
HETATM   12  C   UNL     1      26.722  44.215  51.881  1.00  0.00     0.222 C 
HETATM   13  O   UNL     1      27.456  44.264  50.897  1.00  0.00    -0.273 OA
HETATM   14  H   UNL     1      24.856  44.261  52.726  1.00  0.00     0.169 HD
BRANCH  12  15
HETATM   15  C   UNL     1      27.327  43.925  53.253  1.00  0.00     0.112 C 
BRANCH  15  16
HETATM   16  C   UNL     1      28.853  43.729  53.320  1.00  0.00     0.027 C 
BRANCH  16  17
HETATM   17  C   UNL     1      29.279  42.319  52.845  1.00  0.00     0.005 C 
HETATM   18  C   UNL     1      28.351  41.172  53.221  1.00  0.00     0.006 C 
ENDBRANCH  16  17
BRANCH  16  19
HETATM   19  C   UNL     1      29.487  44.086  54.656  1.00  0.00    -0.053 A 
HETATM   20  C   UNL     1      30.529  43.339  55.219  1.00  0.00     0.008 A 
HETATM   21  C   UNL     1      31.105  43.718  56.436  1.00  0.00     0.007 A 
HETATM   22  C   UNL     1      30.653  44.853  57.115  1.00  0.00    -0.062 A 
HETATM   23  C   UNL     1      31.257  45.234  58.434  1.00  0.00     0.048 C 
HETATM   24  C   UNL     1      29.601  45.593  56.570  1.00  0.00     0.007 A 
HETATM   25  C   UNL     1      29.031  45.219  55.349  1.00  0.00     0.008 A 
ENDBRANCH  16  19
ENDBRANCH  15  16
ENDBRANCH  12  15
ENDBRANCH   1  11
BRANCH   8  26
HETATM   26  C   UNL     1      24.033  49.361  49.042  1.00  0.00     0.270 C 
HETATM   27  N   UNL     1      25.324  49.508  48.613  1.00  0.00    -0.365 N 
HETATM   28  H   UNL     1      25.767  48.731  48.138  1.00  0.00     0.159 HD
HETATM   29  H   UNL     1      25.795  50.388  48.743  1.00  0.00     0.159 HD
HETATM   30  O   UNL     1      23.442  50.281  49.598  1.00  0.00    -0.266 OA
ENDBRANCH   8  26
TORSDOF 6
ENDMDL
MODEL 5
REMARK VINA RESULT:      -8.4      2.721      3.505
REMARK  6 active torsions:
REMARK  status: ('A' for Active; 'I' for Inactive)
REMARK    1  A    between atoms: C_2  and  C_3 
REMARK    2  A    between atoms: C_3  and  C_4 
REMARK    3  A    between atoms: C_3  and  C_11 
REMARK    4  A    between atoms: C_11  and  C_12 
REMARK       I    between atoms: C_12  and  N_13 
REMARK    5  A    between atoms: N_13  and  C_14 
REMARK    6  A    between atoms: C_21  and  C_22 
REMARK       I    between atoms: C_22  and  N_23 
ROOT
HETATM    1  C   UNL     1      24.685  46.228  50.247  1.00  0.00     0.035 A 
HETATM    2  C   UNL     1      24.056  45.252  49.461  1.00  0.00     0.046 A 
HETATM    3  C   UNL     1      23.046  45.637  48.550  1.00  0.00     0.030 A 
HETATM    4  C   UNL     1      22.690  46.978  48.472  1.00  0.00     0.063 A 
HETATM    5  N   UNL     1      21.704  47.037  47.528  1.00  0.00    -0.277 N 
HETATM    6  H   UNL     1      21.203  47.862  47.213  1.00  0.00     0.189 HD
HETATM    7  N   UNL     1      21.397  45.857  46.967  1.00  0.00    -0.168 NA
HETATM    8  C   UNL     1      22.222  44.981  47.587  1.00  0.00     0.156 A 
HETATM    9  C   UNL     1      23.289  47.974  49.244  1.00  0.00     0.034 A 
HETATM   10  C   UNL     1      24.299  47.571  50.125  1.00  0.00     0.032 A 
ENDROOT
BRANCH   1  11
HETATM   11  N   UNL     1      25.740  45.954  51.144  1.00  0.00    -0.327 N 
HETATM   12  C   UNL     1      25.693  45.185  52.291  1.00  0.00     0.222 C 
HETATM   13  O   UNL     1      24.680  44.692  52.782  1.00  0.00    -0.273 OA
HETATM   14  H   UNL     1      26.604  46.436  50.948  1.00  0.00     0.169 HD
BRANCH  12  15
HETATM   15  C   UNL     1      27.055  44.856  52.897  1.00  0.00     0.112 C 
BRANCH  15  16
HETATM   16  C   UNL     1      27.373  45.460  54.278  1.00  0.00     0.027 C 
BRANCH  16  17
HETATM   17  C   UNL     1      27.420  47.007  54.239  1.00  0.00     0.005 C 
HETATM   18  C   UNL     1      26.117  47.729  54.557  1.00  0.00     0.006 C 
ENDBRANCH  16  17
BRANCH  16  19
HETATM   19  C   UNL     1      28.600  44.880  54.965  1.00  0.00    -0.053 A 
HETATM   20  C   UNL     1      29.157  43.649  54.599  1.00  0.00     0.008 A 
HETATM   21  C   UNL     1      30.303  43.164  55.237  1.00  0.00     0.007 A 
HETATM   22  C   UNL     1      30.919  43.900  56.252  1.00  0.00    -0.062 A 
HETATM   23  C   UNL     1      32.131  43.358  56.950  1.00  0.00     0.048 C 
HETATM   24  C   UNL     1      30.359  45.121  56.636  1.00  0.00     0.007 A 
HETATM   25  C   UNL     1      29.218  45.610  55.993  1.00  0.00     0.008 A 
ENDBRANCH  16  19
ENDBRANCH  15  16
ENDBRANCH  12  15
ENDBRANCH   1  11
BRANCH   8  26
HETATM   26  C   UNL     1      22.210  43.554  47.235  1.00  0.00     0.270 C 
HETATM   27  N   UNL     1      22.278  43.310  45.891  1.00  0.00    -0.365 N 
HETATM   28  H   UNL     1      22.343  44.098  45.258  1.00  0.00     0.159 HD
HETATM   29  H   UNL     1      22.297  42.359  45.557  1.00  0.00     0.159 HD
HETATM   30  O   UNL     1      22.158  42.633  48.044  1.00  0.00    -0.266 OA
ENDBRANCH   8  26
TORSDOF 6
ENDMDL
MODEL 6
REMARK VINA RESULT:      -8.3      3.036      4.674
REMARK  6 active torsions:
REMARK  status: ('A' for Active; 'I' for Inactive)
REMARK    1  A    between atoms: C_2  and  C_3 
REMARK    2  A    between atoms: C_3  and  C_4 
REMARK    3  A    between atoms: C_3  and  C_11 
REMARK    4  A    between atoms: C_11  and  C_12 
REMARK       I    between atoms: C_12  and  N_13 
REMARK    5  A    between atoms: N_13  and  C_14 
REMARK    6  A    between atoms: C_21  and  C_22 
REMARK       I    between atoms: C_22  and  N_23 
ROOT
HETATM    1  C   UNL     1      25.935  46.174  51.528  1.00  0.00     0.035 A 
HETATM    2  C   UNL     1      25.940  44.898  50.946  1.00  0.00     0.046 A 
HETATM    3  C   UNL     1      25.060  44.618  49.876  1.00  0.00     0.030 A 
HETATM    4  C   UNL     1      24.197  45.616  49.440  1.00  0.00     0.063 A 
HETATM    5  N   UNL     1      23.481  45.056  48.419  1.00  0.00    -0.277 N 
HETATM    6  H   UNL     1      22.753  45.495  47.867  1.00  0.00     0.189 HD
HETATM    7  N   UNL     1      23.814  43.787  48.136  1.00  0.00    -0.168 NA
HETATM    8  C   UNL     1      24.793  43.502  49.026  1.00  0.00     0.156 A 
HETATM    9  C   UNL     1      24.160  46.892  50.000  1.00  0.00     0.034 A 
HETATM   10  C   UNL     1      25.053  47.152  51.046  1.00  0.00     0.032 A 
ENDROOT
BRANCH   1  11
HETATM   11  N   UNL     1      26.812  46.569  52.562  1.00  0.00    -0.327 N 
HETATM   12  C   UNL     1      26.559  46.587  53.920  1.00  0.00     0.222 C 
HETATM   13  O   UNL     1      25.475  46.359  54.450  1.00  0.00    -0.273 OA
HETATM   14  H   UNL     1      27.697  46.941  52.253  1.00  0.00     0.169 HD
BRANCH  12  15
HETATM   15  C   UNL     1      27.790  46.805  54.797  1.00  0.00     0.112 C 
BRANCH  15  16
HETATM   16  C   UNL     1      28.306  45.595  55.596  1.00  0.00     0.027 C 
BRANCH  16  17
HETATM   17  C   UNL     1      29.595  45.926  56.387  1.00  0.00     0.005 C 
HETATM   18  C   UNL     1      29.466  45.958  57.904  1.00  0.00     0.006 C 
ENDBRANCH  16  17
BRANCH  16  19
HETATM   19  C   UNL     1      28.456  44.312  54.793  1.00  0.00    -0.053 A 
HETATM   20  C   UNL     1      27.364  43.505  54.451  1.00  0.00     0.008 A 
HETATM   21  C   UNL     1      27.542  42.348  53.686  1.00  0.00     0.007 A 
HETATM   22  C   UNL     1      28.814  41.974  53.244  1.00  0.00    -0.062 A 
HETATM   23  C   UNL     1      28.997  40.715  52.448  1.00  0.00     0.048 C 
HETATM   24  C   UNL     1      29.910  42.764  53.596  1.00  0.00     0.007 A 
HETATM   25  C   UNL     1      29.733  43.925  54.353  1.00  0.00     0.008 A 
ENDBRANCH  16  19
ENDBRANCH  15  16
ENDBRANCH  12  15
ENDBRANCH   1  11
BRANCH   8  26
HETATM   26  C   UNL     1      25.450  42.188  49.033  1.00  0.00     0.270 C 
HETATM   27  N   UNL     1      26.663  42.167  48.402  1.00  0.00    -0.365 N 
HETATM   28  H   UNL     1      27.015  43.028  48.001  1.00  0.00     0.159 HD
HETATM   29  H   UNL     1      27.197  41.313  48.375  1.00  0.00     0.159 HD
HETATM   30  O   UNL     1      24.992  41.178  49.558  1.00  0.00    -0.266 OA
ENDBRANCH   8  26
TORSDOF 6
ENDMDL
MODEL 7
REMARK VINA RESULT:      -8.2      5.480      7.771
REMARK  6 active torsions:
REMARK  status: ('A' for Active; 'I' for Inactive)
REMARK    1  A    between atoms: C_2  and  C_3 
REMARK    2  A    between atoms: C_3  and  C_4 
REMARK    3  A    between atoms: C_3  and  C_11 
REMARK    4  A    between atoms: C_11  and  C_12 
REMARK       I    between atoms: C_12  and  N_13 
REMARK    5  A    between atoms: N_13  and  C_14 
REMARK    6  A    between atoms: C_21  and  C_22 
REMARK       I    between atoms: C_22  and  N_23 
ROOT
HETATM    1  C   UNL     1      28.168  41.545  51.669  1.00  0.00     0.035 A 
HETATM    2  C   UNL     1      28.374  40.374  50.926  1.00  0.00     0.046 A 
HETATM    3  C   UNL     1      27.876  40.291  49.605  1.00  0.00     0.030 A 
HETATM    4  C   UNL     1      27.176  41.372  49.084  1.00  0.00     0.063 A 
HETATM    5  N   UNL     1      26.823  41.000  47.818  1.00  0.00    -0.277 N 
HETATM    6  H   UNL     1      26.296  41.543  47.142  1.00  0.00     0.189 HD
HETATM    7  N   UNL     1      27.246  39.778  47.458  1.00  0.00    -0.168 NA
HETATM    8  C   UNL     1      27.903  39.328  48.552  1.00  0.00     0.156 A 
HETATM    9  C   UNL     1      26.947  42.549  49.797  1.00  0.00     0.034 A 
HETATM   10  C   UNL     1      27.466  42.615  51.095  1.00  0.00     0.032 A 
ENDROOT
BRANCH   1  11
HETATM   11  N   UNL     1      28.673  41.747  52.972  1.00  0.00    -0.327 N 
HETATM   12  C   UNL     1      29.766  42.506  53.345  1.00  0.00     0.222 C 
HETATM   13  O   UNL     1      30.553  43.054  52.577  1.00  0.00    -0.273 OA
HETATM   14  H   UNL     1      28.213  41.216  53.695  1.00  0.00     0.169 HD
BRANCH  12  15
HETATM   15  C   UNL     1      29.895  42.745  54.847  1.00  0.00     0.112 C 
BRANCH  15  16
HETATM   16  C   UNL     1      30.179  44.188  55.307  1.00  0.00     0.027 C 
BRANCH  16  17
HETATM   17  C   UNL     1      30.713  44.241  56.759  1.00  0.00     0.005 C 
HETATM   18  C   UNL     1      31.756  43.195  57.132  1.00  0.00     0.006 C 
ENDBRANCH  16  17
BRANCH  16  19
HETATM   19  C   UNL     1      29.035  45.166  55.095  1.00  0.00    -0.053 A 
HETATM   20  C   UNL     1      29.183  46.548  55.262  1.00  0.00     0.008 A 
HETATM   21  C   UNL     1      28.111  47.416  55.029  1.00  0.00     0.007 A 
HETATM   22  C   UNL     1      26.869  46.922  54.620  1.00  0.00    -0.062 A 
HETATM   23  C   UNL     1      25.719  47.859  54.401  1.00  0.00     0.048 C 
HETATM   24  C   UNL     1      26.708  45.543  54.468  1.00  0.00     0.007 A 
HETATM   25  C   UNL     1      27.781  44.675  54.694  1.00  0.00     0.008 A 
ENDBRANCH  16  19
ENDBRANCH  15  16
ENDBRANCH  12  15
ENDBRANCH   1  11
BRANCH   8  26
HETATM   26  C   UNL     1      28.545  38.005  48.558  1.00  0.00     0.270 C 
HETATM   27  N   UNL     1      27.829  37.040  49.212  1.00  0.00    -0.365 N 
HETATM   28  H   UNL     1      26.936  37.292  49.619  1.00  0.00     0.159 HD
HETATM   29  H   UNL     1      28.181  36.097  49.249  1.00  0.00     0.159 HD
HETATM   30  O   UNL     1      29.618  37.745  48.024  1.00  0.00    -0.266 OA
ENDBRANCH   8  26
TORSDOF 6
ENDMDL
MODEL 8
REMARK VINA RESULT:      -8.2      2.971      9.095
REMARK  6 active torsions:
REMARK  status: ('A' for Active; 'I' for Inactive)
REMARK    1  A    between atoms: C_2  and  C_3 
REMARK    2  A    between atoms: C_3  and  C_4 
REMARK    3  A    between atoms: C_3  and  C_11 
REMARK    4  A    between atoms: C_11  and  C_12 
REMARK       I    between atoms: C_12  and  N_13 
REMARK    5  A    between atoms: N_13  and  C_14 
REMARK    6  A    between atoms: C_21  and  C_22 
REMARK       I    between atoms: C_22  and  N_23 
ROOT
HETATM    1  C   UNL     1      25.607  46.508  51.957  1.00  0.00     0.035 A 
HETATM    2  C   UNL     1      26.066  45.209  51.693  1.00  0.00     0.046 A 
HETATM    3  C   UNL     1      26.701  44.474  52.719  1.00  0.00     0.030 A 
HETATM    4  C   UNL     1      26.871  45.069  53.963  1.00  0.00     0.063 A 
HETATM    5  N   UNL     1      27.509  44.134  54.729  1.00  0.00    -0.277 N 
HETATM    6  H   UNL     1      27.798  44.226  55.696  1.00  0.00     0.189 HD
HETATM    7  N   UNL     1      27.753  42.973  54.102  1.00  0.00    -0.168 NA
HETATM    8  C   UNL     1      27.256  43.166  52.858  1.00  0.00     0.156 A 
HETATM    9  C   UNL     1      26.434  46.360  54.258  1.00  0.00     0.034 A 
HETATM   10  C   UNL     1      25.791  47.062  53.232  1.00  0.00     0.032 A 
ENDROOT
BRANCH   1  11
HETATM   11  N   UNL     1      24.912  47.301  51.018  1.00  0.00    -0.327 N 
HETATM   12  C   UNL     1      25.429  47.937  49.906  1.00  0.00     0.222 C 
HETATM   13  O   UNL     1      26.618  48.004  49.607  1.00  0.00    -0.273 OA
HETATM   14  H   UNL     1      23.941  47.468  51.235  1.00  0.00     0.169 HD
BRANCH  12  15
HETATM   15  C   UNL     1      24.382  48.491  48.942  1.00  0.00     0.112 C 
BRANCH  15  16
HETATM   16  C   UNL     1      22.929  48.016  49.134  1.00  0.00     0.027 C 
BRANCH  16  17
HETATM   17  C   UNL     1      22.591  46.803  48.235  1.00  0.00     0.005 C 
HETATM   18  C   UNL     1      22.794  45.427  48.856  1.00  0.00     0.006 C 
ENDBRANCH  16  17
BRANCH  16  19
HETATM   19  C   UNL     1      21.877  49.108  49.021  1.00  0.00    -0.053 A 
HETATM   20  C   UNL     1      20.533  48.898  49.352  1.00  0.00     0.008 A 
HETATM   21  C   UNL     1      19.602  49.937  49.261  1.00  0.00     0.007 A 
HETATM   22  C   UNL     1      19.995  51.211  48.840  1.00  0.00    -0.062 A 
HETATM   23  C   UNL     1      18.983  52.311  48.718  1.00  0.00     0.048 C 
HETATM   24  C   UNL     1      21.330  51.425  48.491  1.00  0.00     0.007 A 
HETATM   25  C   UNL     1      22.262  50.389  48.590  1.00  0.00     0.008 A 
ENDBRANCH  16  19
ENDBRANCH  15  16
ENDBRANCH  12  15
ENDBRANCH   1  11
BRANCH   8  26
HETATM   26  C   UNL     1      27.312  42.100  51.848  1.00  0.00     0.270 C 
HETATM   27  N   UNL     1      27.042  40.851  52.338  1.00  0.00    -0.365 N 
HETATM   28  H   UNL     1      26.819  40.755  53.321  1.00  0.00     0.159 HD
HETATM   29  H   UNL     1      27.036  40.061  51.713  1.00  0.00     0.159 HD
HETATM   30  O   UNL     1      27.562  42.273  50.659  1.00  0.00    -0.266 OA
ENDBRANCH   8  26
TORSDOF 6
ENDMDL
MODEL 9
REMARK VINA RESULT:      -8.1      4.841      8.481
REMARK  6 active torsions:
REMARK  status: ('A' for Active; 'I' for Inactive)
REMARK    1  A    between atoms: C_2  and  C_3 
REMARK    2  A    between atoms: C_3  and  C_4 
REMARK    3  A    between atoms: C_3  and  C_11 
REMARK    4  A    between atoms: C_11  and  C_12 
REMARK       I    between atoms: C_12  and  N_13 
REMARK    5  A    between atoms: N_13  and  C_14 
REMARK    6  A    between atoms: C_21  and  C_22 
REMARK       I    between atoms: C_22  and  N_23 
ROOT
HETATM    1  C   UNL     1      28.658  43.826  53.431  1.00  0.00     0.035 A 
HETATM    2  C   UNL     1      29.537  43.840  54.523  1.00  0.00     0.046 A 
HETATM    3  C   UNL     1      29.361  44.800  55.546  1.00  0.00     0.030 A 
HETATM    4  C   UNL     1      28.327  45.721  55.429  1.00  0.00     0.063 A 
HETATM    5  N   UNL     1      28.414  46.506  56.544  1.00  0.00    -0.277 N 
HETATM    6  H   UNL     1      27.818  47.289  56.791  1.00  0.00     0.189 HD
HETATM    7  N   UNL     1      29.400  46.168  57.389  1.00  0.00    -0.168 NA
HETATM    8  C   UNL     1      29.994  45.111  56.787  1.00  0.00     0.156 A 
HETATM    9  C   UNL     1      27.440  45.740  54.353  1.00  0.00     0.034 A 
HETATM   10  C   UNL     1      27.622  44.769  53.363  1.00  0.00     0.032 A 
ENDROOT
BRANCH   1  11
HETATM   11  N   UNL     1      28.716  42.875  52.388  1.00  0.00    -0.327 N 
HETATM   12  C   UNL     1      28.262  41.570  52.412  1.00  0.00     0.222 C 
HETATM   13  O   UNL     1      27.821  40.983  53.397  1.00  0.00    -0.273 OA
HETATM   14  H   UNL     1      29.208  43.176  51.562  1.00  0.00     0.169 HD
BRANCH  12  15
HETATM   15  C   UNL     1      28.222  40.882  51.049  1.00  0.00     0.112 C 
BRANCH  15  16
HETATM   16  C   UNL     1      26.923  41.017  50.233  1.00  0.00     0.027 C 
BRANCH  16  17
HETATM   17  C   UNL     1      27.099  40.528  48.775  1.00  0.00     0.005 C 
HETATM   18  C   UNL     1      28.529  40.468  48.252  1.00  0.00     0.006 C 
ENDBRANCH  16  17
BRANCH  16  19
HETATM   19  C   UNL     1      26.270  42.389  50.288  1.00  0.00    -0.053 A 
HETATM   20  C   UNL     1      25.114  42.644  51.036  1.00  0.00     0.008 A 
HETATM   21  C   UNL     1      24.561  43.928  51.083  1.00  0.00     0.007 A 
HETATM   22  C   UNL     1      25.153  44.985  50.387  1.00  0.00    -0.062 A 
HETATM   23  C   UNL     1      24.535  46.352  50.422  1.00  0.00     0.048 C 
HETATM   24  C   UNL     1      26.296  44.735  49.624  1.00  0.00     0.007 A 
HETATM   25  C   UNL     1      26.854  43.454  49.583  1.00  0.00     0.008 A 
ENDBRANCH  16  19
ENDBRANCH  15  16
ENDBRANCH  12  15
ENDBRANCH   1  11
BRANCH   8  26
HETATM   26  C   UNL     1      31.132  44.425  57.415  1.00  0.00     0.270 C 
HETATM   27  N   UNL     1      31.542  44.987  58.593  1.00  0.00    -0.365 N 
HETATM   28  H   UNL     1      31.043  45.796  58.942  1.00  0.00     0.159 HD
HETATM   29  H   UNL     1      32.302  44.571  59.106  1.00  0.00     0.159 HD
HETATM   30  O   UNL     1      31.685  43.428  56.962  1.00  0.00    -0.266 OA
ENDBRANCH   8  26
TORSDOF 6
ENDMDL
MODEL 10
REMARK VINA RESULT:      -8.0      4.059      7.608
REMARK  6 active torsions:
REMARK  status: ('A' for Active; 'I' for Inactive)
REMARK    1  A    between atoms: C_2  and  C_3 
REMARK    2  A    between atoms: C_3  and  C_4 
REMARK    3  A    between atoms: C_3  and  C_11 
REMARK    4  A    between atoms: C_11  and  C_12 
REMARK       I    between atoms: C_12  and  N_13 
REMARK    5  A    between atoms: N_13  and  C_14 
REMARK    6  A    between atoms: C_21  and  C_22 
REMARK       I    between atoms: C_22  and  N_23 
ROOT
HETATM    1  C   UNL     1      29.296  43.258  53.271  1.00  0.00     0.035 A 
HETATM    2  C   UNL     1      28.507  44.344  53.675  1.00  0.00     0.046 A 
HETATM    3  C   UNL     1      28.824  45.029  54.871  1.00  0.00     0.030 A 
HETATM    4  C   UNL     1      29.905  44.591  55.626  1.00  0.00     0.063 A 
HETATM    5  N   UNL     1      29.957  45.429  56.704  1.00  0.00    -0.277 N 
HETATM    6  H   UNL     1      30.620  45.402  57.471  1.00  0.00     0.189 HD
HETATM    7  N   UNL     1      29.018  46.387  56.711  1.00  0.00    -0.168 NA
HETATM    8  C   UNL     1      28.311  46.155  55.581  1.00  0.00     0.156 A 
HETATM    9  C   UNL     1      30.707  43.511  55.258  1.00  0.00     0.034 A 
HETATM   10  C   UNL     1      30.384  42.861  54.061  1.00  0.00     0.032 A 
ENDROOT
BRANCH   1  11
HETATM   11  N   UNL     1      29.096  42.546  52.067  1.00  0.00    -0.327 N 
HETATM   12  C   UNL     1      28.285  41.446  51.865  1.00  0.00     0.222 C 
HETATM   13  O   UNL     1      27.678  40.833  52.739  1.00  0.00    -0.273 OA
HETATM   14  H   UNL     1      29.667  42.847  51.293  1.00  0.00     0.169 HD
BRANCH  12  15
HETATM   15  C   UNL     1      28.072  41.070  50.400  1.00  0.00     0.112 C 
BRANCH  15  16
HETATM   16  C   UNL     1      26.756  41.525  49.743  1.00  0.00     0.027 C 
BRANCH  16  17
HETATM   17  C   UNL     1      26.787  41.361  48.204  1.00  0.00     0.005 C 
HETATM   18  C   UNL     1      27.322  40.036  47.678  1.00  0.00     0.006 C 
ENDBRANCH  16  17
BRANCH  16  19
HETATM   19  C   UNL     1      26.281  42.911  50.150  1.00  0.00    -0.053 A 
HETATM   20  C   UNL     1      25.205  43.115  51.022  1.00  0.00     0.008 A 
HETATM   21  C   UNL     1      24.819  44.406  51.393  1.00  0.00     0.007 A 
HETATM   22  C   UNL     1      25.502  45.523  50.903  1.00  0.00    -0.062 A 
HETATM   23  C   UNL     1      25.061  46.905  51.285  1.00  0.00     0.048 C 
HETATM   24  C   UNL     1      26.565  45.330  50.018  1.00  0.00     0.007 A 
HETATM   25  C   UNL     1      26.957  44.039  49.653  1.00  0.00     0.008 A 
ENDBRANCH  16  19
ENDBRANCH  15  16
ENDBRANCH  12  15
ENDBRANCH   1  11
BRANCH   8  26
HETATM   26  C   UNL     1      27.181  47.018  55.206  1.00  0.00     0.270 C 
HETATM   27  N   UNL     1      26.141  46.351  54.617  1.00  0.00    -0.365 N 
HETATM   28  H   UNL     1      26.215  45.348  54.498  1.00  0.00     0.159 HD
HETATM   29  H   UNL     1      25.314  46.857  54.346  1.00  0.00     0.159 HD
HETATM   30  O   UNL     1      27.130  48.228  55.397  1.00  0.00    -0.266 OA
ENDBRANCH   8  26
TORSDOF 6
ENDMDL
