MODEL 1
REMARK VINA RESULT:      -8.9      0.000      0.000
REMARK  6 active torsions:
REMARK  status: ('A' for Active; 'I' for Inactive)
REMARK    1  A    between atoms: C_9  and  C_10 
REMARK       I    between atoms: C_10  and  N_11 
REMARK    2  A    between atoms: N_11  and  C_12 
REMARK    3  A    between atoms: C_12  and  C_13 
REMARK    4  A    between atoms: C_13  and  O_14 
REMARK    5  A    between atoms: C_13  and  C_15 
REMARK    6  A    between atoms: C_18  and  O_19 
ROOT
HETATM    1  C   UNL     1      25.638  44.309  52.249  1.00  0.00     0.258 C 
HETATM    2  N   UNL     1      26.860  43.838  51.824  1.00  0.00    -0.350 N 
HETATM    3  O   UNL     1      24.984  43.752  53.124  1.00  0.00    -0.267 OA
HETATM    4  H   UNL     1      27.287  44.293  51.017  1.00  0.00     0.163 HD
ENDROOT
BRANCH   2   5
HETATM    5  C   UNL     1      27.431  42.583  52.316  1.00  0.00     0.114 C 
HETATM    6  C   UNL     1      27.020  41.442  51.381  1.00  0.00     0.035 C 
BRANCH   5   7
HETATM    7  C   UNL     1      28.971  42.721  52.490  1.00  0.00     0.173 C 
BRANCH   7   8
HETATM    8  O   UNL     1      29.625  41.452  52.394  1.00  0.00    -0.389 OA
HETATM    9  H   UNL     1      29.928  41.362  51.474  1.00  0.00     0.210 HD
ENDBRANCH   7   8
BRANCH   7  10
HETATM   10  C   UNL     1      29.366  43.435  53.770  1.00  0.00    -0.028 A 
HETATM   11  C   UNL     1      30.491  43.000  54.484  1.00  0.00     0.012 A 
HETATM   12  C   UNL     1      30.895  43.662  55.646  1.00  0.00     0.037 A 
HETATM   13  C   UNL     1      30.195  44.776  56.111  1.00  0.00     0.068 A 
HETATM   14  C   UNL     1      29.070  45.211  55.413  1.00  0.00     0.037 A 
HETATM   15  C   UNL     1      28.657  44.544  54.253  1.00  0.00     0.012 A 
BRANCH  13  16
HETATM   16  O   UNL     1      30.706  45.338  57.249  1.00  0.00    -0.356 OA
HETATM   17  C   UNL     1      29.782  45.986  58.113  1.00  0.00     0.210 C 
ENDBRANCH  13  16
ENDBRANCH   7  10
ENDBRANCH   5   7
ENDBRANCH   2   5
BRANCH   1  18
HETATM   18  C   UNL     1      25.172  45.518  51.588  1.00  0.00     0.105 A 
HETATM   19  C   UNL     1      24.348  45.626  50.482  1.00  0.00     0.169 A 
HETATM   20  N   UNL     1      23.740  44.673  49.703  1.00  0.00    -0.233 NA
HETATM   21  N   UNL     1      24.204  46.996  50.229  1.00  0.00    -0.219 N 
HETATM   22  C   UNL     1      23.014  45.106  48.715  1.00  0.00     0.035 A 
HETATM   23  C   UNL     1      22.337  44.101  47.821  1.00  0.00     0.070 C 
HETATM   24  C   UNL     1      22.785  46.548  48.387  1.00  0.00     0.053 A 
HETATM   25  C   UNL     1      23.409  47.448  49.165  1.00  0.00     0.036 A 
HETATM   26  C   UNL     1      23.269  48.925  48.943  1.00  0.00     0.070 C 
HETATM   27  N   UNL     1      24.896  47.743  51.122  1.00  0.00    -0.170 NA
HETATM   28  C   UNL     1      25.470  46.859  51.944  1.00  0.00     0.071 A 
HETATM   29  C   UNL     1      26.306  47.338  53.076  1.00  0.00     0.073 C 
ENDBRANCH   1  18
TORSDOF 6
ENDMDL
MODEL 2
REMARK VINA RESULT:      -8.6      2.716      6.951
REMARK  6 active torsions:
REMARK  status: ('A' for Active; 'I' for Inactive)
REMARK    1  A    between atoms: C_9  and  C_10 
REMARK       I    between atoms: C_10  and  N_11 
REMARK    2  A    between atoms: N_11  and  C_12 
REMARK    3  A    between atoms: C_12  and  C_13 
REMARK    4  A    between atoms: C_13  and  O_14 
REMARK    5  A    between atoms: C_13  and  C_15 
REMARK    6  A    between atoms: C_18  and  O_19 
ROOT
HETATM    1  C   UNL     1      26.305  46.420  52.993  1.00  0.00     0.258 C 
HETATM    2  N   UNL     1      26.313  45.277  52.226  1.00  0.00    -0.350 N 
HETATM    3  O   UNL     1      25.615  47.396  52.716  1.00  0.00    -0.267 OA
HETATM    4  H   UNL     1      26.996  44.557  52.460  1.00  0.00     0.163 HD
ENDROOT
BRANCH   2   5
HETATM    5  C   UNL     1      25.572  45.171  50.968  1.00  0.00     0.114 C 
HETATM    6  C   UNL     1      26.480  45.595  49.811  1.00  0.00     0.035 C 
BRANCH   5   7
HETATM    7  C   UNL     1      24.983  43.740  50.806  1.00  0.00     0.173 C 
BRANCH   7   8
HETATM    8  O   UNL     1      24.286  43.323  51.984  1.00  0.00    -0.389 OA
HETATM    9  H   UNL     1      24.870  42.700  52.449  1.00  0.00     0.210 HD
ENDBRANCH   7   8
BRANCH   7  10
HETATM   10  C   UNL     1      26.022  42.709  50.402  1.00  0.00    -0.028 A 
HETATM   11  C   UNL     1      26.104  42.301  49.063  1.00  0.00     0.012 A 
HETATM   12  C   UNL     1      27.073  41.379  48.660  1.00  0.00     0.037 A 
HETATM   13  C   UNL     1      27.986  40.857  49.577  1.00  0.00     0.068 A 
HETATM   14  C   UNL     1      27.906  41.250  50.912  1.00  0.00     0.037 A 
HETATM   15  C   UNL     1      26.930  42.167  51.321  1.00  0.00     0.012 A 
BRANCH  13  16
HETATM   16  O   UNL     1      28.890  39.978  49.048  1.00  0.00    -0.356 OA
HETATM   17  C   UNL     1      28.851  38.646  49.541  1.00  0.00     0.210 C 
ENDBRANCH  13  16
ENDBRANCH   7  10
ENDBRANCH   5   7
ENDBRANCH   2   5
BRANCH   1  18
HETATM   18  C   UNL     1      27.173  46.395  54.160  1.00  0.00     0.105 A 
HETATM   19  C   UNL     1      28.200  45.513  54.443  1.00  0.00     0.169 A 
HETATM   20  N   UNL     1      28.701  44.442  53.745  1.00  0.00    -0.233 NA
HETATM   21  N   UNL     1      28.721  45.898  55.686  1.00  0.00    -0.219 N 
HETATM   22  C   UNL     1      29.691  43.802  54.292  1.00  0.00     0.035 A 
HETATM   23  C   UNL     1      30.266  42.610  53.573  1.00  0.00     0.070 C 
HETATM   24  C   UNL     1      30.324  44.158  55.600  1.00  0.00     0.053 A 
HETATM   25  C   UNL     1      29.796  45.203  56.259  1.00  0.00     0.036 A 
HETATM   26  C   UNL     1      30.332  45.663  57.582  1.00  0.00     0.070 C 
HETATM   27  N   UNL     1      28.068  46.974  56.187  1.00  0.00    -0.170 NA
HETATM   28  C   UNL     1      27.145  47.280  55.269  1.00  0.00     0.071 A 
HETATM   29  C   UNL     1      26.243  48.441  55.487  1.00  0.00     0.073 C 
ENDBRANCH   1  18
TORSDOF 6
ENDMDL
MODEL 3
REMARK VINA RESULT:      -8.3      1.831      3.751
REMARK  6 active torsions:
REMARK  status: ('A' for Active; 'I' for Inactive)
REMARK    1  A    between atoms: C_9  and  C_10 
REMARK       I    between atoms: C_10  and  N_11 
REMARK    2  A    between atoms: N_11  and  C_12 
REMARK    3  A    between atoms: C_12  and  C_13 
REMARK    4  A    between atoms: C_13  and  O_14 
REMARK    5  A    between atoms: C_13  and  C_15 
REMARK    6  A    between atoms: C_18  and  O_19 
ROOT
HETATM    1  C   UNL     1      25.354  46.138  50.525  1.00  0.00     0.258 C 
HETATM    2  N   UNL     1      25.062  46.116  51.870  1.00  0.00    -0.350 N 
HETATM    3  O   UNL     1      26.502  46.084  50.098  1.00  0.00    -0.267 OA
HETATM    4  H   UNL     1      24.094  46.277  52.146  1.00  0.00     0.163 HD
ENDROOT
BRANCH   2   5
HETATM    5  C   UNL     1      26.104  46.121  52.899  1.00  0.00     0.114 C 
HETATM    6  C   UNL     1      25.874  47.305  53.842  1.00  0.00     0.035 C 
BRANCH   5   7
HETATM    7  C   UNL     1      26.154  44.746  53.626  1.00  0.00     0.173 C 
BRANCH   7   8
HETATM    8  O   UNL     1      25.187  44.673  54.677  1.00  0.00    -0.389 OA
HETATM    9  H   UNL     1      25.133  45.562  55.070  1.00  0.00     0.210 HD
ENDBRANCH   7   8
BRANCH   7  10
HETATM   10  C   UNL     1      27.537  44.392  54.141  1.00  0.00    -0.028 A 
HETATM   11  C   UNL     1      28.188  45.264  55.025  1.00  0.00     0.012 A 
HETATM   12  C   UNL     1      29.447  44.944  55.539  1.00  0.00     0.037 A 
HETATM   13  C   UNL     1      30.075  43.746  55.195  1.00  0.00     0.068 A 
HETATM   14  C   UNL     1      29.439  42.877  54.310  1.00  0.00     0.037 A 
HETATM   15  C   UNL     1      28.181  43.199  53.785  1.00  0.00     0.012 A 
BRANCH  13  16
HETATM   16  O   UNL     1      31.295  43.551  55.781  1.00  0.00    -0.356 OA
HETATM   17  C   UNL     1      31.378  43.790  57.180  1.00  0.00     0.210 C 
ENDBRANCH  13  16
ENDBRANCH   7  10
ENDBRANCH   5   7
ENDBRANCH   2   5
BRANCH   1  18
HETATM   18  C   UNL     1      24.204  46.230  49.639  1.00  0.00     0.105 A 
HETATM   19  C   UNL     1      23.530  47.365  49.227  1.00  0.00     0.169 A 
HETATM   20  N   UNL     1      23.727  48.694  49.508  1.00  0.00    -0.233 NA
HETATM   21  N   UNL     1      22.493  46.928  48.391  1.00  0.00    -0.219 N 
HETATM   22  C   UNL     1      22.904  49.534  48.953  1.00  0.00     0.035 A 
HETATM   23  C   UNL     1      23.069  51.004  49.241  1.00  0.00     0.070 C 
HETATM   24  C   UNL     1      21.788  49.159  48.030  1.00  0.00     0.053 A 
HETATM   25  C   UNL     1      21.619  47.848  47.793  1.00  0.00     0.036 A 
HETATM   26  C   UNL     1      20.536  47.335  46.891  1.00  0.00     0.070 C 
HETATM   27  N   UNL     1      22.491  45.579  48.265  1.00  0.00    -0.170 NA
HETATM   28  C   UNL     1      23.522  45.159  49.004  1.00  0.00     0.071 A 
HETATM   29  C   UNL     1      23.833  43.708  49.082  1.00  0.00     0.073 C 
ENDBRANCH   1  18
TORSDOF 6
ENDMDL
MODEL 4
REMARK VINA RESULT:      -8.2      2.086      2.835
REMARK  6 active torsions:
REMARK  status: ('A' for Active; 'I' for Inactive)
REMARK    1  A    between atoms: C_9  and  C_10 
REMARK       I    between atoms: C_10  and  N_11 
REMARK    2  A    between atoms: N_11  and  C_12 
REMARK    3  A    between atoms: C_12  and  C_13 
REMARK    4  A    between atoms: C_13  and  O_14 
REMARK    5  A    between atoms: C_13  and  C_15 
REMARK    6  A    between atoms: C_18  and  O_19 
ROOT
HETATM    1  C   UNL     1      24.977  45.598  49.680  1.00  0.00     0.258 C 
HETATM    2  N   UNL     1      25.556  45.354  50.905  1.00  0.00    -0.350 N 
HETATM    3  O   UNL     1      24.838  44.725  48.830  1.00  0.00    -0.267 OA
HETATM    4  H   UNL     1      25.736  46.156  51.509  1.00  0.00     0.163 HD
ENDROOT
BRANCH   2   5
HETATM    5  C   UNL     1      26.136  44.057  51.254  1.00  0.00     0.114 C 
HETATM    6  C   UNL     1      27.612  44.038  50.843  1.00  0.00     0.035 C 
BRANCH   5   7
HETATM    7  C   UNL     1      25.905  43.748  52.760  1.00  0.00     0.173 C 
BRANCH   7   8
HETATM    8  O   UNL     1      24.716  44.376  53.248  1.00  0.00    -0.389 OA
HETATM    9  H   UNL     1      24.453  45.034  52.581  1.00  0.00     0.210 HD
ENDBRANCH   7   8
BRANCH   7  10
HETATM   10  C   UNL     1      27.097  44.100  53.633  1.00  0.00    -0.028 A 
HETATM   11  C   UNL     1      28.054  43.118  53.923  1.00  0.00     0.012 A 
HETATM   12  C   UNL     1      29.177  43.426  54.695  1.00  0.00     0.037 A 
HETATM   13  C   UNL     1      29.375  44.719  55.180  1.00  0.00     0.068 A 
HETATM   14  C   UNL     1      28.424  45.700  54.905  1.00  0.00     0.037 A 
HETATM   15  C   UNL     1      27.293  45.392  54.139  1.00  0.00     0.012 A 
BRANCH  13  16
HETATM   16  O   UNL     1      30.521  44.887  55.907  1.00  0.00    -0.356 OA
HETATM   17  C   UNL     1      31.175  43.707  56.352  1.00  0.00     0.210 C 
ENDBRANCH  13  16
ENDBRANCH   7  10
ENDBRANCH   5   7
ENDBRANCH   2   5
BRANCH   1  18
HETATM   18  C   UNL     1      24.538  46.968  49.459  1.00  0.00     0.105 A 
HETATM   19  C   UNL     1      23.275  47.417  49.118  1.00  0.00     0.169 A 
HETATM   20  N   UNL     1      22.098  46.745  48.897  1.00  0.00    -0.233 NA
HETATM   21  N   UNL     1      23.367  48.811  49.010  1.00  0.00    -0.219 N 
HETATM   22  C   UNL     1      21.065  47.470  48.586  1.00  0.00     0.035 A 
HETATM   23  C   UNL     1      19.752  46.780  48.318  1.00  0.00     0.070 C 
HETATM   24  C   UNL     1      21.066  48.962  48.474  1.00  0.00     0.053 A 
HETATM   25  C   UNL     1      22.240  49.580  48.683  1.00  0.00     0.036 A 
HETATM   26  C   UNL     1      22.382  51.070  48.597  1.00  0.00     0.070 C 
HETATM   27  N   UNL     1      24.623  49.248  49.267  1.00  0.00    -0.170 NA
HETATM   28  C   UNL     1      25.325  48.145  49.546  1.00  0.00     0.071 A 
HETATM   29  C   UNL     1      26.765  48.256  49.898  1.00  0.00     0.073 C 
ENDBRANCH   1  18
TORSDOF 6
ENDMDL
MODEL 5
REMARK VINA RESULT:      -8.1      4.388     10.145
REMARK  6 active torsions:
REMARK  status: ('A' for Active; 'I' for Inactive)
REMARK    1  A    between atoms: C_9  and  C_10 
REMARK       I    between atoms: C_10  and  N_11 
REMARK    2  A    between atoms: N_11  and  C_12 
REMARK    3  A    between atoms: C_12  and  C_13 
REMARK    4  A    between atoms: C_13  and  O_14 
REMARK    5  A    between atoms: C_13  and  C_15 
REMARK    6  A    between atoms: C_18  and  O_19 
ROOT
HETATM    1  C   UNL     1      24.127  48.649  49.517  1.00  0.00     0.258 C 
HETATM    2  N   UNL     1      22.858  49.179  49.584  1.00  0.00    -0.350 N 
HETATM    3  O   UNL     1      25.086  49.283  49.090  1.00  0.00    -0.267 OA
HETATM    4  H   UNL     1      22.098  48.551  49.845  1.00  0.00     0.163 HD
ENDROOT
BRANCH   2   5
HETATM    5  C   UNL     1      22.535  50.508  49.063  1.00  0.00     0.114 C 
HETATM    6  C   UNL     1      21.894  50.365  47.680  1.00  0.00     0.035 C 
BRANCH   5   7
HETATM    7  C   UNL     1      21.654  51.288  50.080  1.00  0.00     0.173 C 
BRANCH   7   8
HETATM    8  O   UNL     1      21.970  50.932  51.429  1.00  0.00    -0.389 OA
HETATM    9  H   UNL     1      21.198  50.456  51.781  1.00  0.00     0.210 HD
ENDBRANCH   7   8
BRANCH   7  10
HETATM   10  C   UNL     1      20.165  51.141  49.819  1.00  0.00    -0.028 A 
HETATM   11  C   UNL     1      19.510  52.078  49.008  1.00  0.00     0.012 A 
HETATM   12  C   UNL     1      18.149  51.945  48.726  1.00  0.00     0.037 A 
HETATM   13  C   UNL     1      17.418  50.870  49.232  1.00  0.00     0.068 A 
HETATM   14  C   UNL     1      18.058  49.937  50.046  1.00  0.00     0.037 A 
HETATM   15  C   UNL     1      19.421  50.073  50.339  1.00  0.00     0.012 A 
BRANCH  13  16
HETATM   16  O   UNL     1      16.100  50.851  48.865  1.00  0.00    -0.356 OA
HETATM   17  C   UNL     1      15.810  50.415  47.544  1.00  0.00     0.210 C 
ENDBRANCH  13  16
ENDBRANCH   7  10
ENDBRANCH   5   7
ENDBRANCH   2   5
BRANCH   1  18
HETATM   18  C   UNL     1      24.256  47.279  49.989  1.00  0.00     0.105 A 
HETATM   19  C   UNL     1      24.920  46.821  51.113  1.00  0.00     0.169 A 
HETATM   20  N   UNL     1      25.626  47.482  52.087  1.00  0.00    -0.233 NA
HETATM   21  N   UNL     1      24.764  45.428  51.123  1.00  0.00    -0.219 N 
HETATM   22  C   UNL     1      26.142  46.750  53.029  1.00  0.00     0.035 A 
HETATM   23  C   UNL     1      26.939  47.426  54.115  1.00  0.00     0.070 C 
HETATM   24  C   UNL     1      26.004  45.264  53.134  1.00  0.00     0.053 A 
HETATM   25  C   UNL     1      25.318  44.653  52.153  1.00  0.00     0.036 A 
HETATM   26  C   UNL     1      25.109  43.168  52.133  1.00  0.00     0.070 C 
HETATM   27  N   UNL     1      24.037  45.001  50.064  1.00  0.00    -0.170 NA
HETATM   28  C   UNL     1      23.723  46.110  49.387  1.00  0.00     0.071 A 
HETATM   29  C   UNL     1      22.899  46.014  48.154  1.00  0.00     0.073 C 
ENDBRANCH   1  18
TORSDOF 6
ENDMDL
MODEL 6
REMARK VINA RESULT:      -8.0      2.656      8.159
REMARK  6 active torsions:
REMARK  status: ('A' for Active; 'I' for Inactive)
REMARK    1  A    between atoms: C_9  and  C_10 
REMARK       I    between atoms: C_10  and  N_11 
REMARK    2  A    between atoms: N_11  and  C_12 
REMARK    3  A    between atoms: C_12  and  C_13 
REMARK    4  A    between atoms: C_13  and  O_14 
REMARK    5  A    between atoms: C_13  and  C_15 
REMARK    6  A    between atoms: C_18  and  O_19 
ROOT
HETATM    1  C   UNL     1      26.297  46.548  53.266  1.00  0.00     0.258 C 
HETATM    2  N   UNL     1      26.399  45.484  52.398  1.00  0.00    -0.350 N 
HETATM    3  O   UNL     1      25.499  47.464  53.096  1.00  0.00    -0.267 OA
HETATM    4  H   UNL     1      27.162  44.824  52.549  1.00  0.00     0.163 HD
ENDROOT
BRANCH   2   5
HETATM    5  C   UNL     1      25.631  45.409  51.154  1.00  0.00     0.114 C 
HETATM    6  C   UNL     1      26.541  44.906  50.030  1.00  0.00     0.035 C 
BRANCH   5   7
HETATM    7  C   UNL     1      24.355  44.544  51.357  1.00  0.00     0.173 C 
BRANCH   7   8
HETATM    8  O   UNL     1      24.620  43.403  52.178  1.00  0.00    -0.389 OA
HETATM    9  H   UNL     1      23.924  43.378  52.857  1.00  0.00     0.210 HD
ENDBRANCH   7   8
BRANCH   7  10
HETATM   10  C   UNL     1      23.701  44.128  50.052  1.00  0.00    -0.028 A 
HETATM   11  C   UNL     1      23.664  42.772  49.699  1.00  0.00     0.012 A 
HETATM   12  C   UNL     1      23.038  42.361  48.520  1.00  0.00     0.037 A 
HETATM   13  C   UNL     1      22.425  43.289  47.678  1.00  0.00     0.068 A 
HETATM   14  C   UNL     1      22.463  44.641  48.015  1.00  0.00     0.037 A 
HETATM   15  C   UNL     1      23.098  45.057  49.192  1.00  0.00     0.012 A 
BRANCH  13  16
HETATM   16  O   UNL     1      21.836  42.751  46.566  1.00  0.00    -0.356 OA
HETATM   17  C   UNL     1      21.014  43.617  45.796  1.00  0.00     0.210 C 
ENDBRANCH  13  16
ENDBRANCH   7  10
ENDBRANCH   5   7
ENDBRANCH   2   5
BRANCH   1  18
HETATM   18  C   UNL     1      27.201  46.514  54.405  1.00  0.00     0.105 A 
HETATM   19  C   UNL     1      28.224  45.618  54.658  1.00  0.00     0.169 A 
HETATM   20  N   UNL     1      28.685  44.537  53.948  1.00  0.00    -0.233 NA
HETATM   21  N   UNL     1      28.789  46.000  55.882  1.00  0.00    -0.219 N 
HETATM   22  C   UNL     1      29.683  43.884  54.466  1.00  0.00     0.035 A 
HETATM   23  C   UNL     1      30.217  42.681  53.734  1.00  0.00     0.070 C 
HETATM   24  C   UNL     1      30.363  44.236  55.752  1.00  0.00     0.053 A 
HETATM   25  C   UNL     1      29.872  45.290  56.423  1.00  0.00     0.036 A 
HETATM   26  C   UNL     1      30.457  45.747  57.726  1.00  0.00     0.070 C 
HETATM   27  N   UNL     1      28.169  47.087  56.399  1.00  0.00    -0.170 NA
HETATM   28  C   UNL     1      27.222  47.403  55.510  1.00  0.00     0.071 A 
HETATM   29  C   UNL     1      26.345  48.578  55.752  1.00  0.00     0.073 C 
ENDBRANCH   1  18
TORSDOF 6
ENDMDL
MODEL 7
REMARK VINA RESULT:      -8.0      5.613     10.768
REMARK  6 active torsions:
REMARK  status: ('A' for Active; 'I' for Inactive)
REMARK    1  A    between atoms: C_9  and  C_10 
REMARK       I    between atoms: C_10  and  N_11 
REMARK    2  A    between atoms: N_11  and  C_12 
REMARK    3  A    between atoms: C_12  and  C_13 
REMARK    4  A    between atoms: C_13  and  O_14 
REMARK    5  A    between atoms: C_13  and  C_15 
REMARK    6  A    between atoms: C_18  and  O_19 
ROOT
HETATM    1  C   UNL     1      21.469  47.893  48.842  1.00  0.00     0.258 C 
HETATM    2  N   UNL     1      20.576  48.615  49.601  1.00  0.00    -0.350 N 
HETATM    3  O   UNL     1      21.124  46.955  48.131  1.00  0.00    -0.267 OA
HETATM    4  H   UNL     1      20.957  49.305  50.248  1.00  0.00     0.163 HD
ENDROOT
BRANCH   2   5
HETATM    5  C   UNL     1      19.159  48.262  49.692  1.00  0.00     0.114 C 
HETATM    6  C   UNL     1      18.637  48.627  51.085  1.00  0.00     0.035 C 
BRANCH   5   7
HETATM    7  C   UNL     1      18.359  48.924  48.534  1.00  0.00     0.173 C 
BRANCH   7   8
HETATM    8  O   UNL     1      19.142  49.011  47.339  1.00  0.00    -0.389 OA
HETATM    9  H   UNL     1      18.707  48.445  46.678  1.00  0.00     0.210 HD
ENDBRANCH   7   8
BRANCH   7  10
HETATM   10  C   UNL     1      17.787  50.281  48.903  1.00  0.00    -0.028 A 
HETATM   11  C   UNL     1      16.401  50.484  48.846  1.00  0.00     0.012 A 
HETATM   12  C   UNL     1      15.847  51.713  49.213  1.00  0.00     0.037 A 
HETATM   13  C   UNL     1      16.660  52.757  49.656  1.00  0.00     0.068 A 
HETATM   14  C   UNL     1      18.040  52.568  49.707  1.00  0.00     0.037 A 
HETATM   15  C   UNL     1      18.599  51.341  49.331  1.00  0.00     0.012 A 
BRANCH  13  16
HETATM   16  O   UNL     1      15.988  53.898  49.998  1.00  0.00    -0.356 OA
HETATM   17  C   UNL     1      14.705  54.084  49.416  1.00  0.00     0.210 C 
ENDBRANCH  13  16
ENDBRANCH   7  10
ENDBRANCH   5   7
ENDBRANCH   2   5
BRANCH   1  18
HETATM   18  C   UNL     1      22.857  48.318  48.939  1.00  0.00     0.105 A 
HETATM   19  C   UNL     1      23.960  47.564  49.297  1.00  0.00     0.169 A 
HETATM   20  N   UNL     1      24.085  46.244  49.652  1.00  0.00    -0.233 NA
HETATM   21  N   UNL     1      25.062  48.429  49.250  1.00  0.00    -0.219 N 
HETATM   22  C   UNL     1      25.283  45.830  49.940  1.00  0.00     0.035 A 
HETATM   23  C   UNL     1      25.472  44.392  50.350  1.00  0.00     0.070 C 
HETATM   24  C   UNL     1      26.517  46.675  49.891  1.00  0.00     0.053 A 
HETATM   25  C   UNL     1      26.350  47.964  49.554  1.00  0.00     0.036 A 
HETATM   26  C   UNL     1      27.501  48.921  49.472  1.00  0.00     0.070 C 
HETATM   27  N   UNL     1      24.697  49.680  48.881  1.00  0.00    -0.170 NA
HETATM   28  C   UNL     1      23.377  49.614  48.684  1.00  0.00     0.071 A 
HETATM   29  C   UNL     1      22.634  50.824  48.244  1.00  0.00     0.073 C 
ENDBRANCH   1  18
TORSDOF 6
ENDMDL
MODEL 8
REMARK VINA RESULT:      -8.0      3.074      6.079
REMARK  6 active torsions:
REMARK  status: ('A' for Active; 'I' for Inactive)
REMARK    1  A    between atoms: C_9  and  C_10 
REMARK       I    between atoms: C_10  and  N_11 
REMARK    2  A    between atoms: N_11  and  C_12 
REMARK    3  A    between atoms: C_12  and  C_13 
REMARK    4  A    between atoms: C_13  and  O_14 
REMARK    5  A    between atoms: C_13  and  C_15 
REMARK    6  A    between atoms: C_18  and  O_19 
ROOT
HETATM    1  C   UNL     1      26.497  42.661  50.105  1.00  0.00     0.258 C 
HETATM    2  N   UNL     1      25.795  42.790  51.282  1.00  0.00    -0.350 N 
HETATM    3  O   UNL     1      27.265  43.525  49.697  1.00  0.00    -0.267 OA
HETATM    4  H   UNL     1      25.095  42.079  51.495  1.00  0.00     0.163 HD
ENDROOT
BRANCH   2   5
HETATM    5  C   UNL     1      25.837  44.009  52.091  1.00  0.00     0.114 C 
HETATM    6  C   UNL     1      24.657  44.908  51.709  1.00  0.00     0.035 C 
BRANCH   5   7
HETATM    7  C   UNL     1      25.884  43.654  53.605  1.00  0.00     0.173 C 
BRANCH   7   8
HETATM    8  O   UNL     1      24.872  44.349  54.339  1.00  0.00    -0.389 OA
HETATM    9  H   UNL     1      24.631  45.131  53.812  1.00  0.00     0.210 HD
ENDBRANCH   7   8
BRANCH   7  10
HETATM   10  C   UNL     1      27.250  43.877  54.229  1.00  0.00    -0.028 A 
HETATM   11  C   UNL     1      28.225  42.874  54.131  1.00  0.00     0.012 A 
HETATM   12  C   UNL     1      29.500  43.069  54.668  1.00  0.00     0.037 A 
HETATM   13  C   UNL     1      29.833  44.269  55.298  1.00  0.00     0.068 A 
HETATM   14  C   UNL     1      28.867  45.268  55.407  1.00  0.00     0.037 A 
HETATM   15  C   UNL     1      27.586  45.072  54.879  1.00  0.00     0.012 A 
BRANCH  13  16
HETATM   16  O   UNL     1      31.117  44.333  55.763  1.00  0.00    -0.356 OA
HETATM   17  C   UNL     1      31.476  43.410  56.782  1.00  0.00     0.210 C 
ENDBRANCH  13  16
ENDBRANCH   7  10
ENDBRANCH   5   7
ENDBRANCH   2   5
BRANCH   1  18
HETATM   18  C   UNL     1      26.268  41.424  49.375  1.00  0.00     0.105 A 
HETATM   19  C   UNL     1      26.997  40.249  49.431  1.00  0.00     0.169 A 
HETATM   20  N   UNL     1      28.106  39.899  50.160  1.00  0.00    -0.233 NA
HETATM   21  N   UNL     1      26.385  39.362  48.536  1.00  0.00    -0.219 N 
HETATM   22  C   UNL     1      28.562  38.695  49.984  1.00  0.00     0.035 A 
HETATM   23  C   UNL     1      29.786  38.266  50.750  1.00  0.00     0.070 C 
HETATM   24  C   UNL     1      27.958  37.675  49.071  1.00  0.00     0.053 A 
HETATM   25  C   UNL     1      26.883  38.061  48.364  1.00  0.00     0.036 A 
HETATM   26  C   UNL     1      26.184  37.140  47.410  1.00  0.00     0.070 C 
HETATM   27  N   UNL     1      25.315  39.926  47.929  1.00  0.00    -0.170 NA
HETATM   28  C   UNL     1      25.237  41.160  48.437  1.00  0.00     0.071 A 
HETATM   29  C   UNL     1      24.147  42.072  47.999  1.00  0.00     0.073 C 
ENDBRANCH   1  18
TORSDOF 6
ENDMDL
MODEL 9
REMARK VINA RESULT:      -7.8      4.703      9.646
REMARK  6 active torsions:
REMARK  status: ('A' for Active; 'I' for Inactive)
REMARK    1  A    between atoms: C_9  and  C_10 
REMARK       I    between atoms: C_10  and  N_11 
REMARK    2  A    between atoms: N_11  and  C_12 
REMARK    3  A    between atoms: C_12  and  C_13 
REMARK    4  A    between atoms: C_13  and  O_14 
REMARK    5  A    between atoms: C_13  and  C_15 
REMARK    6  A    between atoms: C_18  and  O_19 
ROOT
HETATM    1  C   UNL     1      24.266  48.474  49.586  1.00  0.00     0.258 C 
HETATM    2  N   UNL     1      23.053  49.123  49.593  1.00  0.00    -0.350 N 
HETATM    3  O   UNL     1      25.315  49.037  49.292  1.00  0.00    -0.267 OA
HETATM    4  H   UNL     1      22.216  48.559  49.739  1.00  0.00     0.163 HD
ENDROOT
BRANCH   2   5
HETATM    5  C   UNL     1      22.904  50.514  49.160  1.00  0.00     0.114 C 
HETATM    6  C   UNL     1      22.595  50.544  47.660  1.00  0.00     0.035 C 
BRANCH   5   7
HETATM    7  C   UNL     1      21.840  51.242  50.030  1.00  0.00     0.173 C 
BRANCH   7   8
HETATM    8  O   UNL     1      21.986  50.918  51.416  1.00  0.00    -0.389 OA
HETATM    9  H   UNL     1      21.209  50.385  51.662  1.00  0.00     0.210 HD
ENDBRANCH   7   8
BRANCH   7  10
HETATM   10  C   UNL     1      20.416  50.993  49.565  1.00  0.00    -0.028 A 
HETATM   11  C   UNL     1      19.771  51.954  48.776  1.00  0.00     0.012 A 
HETATM   12  C   UNL     1      18.473  51.734  48.307  1.00  0.00     0.037 A 
HETATM   13  C   UNL     1      17.800  50.548  48.604  1.00  0.00     0.068 A 
HETATM   14  C   UNL     1      18.431  49.590  49.396  1.00  0.00     0.037 A 
HETATM   15  C   UNL     1      19.728  49.812  49.875  1.00  0.00     0.012 A 
BRANCH  13  16
HETATM   16  O   UNL     1      16.544  50.455  48.071  1.00  0.00    -0.356 OA
HETATM   17  C   UNL     1      15.925  49.177  48.114  1.00  0.00     0.210 C 
ENDBRANCH  13  16
ENDBRANCH   7  10
ENDBRANCH   5   7
ENDBRANCH   2   5
BRANCH   1  18
HETATM   18  C   UNL     1      24.223  47.066  49.952  1.00  0.00     0.105 A 
HETATM   19  C   UNL     1      23.544  46.039  49.322  1.00  0.00     0.169 A 
HETATM   20  N   UNL     1      22.742  46.025  48.208  1.00  0.00    -0.233 NA
HETATM   21  N   UNL     1      23.809  44.879  50.062  1.00  0.00    -0.219 N 
HETATM   22  C   UNL     1      22.242  44.875  47.866  1.00  0.00     0.035 A 
HETATM   23  C   UNL     1      21.343  44.808  46.659  1.00  0.00     0.070 C 
HETATM   24  C   UNL     1      22.491  43.584  48.581  1.00  0.00     0.053 A 
HETATM   25  C   UNL     1      23.269  43.643  49.675  1.00  0.00     0.036 A 
HETATM   26  C   UNL     1      23.595  42.425  50.486  1.00  0.00     0.070 C 
HETATM   27  N   UNL     1      24.617  45.135  51.118  1.00  0.00    -0.170 NA
HETATM   28  C   UNL     1      24.875  46.445  51.049  1.00  0.00     0.071 A 
HETATM   29  C   UNL     1      25.762  47.078  52.060  1.00  0.00     0.073 C 
ENDBRANCH   1  18
TORSDOF 6
ENDMDL
MODEL 10
REMARK VINA RESULT:      -7.8      3.554      5.854
REMARK  6 active torsions:
REMARK  status: ('A' for Active; 'I' for Inactive)
REMARK    1  A    between atoms: C_9  and  C_10 
REMARK       I    between atoms: C_10  and  N_11 
REMARK    2  A    between atoms: N_11  and  C_12 
REMARK    3  A    between atoms: C_12  and  C_13 
REMARK    4  A    between atoms: C_13  and  O_14 
REMARK    5  A    between atoms: C_13  and  C_15 
REMARK    6  A    between atoms: C_18  and  O_19 
ROOT
HETATM    1  C   UNL     1      26.382  41.753  50.817  1.00  0.00     0.258 C 
HETATM    2  N   UNL     1      27.536  41.608  51.553  1.00  0.00    -0.350 N 
HETATM    3  O   UNL     1      25.496  42.541  51.128  1.00  0.00    -0.267 OA
HETATM    4  H   UNL     1      28.171  40.854  51.291  1.00  0.00     0.163 HD
ENDROOT
BRANCH   2   5
HETATM    5  C   UNL     1      27.755  42.314  52.816  1.00  0.00     0.114 C 
HETATM    6  C   UNL     1      27.733  41.305  53.968  1.00  0.00     0.035 C 
BRANCH   5   7
HETATM    7  C   UNL     1      29.063  43.153  52.748  1.00  0.00     0.173 C 
BRANCH   7   8
HETATM    8  O   UNL     1      30.183  42.349  52.366  1.00  0.00    -0.389 OA
HETATM    9  H   UNL     1      30.394  42.582  51.445  1.00  0.00     0.210 HD
ENDBRANCH   7   8
BRANCH   7  10
HETATM   10  C   UNL     1      29.356  43.909  54.032  1.00  0.00    -0.028 A 
HETATM   11  C   UNL     1      30.421  43.499  54.847  1.00  0.00     0.012 A 
HETATM   12  C   UNL     1      30.732  44.199  56.015  1.00  0.00     0.037 A 
HETATM   13  C   UNL     1      29.999  45.326  56.387  1.00  0.00     0.068 A 
HETATM   14  C   UNL     1      28.933  45.737  55.588  1.00  0.00     0.037 A 
HETATM   15  C   UNL     1      28.613  45.032  54.421  1.00  0.00     0.012 A 
BRANCH  13  16
HETATM   16  O   UNL     1      30.418  45.925  57.543  1.00  0.00    -0.356 OA
HETATM   17  C   UNL     1      31.052  45.090  58.502  1.00  0.00     0.210 C 
ENDBRANCH  13  16
ENDBRANCH   7  10
ENDBRANCH   5   7
ENDBRANCH   2   5
BRANCH   1  18
HETATM   18  C   UNL     1      26.283  40.906  49.639  1.00  0.00     0.105 A 
HETATM   19  C   UNL     1      27.173  39.942  49.201  1.00  0.00     0.169 A 
HETATM   20  N   UNL     1      28.367  39.502  49.717  1.00  0.00    -0.233 NA
HETATM   21  N   UNL     1      26.635  39.416  48.018  1.00  0.00    -0.219 N 
HETATM   22  C   UNL     1      28.976  38.564  49.055  1.00  0.00     0.035 A 
HETATM   23  C   UNL     1      30.297  38.056  49.572  1.00  0.00     0.070 C 
HETATM   24  C   UNL     1      28.464  37.927  47.801  1.00  0.00     0.053 A 
HETATM   25  C   UNL     1      27.301  38.396  47.321  1.00  0.00     0.036 A 
HETATM   26  C   UNL     1      26.678  37.851  46.070  1.00  0.00     0.070 C 
HETATM   27  N   UNL     1      25.458  40.004  47.702  1.00  0.00    -0.170 NA
HETATM   28  C   UNL     1      25.239  40.892  48.677  1.00  0.00     0.071 A 
HETATM   29  C   UNL     1      24.005  41.719  48.660  1.00  0.00     0.073 C 
ENDBRANCH   1  18
TORSDOF 6
ENDMDL
