MODEL 1
REMARK VINA RESULT:      -9.0      0.000      0.000
REMARK  6 active torsions:
REMARK  status: ('A' for Active; 'I' for Inactive)
REMARK    1  A    between atoms: C_3  and  C_4 
REMARK    2  A    between atoms: C_4  and  C_5 
REMARK    3  A    between atoms: C_5  and  C_6 
REMARK    4  A    between atoms: C_6  and  C_7 
REMARK       I    between atoms: C_7  and  N_8 
REMARK    5  A    between atoms: N_8  and  C_9 
REMARK    6  A    between atoms: C_11  and  C_12 
ROOT
HETATM    1  C   UNL     1      25.914  44.661  53.142  1.00  0.00     0.222 C 
HETATM    2  N   UNL     1      27.235  44.749  52.737  1.00  0.00    -0.327 N 
HETATM    3  O   UNL     1      25.495  44.099  54.148  1.00  0.00    -0.273 OA
HETATM    4  H   UNL     1      27.420  45.250  51.878  1.00  0.00     0.169 HD
ENDROOT
BRANCH   2   5
HETATM    5  C   UNL     1      28.372  44.230  53.394  1.00  0.00     0.035 A 
HETATM    6  C   UNL     1      28.836  44.682  54.634  1.00  0.00     0.042 A 
HETATM    7  C   UNL     1      29.973  44.116  55.239  1.00  0.00    -0.021 A 
HETATM    8  C   UNL     1      30.650  43.090  54.568  1.00  0.00     0.012 A 
HETATM    9  C   UNL     1      30.199  42.635  53.328  1.00  0.00     0.003 A 
HETATM   10  C   UNL     1      29.064  43.200  52.747  1.00  0.00     0.029 A 
BRANCH   7  11
HETATM   11  C   UNL     1      30.449  44.580  56.536  1.00  0.00     0.010 A 
HETATM   12  C   UNL     1      31.351  43.992  57.458  1.00  0.00     0.152 A 
HETATM   13  N   UNL     1      31.525  44.729  58.560  1.00  0.00    -0.187 NA
HETATM   14  N   UNL     1      30.738  45.794  58.350  1.00  0.00    -0.289 N 
HETATM   15  H   UNL     1      30.699  46.515  59.063  1.00  0.00     0.188 HD
HETATM   16  C   UNL     1      30.072  45.751  57.160  1.00  0.00     0.123 A 
ENDBRANCH   7  11
ENDBRANCH   2   5
BRANCH   1  17
HETATM   17  C   UNL     1      24.959  45.364  52.190  1.00  0.00     0.103 C 
BRANCH  17  18
HETATM   18  C   UNL     1      25.421  46.789  51.891  1.00  0.00     0.014 C 
BRANCH  18  19
HETATM   19  C   UNL     1      26.144  46.880  50.542  1.00  0.00     0.047 C 
BRANCH  19  20
HETATM   20  C   UNL     1      25.600  47.998  49.697  1.00  0.00    -0.012 A 
HETATM   21  C   UNL     1      26.302  49.000  49.043  1.00  0.00    -0.049 A 
HETATM   22  C   UNL     1      27.788  49.164  49.052  1.00  0.00     0.049 C 
HETATM   23  C   UNL     1      25.410  49.870  48.333  1.00  0.00     0.015 A 
HETATM   24  C   UNL     1      24.090  49.510  48.475  1.00  0.00     0.051 A 
HETATM   25  S   UNL     1      23.909  48.124  49.451  1.00  0.00    -0.106 SA
ENDBRANCH  19  20
ENDBRANCH  18  19
ENDBRANCH  17  18
ENDBRANCH   1  17
TORSDOF 6
ENDMDL
MODEL 2
REMARK VINA RESULT:      -8.5      3.614      8.752
REMARK  6 active torsions:
REMARK  status: ('A' for Active; 'I' for Inactive)
REMARK    1  A    between atoms: C_3  and  C_4 
REMARK    2  A    between atoms: C_4  and  C_5 
REMARK    3  A    between atoms: C_5  and  C_6 
REMARK    4  A    between atoms: C_6  and  C_7 
REMARK       I    between atoms: C_7  and  N_8 
REMARK    5  A    between atoms: N_8  and  C_9 
REMARK    6  A    between atoms: C_11  and  C_12 
ROOT
HETATM    1  C   UNL     1      26.232  47.414  54.425  1.00  0.00     0.222 C 
HETATM    2  N   UNL     1      26.447  46.565  53.354  1.00  0.00    -0.327 N 
HETATM    3  O   UNL     1      25.417  48.328  54.480  1.00  0.00    -0.273 OA
HETATM    4  H   UNL     1      27.161  45.856  53.465  1.00  0.00     0.169 HD
ENDROOT
BRANCH   2   5
HETATM    5  C   UNL     1      25.771  46.557  52.114  1.00  0.00     0.035 A 
HETATM    6  C   UNL     1      25.802  47.613  51.197  1.00  0.00     0.042 A 
HETATM    7  C   UNL     1      25.112  47.538  49.974  1.00  0.00    -0.021 A 
HETATM    8  C   UNL     1      24.374  46.383  49.689  1.00  0.00     0.012 A 
HETATM    9  C   UNL     1      24.332  45.326  50.599  1.00  0.00     0.003 A 
HETATM   10  C   UNL     1      25.030  45.412  51.803  1.00  0.00     0.029 A 
BRANCH   7  11
HETATM   11  C   UNL     1      25.154  48.634  49.014  1.00  0.00     0.010 A 
HETATM   12  C   UNL     1      26.252  49.304  48.417  1.00  0.00     0.152 A 
HETATM   13  N   UNL     1      25.877  50.281  47.585  1.00  0.00    -0.187 NA
HETATM   14  N   UNL     1      24.538  50.243  47.642  1.00  0.00    -0.289 N 
HETATM   15  H   UNL     1      24.011  50.905  47.083  1.00  0.00     0.188 HD
HETATM   16  C   UNL     1      24.057  49.282  48.483  1.00  0.00     0.123 A 
ENDBRANCH   7  11
ENDBRANCH   2   5
BRANCH   1  17
HETATM   17  C   UNL     1      27.137  47.108  55.609  1.00  0.00     0.103 C 
BRANCH  17  18
HETATM   18  C   UNL     1      27.939  45.828  55.379  1.00  0.00     0.014 C 
BRANCH  18  19
HETATM   19  C   UNL     1      29.443  46.111  55.283  1.00  0.00     0.047 C 
BRANCH  19  20
HETATM   20  C   UNL     1      30.232  45.227  56.207  1.00  0.00    -0.012 A 
HETATM   21  C   UNL     1      30.729  43.955  55.963  1.00  0.00    -0.049 A 
HETATM   22  C   UNL     1      30.571  43.194  54.687  1.00  0.00     0.049 C 
HETATM   23  C   UNL     1      31.439  43.456  57.105  1.00  0.00     0.015 A 
HETATM   24  C   UNL     1      31.451  44.344  58.155  1.00  0.00     0.051 A 
HETATM   25  S   UNL     1      30.620  45.785  57.781  1.00  0.00    -0.106 SA
ENDBRANCH  19  20
ENDBRANCH  18  19
ENDBRANCH  17  18
ENDBRANCH   1  17
TORSDOF 6
ENDMDL
MODEL 3
REMARK VINA RESULT:      -8.4      3.422      8.141
REMARK  6 active torsions:
REMARK  status: ('A' for Active; 'I' for Inactive)
REMARK    1  A    between atoms: C_3  and  C_4 
REMARK    2  A    between atoms: C_4  and  C_5 
REMARK    3  A    between atoms: C_5  and  C_6 
REMARK    4  A    between atoms: C_6  and  C_7 
REMARK       I    between atoms: C_7  and  N_8 
REMARK    5  A    between atoms: N_8  and  C_9 
REMARK    6  A    between atoms: C_11  and  C_12 
ROOT
HETATM    1  C   UNL     1      27.006  43.577  52.923  1.00  0.00     0.222 C 
HETATM    2  N   UNL     1      26.333  44.786  52.907  1.00  0.00    -0.327 N 
HETATM    3  O   UNL     1      27.219  42.847  51.962  1.00  0.00    -0.273 OA
HETATM    4  H   UNL     1      26.238  45.272  53.790  1.00  0.00     0.169 HD
ENDROOT
BRANCH   2   5
HETATM    5  C   UNL     1      25.767  45.441  51.790  1.00  0.00     0.035 A 
HETATM    6  C   UNL     1      26.329  46.563  51.171  1.00  0.00     0.042 A 
HETATM    7  C   UNL     1      25.718  47.164  50.056  1.00  0.00    -0.021 A 
HETATM    8  C   UNL     1      24.519  46.624  49.575  1.00  0.00     0.012 A 
HETATM    9  C   UNL     1      23.947  45.508  50.188  1.00  0.00     0.003 A 
HETATM   10  C   UNL     1      24.571  44.919  51.287  1.00  0.00     0.029 A 
BRANCH   7  11
HETATM   11  C   UNL     1      26.309  48.326  49.405  1.00  0.00     0.010 A 
HETATM   12  C   UNL     1      25.718  49.365  48.644  1.00  0.00     0.152 A 
HETATM   13  N   UNL     1      26.607  50.257  48.196  1.00  0.00    -0.187 NA
HETATM   14  N   UNL     1      27.775  49.795  48.669  1.00  0.00    -0.289 N 
HETATM   15  H   UNL     1      28.621  50.314  48.457  1.00  0.00     0.188 HD
HETATM   16  C   UNL     1      27.652  48.645  49.392  1.00  0.00     0.123 A 
ENDBRANCH   7  11
ENDBRANCH   2   5
BRANCH   1  17
HETATM   17  C   UNL     1      27.498  43.198  54.311  1.00  0.00     0.103 C 
BRANCH  17  18
HETATM   18  C   UNL     1      28.907  42.609  54.260  1.00  0.00     0.014 C 
BRANCH  18  19
HETATM   19  C   UNL     1      29.978  43.705  54.215  1.00  0.00     0.047 C 
BRANCH  19  20
HETATM   20  C   UNL     1      30.222  44.296  55.576  1.00  0.00    -0.012 A 
HETATM   21  C   UNL     1      29.738  45.487  56.095  1.00  0.00    -0.049 A 
HETATM   22  C   UNL     1      28.845  46.446  55.374  1.00  0.00     0.049 C 
HETATM   23  C   UNL     1      30.198  45.685  57.438  1.00  0.00     0.015 A 
HETATM   24  C   UNL     1      31.003  44.661  57.882  1.00  0.00     0.051 A 
HETATM   25  S   UNL     1      31.208  43.453  56.696  1.00  0.00    -0.106 SA
ENDBRANCH  19  20
ENDBRANCH  18  19
ENDBRANCH  17  18
ENDBRANCH   1  17
TORSDOF 6
ENDMDL
MODEL 4
REMARK VINA RESULT:      -8.2      3.469      8.289
REMARK  6 active torsions:
REMARK  status: ('A' for Active; 'I' for Inactive)
REMARK    1  A    between atoms: C_3  and  C_4 
REMARK    2  A    between atoms: C_4  and  C_5 
REMARK    3  A    between atoms: C_5  and  C_6 
REMARK    4  A    between atoms: C_6  and  C_7 
REMARK       I    between atoms: C_7  and  N_8 
REMARK    5  A    between atoms: N_8  and  C_9 
REMARK    6  A    between atoms: C_11  and  C_12 
ROOT
HETATM    1  C   UNL     1      26.431  47.432  54.319  1.00  0.00     0.222 C 
HETATM    2  N   UNL     1      26.614  46.642  53.198  1.00  0.00    -0.327 N 
HETATM    3  O   UNL     1      25.509  48.217  54.517  1.00  0.00    -0.273 OA
HETATM    4  H   UNL     1      27.430  46.043  53.187  1.00  0.00     0.169 HD
ENDROOT
BRANCH   2   5
HETATM    5  C   UNL     1      25.781  46.557  52.060  1.00  0.00     0.035 A 
HETATM    6  C   UNL     1      25.604  47.594  51.139  1.00  0.00     0.042 A 
HETATM    7  C   UNL     1      24.765  47.443  50.020  1.00  0.00    -0.021 A 
HETATM    8  C   UNL     1      24.092  46.227  49.846  1.00  0.00     0.012 A 
HETATM    9  C   UNL     1      24.257  45.187  50.763  1.00  0.00     0.003 A 
HETATM   10  C   UNL     1      25.100  45.351  51.861  1.00  0.00     0.029 A 
BRANCH   7  11
HETATM   11  C   UNL     1      24.590  48.520  49.055  1.00  0.00     0.010 A 
HETATM   12  C   UNL     1      23.458  48.915  48.299  1.00  0.00     0.152 A 
HETATM   13  N   UNL     1      23.701  49.958  47.500  1.00  0.00    -0.187 NA
HETATM   14  N   UNL     1      24.990  50.239  47.739  1.00  0.00    -0.289 N 
HETATM   15  H   UNL     1      25.417  51.012  47.239  1.00  0.00     0.188 HD
HETATM   16  C   UNL     1      25.567  49.409  48.655  1.00  0.00     0.123 A 
ENDBRANCH   7  11
ENDBRANCH   2   5
BRANCH   1  17
HETATM   17  C   UNL     1      27.524  47.240  55.359  1.00  0.00     0.103 C 
BRANCH  17  18
HETATM   18  C   UNL     1      28.694  46.437  54.794  1.00  0.00     0.014 C 
BRANCH  18  19
HETATM   19  C   UNL     1      28.923  45.140  55.578  1.00  0.00     0.047 C 
BRANCH  19  20
HETATM   20  C   UNL     1      28.731  43.928  54.710  1.00  0.00    -0.012 A 
HETATM   21  C   UNL     1      27.549  43.270  54.402  1.00  0.00    -0.049 A 
HETATM   22  C   UNL     1      26.190  43.658  54.889  1.00  0.00     0.049 C 
HETATM   23  C   UNL     1      27.794  42.158  53.531  1.00  0.00     0.015 A 
HETATM   24  C   UNL     1      29.126  42.009  53.219  1.00  0.00     0.051 A 
HETATM   25  S   UNL     1      30.091  43.203  53.960  1.00  0.00    -0.106 SA
ENDBRANCH  19  20
ENDBRANCH  18  19
ENDBRANCH  17  18
ENDBRANCH   1  17
TORSDOF 6
ENDMDL
MODEL 5
REMARK VINA RESULT:      -8.1      1.692      2.139
REMARK  6 active torsions:
REMARK  status: ('A' for Active; 'I' for Inactive)
REMARK    1  A    between atoms: C_3  and  C_4 
REMARK    2  A    between atoms: C_4  and  C_5 
REMARK    3  A    between atoms: C_5  and  C_6 
REMARK    4  A    between atoms: C_6  and  C_7 
REMARK       I    between atoms: C_7  and  N_8 
REMARK    5  A    between atoms: N_8  and  C_9 
REMARK    6  A    between atoms: C_11  and  C_12 
ROOT
HETATM    1  C   UNL     1      26.573  44.247  50.663  1.00  0.00     0.222 C 
HETATM    2  N   UNL     1      26.675  43.762  51.955  1.00  0.00    -0.327 N 
HETATM    3  O   UNL     1      27.489  44.679  49.971  1.00  0.00    -0.273 OA
HETATM    4  H   UNL     1      25.821  43.440  52.394  1.00  0.00     0.169 HD
ENDROOT
BRANCH   2   5
HETATM    5  C   UNL     1      27.843  43.646  52.740  1.00  0.00     0.035 A 
HETATM    6  C   UNL     1      28.078  44.377  53.909  1.00  0.00     0.042 A 
HETATM    7  C   UNL     1      29.261  44.209  54.651  1.00  0.00    -0.021 A 
HETATM    8  C   UNL     1      30.218  43.296  54.190  1.00  0.00     0.012 A 
HETATM    9  C   UNL     1      29.996  42.565  53.023  1.00  0.00     0.003 A 
HETATM   10  C   UNL     1      28.814  42.737  52.304  1.00  0.00     0.029 A 
BRANCH   7  11
HETATM   11  C   UNL     1      29.500  44.964  55.874  1.00  0.00     0.010 A 
HETATM   12  C   UNL     1      30.607  44.971  56.760  1.00  0.00     0.152 A 
HETATM   13  N   UNL     1      30.443  45.800  57.795  1.00  0.00    -0.187 NA
HETATM   14  N   UNL     1      29.230  46.331  57.579  1.00  0.00    -0.289 N 
HETATM   15  H   UNL     1      28.873  47.007  58.246  1.00  0.00     0.188 HD
HETATM   16  C   UNL     1      28.625  45.862  56.450  1.00  0.00     0.123 A 
ENDBRANCH   7  11
ENDBRANCH   2   5
BRANCH   1  17
HETATM   17  C   UNL     1      25.151  44.197  50.127  1.00  0.00     0.103 C 
BRANCH  17  18
HETATM   18  C   UNL     1      24.793  45.481  49.381  1.00  0.00     0.014 C 
BRANCH  18  19
HETATM   19  C   UNL     1      24.833  46.704  50.304  1.00  0.00     0.047 C 
BRANCH  19  20
HETATM   20  C   UNL     1      25.230  47.948  49.559  1.00  0.00    -0.012 A 
HETATM   21  C   UNL     1      24.407  48.896  48.970  1.00  0.00    -0.049 A 
HETATM   22  C   UNL     1      22.913  48.863  48.966  1.00  0.00     0.049 C 
HETATM   23  C   UNL     1      25.181  49.940  48.364  1.00  0.00     0.015 A 
HETATM   24  C   UNL     1      26.536  49.749  48.505  1.00  0.00     0.051 A 
HETATM   25  S   UNL     1      26.892  48.324  49.371  1.00  0.00    -0.106 SA
ENDBRANCH  19  20
ENDBRANCH  18  19
ENDBRANCH  17  18
ENDBRANCH   1  17
TORSDOF 6
ENDMDL
MODEL 6
REMARK VINA RESULT:      -8.1      1.473      1.895
REMARK  6 active torsions:
REMARK  status: ('A' for Active; 'I' for Inactive)
REMARK    1  A    between atoms: C_3  and  C_4 
REMARK    2  A    between atoms: C_4  and  C_5 
REMARK    3  A    between atoms: C_5  and  C_6 
REMARK    4  A    between atoms: C_6  and  C_7 
REMARK       I    between atoms: C_7  and  N_8 
REMARK    5  A    between atoms: N_8  and  C_9 
REMARK    6  A    between atoms: C_11  and  C_12 
ROOT
HETATM    1  C   UNL     1      25.161  44.230  51.294  1.00  0.00     0.222 C 
HETATM    2  N   UNL     1      26.447  43.759  51.099  1.00  0.00    -0.327 N 
HETATM    3  O   UNL     1      24.549  44.267  52.356  1.00  0.00    -0.273 OA
HETATM    4  H   UNL     1      26.812  43.795  50.156  1.00  0.00     0.169 HD
ENDROOT
BRANCH   2   5
HETATM    5  C   UNL     1      27.329  43.239  52.072  1.00  0.00     0.035 A 
HETATM    6  C   UNL     1      27.951  44.012  53.059  1.00  0.00     0.042 A 
HETATM    7  C   UNL     1      28.815  43.431  54.005  1.00  0.00    -0.021 A 
HETATM    8  C   UNL     1      29.056  42.053  53.936  1.00  0.00     0.012 A 
HETATM    9  C   UNL     1      28.446  41.274  52.952  1.00  0.00     0.003 A 
HETATM   10  C   UNL     1      27.584  41.864  52.028  1.00  0.00     0.029 A 
BRANCH   7  11
HETATM   11  C   UNL     1      29.453  44.234  55.040  1.00  0.00     0.010 A 
HETATM   12  C   UNL     1      29.090  45.483  55.602  1.00  0.00     0.152 A 
HETATM   13  N   UNL     1      29.951  45.908  56.532  1.00  0.00    -0.187 NA
HETATM   14  N   UNL     1      30.871  44.933  56.572  1.00  0.00    -0.289 N 
HETATM   15  H   UNL     1      31.647  45.028  57.219  1.00  0.00     0.188 HD
HETATM   16  C   UNL     1      30.623  43.915  55.699  1.00  0.00     0.123 A 
ENDBRANCH   7  11
ENDBRANCH   2   5
BRANCH   1  17
HETATM   17  C   UNL     1      24.520  44.737  50.011  1.00  0.00     0.103 C 
BRANCH  17  18
HETATM   18  C   UNL     1      24.149  46.215  50.121  1.00  0.00     0.014 C 
BRANCH  18  19
HETATM   19  C   UNL     1      25.391  47.101  50.276  1.00  0.00     0.047 C 
BRANCH  19  20
HETATM   20  C   UNL     1      25.322  48.310  49.385  1.00  0.00    -0.012 A 
HETATM   21  C   UNL     1      26.370  49.062  48.875  1.00  0.00    -0.049 A 
HETATM   22  C   UNL     1      27.822  48.802  49.121  1.00  0.00     0.049 C 
HETATM   23  C   UNL     1      25.881  50.133  48.057  1.00  0.00     0.015 A 
HETATM   24  C   UNL     1      24.508  50.160  47.981  1.00  0.00     0.051 A 
HETATM   25  S   UNL     1      23.794  48.900  48.881  1.00  0.00    -0.106 SA
ENDBRANCH  19  20
ENDBRANCH  18  19
ENDBRANCH  17  18
ENDBRANCH   1  17
TORSDOF 6
ENDMDL
MODEL 7
REMARK VINA RESULT:      -8.1      3.663      9.251
REMARK  6 active torsions:
REMARK  status: ('A' for Active; 'I' for Inactive)
REMARK    1  A    between atoms: C_3  and  C_4 
REMARK    2  A    between atoms: C_4  and  C_5 
REMARK    3  A    between atoms: C_5  and  C_6 
REMARK    4  A    between atoms: C_6  and  C_7 
REMARK       I    between atoms: C_7  and  N_8 
REMARK    5  A    between atoms: N_8  and  C_9 
REMARK    6  A    between atoms: C_11  and  C_12 
ROOT
HETATM    1  C   UNL     1      25.887  46.711  52.018  1.00  0.00     0.222 C 
HETATM    2  N   UNL     1      26.113  46.811  50.656  1.00  0.00    -0.327 N 
HETATM    3  O   UNL     1      25.391  47.568  52.741  1.00  0.00    -0.273 OA
HETATM    4  H   UNL     1      26.534  46.011  50.200  1.00  0.00     0.169 HD
ENDROOT
BRANCH   2   5
HETATM    5  C   UNL     1      25.809  47.902  49.812  1.00  0.00     0.035 A 
HETATM    6  C   UNL     1      24.510  48.337  49.529  1.00  0.00     0.042 A 
HETATM    7  C   UNL     1      24.276  49.437  48.684  1.00  0.00    -0.021 A 
HETATM    8  C   UNL     1      25.375  50.091  48.114  1.00  0.00     0.012 A 
HETATM    9  C   UNL     1      26.675  49.661  48.384  1.00  0.00     0.003 A 
HETATM   10  C   UNL     1      26.890  48.575  49.232  1.00  0.00     0.029 A 
BRANCH   7  11
HETATM   11  C   UNL     1      22.923  49.896  48.399  1.00  0.00     0.010 A 
HETATM   12  C   UNL     1      22.260  51.103  48.740  1.00  0.00     0.152 A 
HETATM   13  N   UNL     1      20.998  51.147  48.303  1.00  0.00    -0.187 NA
HETATM   14  N   UNL     1      20.843  49.970  47.678  1.00  0.00    -0.289 N 
HETATM   15  H   UNL     1      19.946  49.764  47.252  1.00  0.00     0.188 HD
HETATM   16  C   UNL     1      21.960  49.187  47.711  1.00  0.00     0.123 A 
ENDBRANCH   7  11
ENDBRANCH   2   5
BRANCH   1  17
HETATM   17  C   UNL     1      26.324  45.370  52.589  1.00  0.00     0.103 C 
BRANCH  17  18
HETATM   18  C   UNL     1      26.281  45.376  54.116  1.00  0.00     0.014 C 
BRANCH  18  19
HETATM   19  C   UNL     1      26.570  43.988  54.697  1.00  0.00     0.047 C 
BRANCH  19  20
HETATM   20  C   UNL     1      27.889  43.451  54.217  1.00  0.00    -0.012 A 
HETATM   21  C   UNL     1      29.165  43.869  54.565  1.00  0.00    -0.049 A 
HETATM   22  C   UNL     1      29.484  44.973  55.521  1.00  0.00     0.049 C 
HETATM   23  C   UNL     1      30.161  43.089  53.891  1.00  0.00     0.015 A 
HETATM   24  C   UNL     1      29.619  42.129  53.067  1.00  0.00     0.051 A 
HETATM   25  S   UNL     1      27.915  42.150  53.101  1.00  0.00    -0.106 SA
ENDBRANCH  19  20
ENDBRANCH  18  19
ENDBRANCH  17  18
ENDBRANCH   1  17
TORSDOF 6
ENDMDL
MODEL 8
REMARK VINA RESULT:      -8.1      1.561      2.480
REMARK  6 active torsions:
REMARK  status: ('A' for Active; 'I' for Inactive)
REMARK    1  A    between atoms: C_3  and  C_4 
REMARK    2  A    between atoms: C_4  and  C_5 
REMARK    3  A    between atoms: C_5  and  C_6 
REMARK    4  A    between atoms: C_6  and  C_7 
REMARK       I    between atoms: C_7  and  N_8 
REMARK    5  A    between atoms: N_8  and  C_9 
REMARK    6  A    between atoms: C_11  and  C_12 
ROOT
HETATM    1  C   UNL     1      25.452  44.072  52.906  1.00  0.00     0.222 C 
HETATM    2  N   UNL     1      26.768  44.493  52.841  1.00  0.00    -0.327 N 
HETATM    3  O   UNL     1      24.697  44.179  53.866  1.00  0.00    -0.273 OA
HETATM    4  H   UNL     1      27.261  44.331  51.972  1.00  0.00     0.169 HD
ENDROOT
BRANCH   2   5
HETATM    5  C   UNL     1      27.514  45.144  53.849  1.00  0.00     0.035 A 
HETATM    6  C   UNL     1      28.514  44.526  54.607  1.00  0.00     0.042 A 
HETATM    7  C   UNL     1      29.226  45.233  55.593  1.00  0.00    -0.021 A 
HETATM    8  C   UNL     1      28.907  46.579  55.815  1.00  0.00     0.012 A 
HETATM    9  C   UNL     1      27.907  47.203  55.068  1.00  0.00     0.003 A 
HETATM   10  C   UNL     1      27.218  46.490  54.088  1.00  0.00     0.029 A 
BRANCH   7  11
HETATM   11  C   UNL     1      30.275  44.592  56.374  1.00  0.00     0.010 A 
HETATM   12  C   UNL     1      30.819  44.917  57.642  1.00  0.00     0.152 A 
HETATM   13  N   UNL     1      31.793  44.084  58.022  1.00  0.00    -0.187 NA
HETATM   14  N   UNL     1      31.878  43.218  57.001  1.00  0.00    -0.289 N 
HETATM   15  H   UNL     1      32.563  42.472  57.057  1.00  0.00     0.188 HD
HETATM   16  C   UNL     1      30.998  43.480  55.992  1.00  0.00     0.123 A 
ENDBRANCH   7  11
ENDBRANCH   2   5
BRANCH   1  17
HETATM   17  C   UNL     1      24.976  43.429  51.612  1.00  0.00     0.103 C 
BRANCH  17  18
HETATM   18  C   UNL     1      23.888  44.267  50.943  1.00  0.00     0.014 C 
BRANCH  18  19
HETATM   19  C   UNL     1      24.301  44.713  49.536  1.00  0.00     0.047 C 
BRANCH  19  20
HETATM   20  C   UNL     1      24.814  46.125  49.531  1.00  0.00    -0.012 A 
HETATM   21  C   UNL     1      26.126  46.564  49.635  1.00  0.00    -0.049 A 
HETATM   22  C   UNL     1      27.325  45.682  49.774  1.00  0.00     0.049 C 
HETATM   23  C   UNL     1      26.193  47.995  49.580  1.00  0.00     0.015 A 
HETATM   24  C   UNL     1      24.956  48.582  49.444  1.00  0.00     0.051 A 
HETATM   25  S   UNL     1      23.706  47.424  49.374  1.00  0.00    -0.106 SA
ENDBRANCH  19  20
ENDBRANCH  18  19
ENDBRANCH  17  18
ENDBRANCH   1  17
TORSDOF 6
ENDMDL
MODEL 9
REMARK VINA RESULT:      -8.0      1.478      2.161
REMARK  6 active torsions:
REMARK  status: ('A' for Active; 'I' for Inactive)
REMARK    1  A    between atoms: C_3  and  C_4 
REMARK    2  A    between atoms: C_4  and  C_5 
REMARK    3  A    between atoms: C_5  and  C_6 
REMARK    4  A    between atoms: C_6  and  C_7 
REMARK       I    between atoms: C_7  and  N_8 
REMARK    5  A    between atoms: N_8  and  C_9 
REMARK    6  A    between atoms: C_11  and  C_12 
ROOT
HETATM    1  C   UNL     1      25.846  44.504  53.040  1.00  0.00     0.222 C 
HETATM    2  N   UNL     1      27.166  44.583  52.632  1.00  0.00    -0.327 N 
HETATM    3  O   UNL     1      25.435  44.030  54.094  1.00  0.00    -0.273 OA
HETATM    4  H   UNL     1      27.343  45.005  51.729  1.00  0.00     0.169 HD
ENDROOT
BRANCH   2   5
HETATM    5  C   UNL     1      28.312  44.155  53.337  1.00  0.00     0.035 A 
HETATM    6  C   UNL     1      28.715  44.678  54.570  1.00  0.00     0.042 A 
HETATM    7  C   UNL     1      29.865  44.202  55.226  1.00  0.00    -0.021 A 
HETATM    8  C   UNL     1      30.617  43.192  54.612  1.00  0.00     0.012 A 
HETATM    9  C   UNL     1      30.227  42.667  53.379  1.00  0.00     0.003 A 
HETATM   10  C   UNL     1      29.079  43.144  52.748  1.00  0.00     0.029 A 
BRANCH   7  11
HETATM   11  C   UNL     1      30.278  44.739  56.516  1.00  0.00     0.010 A 
HETATM   12  C   UNL     1      29.894  45.923  57.194  1.00  0.00     0.152 A 
HETATM   13  N   UNL     1      30.514  46.077  58.368  1.00  0.00    -0.187 NA
HETATM   14  N   UNL     1      31.297  44.991  58.451  1.00  0.00    -0.289 N 
HETATM   15  H   UNL     1      31.880  44.877  59.274  1.00  0.00     0.188 HD
HETATM   16  C   UNL     1      31.197  44.165  57.370  1.00  0.00     0.123 A 
ENDBRANCH   7  11
ENDBRANCH   2   5
BRANCH   1  17
HETATM   17  C   UNL     1      24.880  45.091  52.024  1.00  0.00     0.103 C 
BRANCH  17  18
HETATM   18  C   UNL     1      25.332  46.475  51.561  1.00  0.00     0.014 C 
BRANCH  18  19
HETATM   19  C   UNL     1      25.405  46.566  50.033  1.00  0.00     0.047 C 
BRANCH  19  20
HETATM   20  C   UNL     1      24.064  46.884  49.432  1.00  0.00    -0.012 A 
HETATM   21  C   UNL     1      23.149  46.010  48.864  1.00  0.00    -0.049 A 
HETATM   22  C   UNL     1      23.326  44.531  48.738  1.00  0.00     0.049 C 
HETATM   23  C   UNL     1      21.982  46.713  48.415  1.00  0.00     0.015 A 
HETATM   24  C   UNL     1      22.053  48.067  48.647  1.00  0.00     0.051 A 
HETATM   25  S   UNL     1      23.513  48.506  49.411  1.00  0.00    -0.106 SA
ENDBRANCH  19  20
ENDBRANCH  18  19
ENDBRANCH  17  18
ENDBRANCH   1  17
TORSDOF 6
ENDMDL
MODEL 10
REMARK VINA RESULT:      -7.7      4.523      9.944
REMARK  6 active torsions:
REMARK  status: ('A' for Active; 'I' for Inactive)
REMARK    1  A    between atoms: C_3  and  C_4 
REMARK    2  A    between atoms: C_4  and  C_5 
REMARK    3  A    between atoms: C_5  and  C_6 
REMARK    4  A    between atoms: C_6  and  C_7 
REMARK       I    between atoms: C_7  and  N_8 
REMARK    5  A    between atoms: N_8  and  C_9 
REMARK    6  A    between atoms: C_11  and  C_12 
ROOT
HETATM    1  C   UNL     1      25.185  47.333  50.164  1.00  0.00     0.222 C 
HETATM    2  N   UNL     1      23.945  47.509  49.578  1.00  0.00    -0.327 N 
HETATM    3  O   UNL     1      26.016  48.205  50.392  1.00  0.00    -0.273 OA
HETATM    4  H   UNL     1      23.371  46.684  49.457  1.00  0.00     0.169 HD
ENDROOT
BRANCH   2   5
HETATM    5  C   UNL     1      23.367  48.720  49.134  1.00  0.00     0.035 A 
HETATM    6  C   UNL     1      22.080  49.146  49.477  1.00  0.00     0.042 A 
HETATM    7  C   UNL     1      21.566  50.368  49.006  1.00  0.00    -0.021 A 
HETATM    8  C   UNL     1      22.367  51.156  48.170  1.00  0.00     0.012 A 
HETATM    9  C   UNL     1      23.650  50.737  47.817  1.00  0.00     0.003 A 
HETATM   10  C   UNL     1      24.148  49.527  48.300  1.00  0.00     0.029 A 
BRANCH   7  11
HETATM   11  C   UNL     1      20.229  50.817  49.373  1.00  0.00     0.010 A 
HETATM   12  C   UNL     1      19.253  50.235  50.220  1.00  0.00     0.152 A 
HETATM   13  N   UNL     1      18.128  50.953  50.292  1.00  0.00    -0.187 NA
HETATM   14  N   UNL     1      18.376  52.001  49.494  1.00  0.00    -0.289 N 
HETATM   15  H   UNL     1      17.655  52.706  49.383  1.00  0.00     0.188 HD
HETATM   16  C   UNL     1      19.613  51.965  48.918  1.00  0.00     0.123 A 
ENDBRANCH   7  11
ENDBRANCH   2   5
BRANCH   1  17
HETATM   17  C   UNL     1      25.459  45.884  50.535  1.00  0.00     0.103 C 
BRANCH  17  18
HETATM   18  C   UNL     1      25.005  45.580  51.962  1.00  0.00     0.014 C 
BRANCH  18  19
HETATM   19  C   UNL     1      26.081  44.825  52.751  1.00  0.00     0.047 C 
BRANCH  19  20
HETATM   20  C   UNL     1      26.755  45.713  53.759  1.00  0.00    -0.012 A 
HETATM   21  C   UNL     1      27.885  45.449  54.519  1.00  0.00    -0.049 A 
HETATM   22  C   UNL     1      28.680  44.184  54.476  1.00  0.00     0.049 C 
HETATM   23  C   UNL     1      28.210  46.566  55.357  1.00  0.00     0.015 A 
HETATM   24  C   UNL     1      27.332  47.614  55.213  1.00  0.00     0.051 A 
HETATM   25  S   UNL     1      26.116  47.274  54.068  1.00  0.00    -0.106 SA
ENDBRANCH  19  20
ENDBRANCH  18  19
ENDBRANCH  17  18
ENDBRANCH   1  17
TORSDOF 6
ENDMDL
