MODEL 1
REMARK VINA RESULT:      -8.7      0.000      0.000
REMARK  6 active torsions:
REMARK  status: ('A' for Active; 'I' for Inactive)
REMARK    1  A    between atoms: C_2  and  C_3 
REMARK       I    between atoms: C_3  and  N_4 
REMARK    2  A    between atoms: N_4  and  C_5 
REMARK    3  A    between atoms: C_7  and  N_8 
REMARK       I    between atoms: N_8  and  C_9 
REMARK    4  A    between atoms: C_9  and  C_10 
REMARK    5  A    between atoms: C_13  and  C_14 
REMARK    6  A    between atoms: C_14  and  C_15 
ROOT
HETATM    1  N   UNL     1      22.221  49.385  49.435  1.00  0.00    -0.322 N 
HETATM    2  C   UNL     1      21.738  50.519  50.064  1.00  0.00     0.256 C 
HETATM    3  O   UNL     1      22.347  51.229  50.855  1.00  0.00    -0.267 OA
HETATM    4  H   UNL     1      21.569  48.861  48.874  1.00  0.00     0.169 HD
ENDROOT
BRANCH   1   5
HETATM    5  C   UNL     1      23.563  48.921  49.398  1.00  0.00     0.043 A 
HETATM    6  C   UNL     1      24.020  47.873  50.215  1.00  0.00     0.059 A 
HETATM    7  C   UNL     1      25.374  47.521  50.255  1.00  0.00     0.036 A 
HETATM    8  C   UNL     1      26.275  48.209  49.438  1.00  0.00     0.030 A 
HETATM    9  C   UNL     1      25.833  49.228  48.596  1.00  0.00     0.011 A 
HETATM   10  C   UNL     1      24.481  49.599  48.566  1.00  0.00    -0.035 A 
HETATM   11  C   UNL     1      24.070  50.717  47.647  1.00  0.00     0.050 C 
BRANCH   7  12
HETATM   12  N   UNL     1      25.921  46.549  51.121  1.00  0.00    -0.327 N 
HETATM   13  C   UNL     1      26.072  46.625  52.492  1.00  0.00     0.221 C 
HETATM   14  O   UNL     1      25.659  47.525  53.217  1.00  0.00    -0.273 OA
HETATM   15  H   UNL     1      26.212  45.691  50.676  1.00  0.00     0.169 HD
BRANCH  13  16
HETATM   16  C   UNL     1      26.906  45.503  53.099  1.00  0.00     0.098 C 
HETATM   17  C   UNL     1      27.557  45.811  54.435  1.00  0.00     0.014 C 
ENDBRANCH  13  16
ENDBRANCH   7  12
ENDBRANCH   1   5
BRANCH   2  18
HETATM   18  C   UNL     1      20.344  50.915  49.703  1.00  0.00     0.032 A 
HETATM   19  C   UNL     1      19.208  50.367  50.310  1.00  0.00     0.017 A 
HETATM   20  C   UNL     1      17.932  50.743  49.879  1.00  0.00     0.008 A 
HETATM   21  C   UNL     1      17.770  51.678  48.844  1.00  0.00    -0.051 A 
HETATM   22  C   UNL     1      18.911  52.255  48.269  1.00  0.00     0.008 A 
HETATM   23  C   UNL     1      20.185  51.878  48.695  1.00  0.00     0.017 A 
BRANCH  21  24
HETATM   24  C   UNL     1      16.391  52.070  48.363  1.00  0.00     0.120 C 
BRANCH  24  25
HETATM   25  C   UNL     1      15.754  52.821  49.476  1.00  0.00     0.151 A 
HETATM   26  N   UNL     1      16.326  53.881  50.068  1.00  0.00    -0.158 NA
HETATM   27  N   UNL     1      15.405  54.201  50.992  1.00  0.00    -0.270 N 
HETATM   28  H   UNL     1      15.561  54.999  51.595  1.00  0.00     0.190 HD
HETATM   29  C   UNL     1      14.357  53.338  50.963  1.00  0.00     0.227 A 
HETATM   30  N   UNL     1      14.552  52.442  50.027  1.00  0.00    -0.225 NA
ENDBRANCH  24  25
ENDBRANCH  21  24
ENDBRANCH   2  18
TORSDOF 6
ENDMDL
MODEL 2
REMARK VINA RESULT:      -8.7      3.402     10.820
REMARK  6 active torsions:
REMARK  status: ('A' for Active; 'I' for Inactive)
REMARK    1  A    between atoms: C_2  and  C_3 
REMARK       I    between atoms: C_3  and  N_4 
REMARK    2  A    between atoms: N_4  and  C_5 
REMARK    3  A    between atoms: C_7  and  N_8 
REMARK       I    between atoms: N_8  and  C_9 
REMARK    4  A    between atoms: C_9  and  C_10 
REMARK    5  A    between atoms: C_13  and  C_14 
REMARK    6  A    between atoms: C_14  and  C_15 
ROOT
HETATM    1  N   UNL     1      25.585  47.250  50.515  1.00  0.00    -0.322 N 
HETATM    2  C   UNL     1      25.594  45.901  50.207  1.00  0.00     0.256 C 
HETATM    3  O   UNL     1      25.152  45.383  49.190  1.00  0.00    -0.267 OA
HETATM    4  H   UNL     1      25.914  47.512  51.430  1.00  0.00     0.169 HD
ENDROOT
BRANCH   1   5
HETATM    5  C   UNL     1      25.266  48.332  49.652  1.00  0.00     0.043 A 
HETATM    6  C   UNL     1      23.945  48.764  49.444  1.00  0.00     0.059 A 
HETATM    7  C   UNL     1      23.643  49.744  48.492  1.00  0.00     0.036 A 
HETATM    8  C   UNL     1      24.686  50.322  47.763  1.00  0.00     0.030 A 
HETATM    9  C   UNL     1      26.006  49.930  47.981  1.00  0.00     0.011 A 
HETATM   10  C   UNL     1      26.312  48.934  48.919  1.00  0.00    -0.035 A 
HETATM   11  C   UNL     1      27.755  48.544  49.097  1.00  0.00     0.050 C 
BRANCH   7  12
HETATM   12  N   UNL     1      22.333  50.157  48.159  1.00  0.00    -0.327 N 
HETATM   13  C   UNL     1      21.385  50.717  48.992  1.00  0.00     0.221 C 
HETATM   14  O   UNL     1      21.553  51.049  50.162  1.00  0.00    -0.273 OA
HETATM   15  H   UNL     1      22.081  50.045  47.188  1.00  0.00     0.169 HD
BRANCH  13  16
HETATM   16  C   UNL     1      19.996  50.836  48.377  1.00  0.00     0.098 C 
HETATM   17  C   UNL     1      19.360  52.213  48.439  1.00  0.00     0.014 C 
ENDBRANCH  13  16
ENDBRANCH   7  12
ENDBRANCH   1   5
BRANCH   2  18
HETATM   18  C   UNL     1      26.242  45.011  51.218  1.00  0.00     0.032 A 
HETATM   19  C   UNL     1      25.655  44.692  52.448  1.00  0.00     0.017 A 
HETATM   20  C   UNL     1      26.346  43.900  53.370  1.00  0.00     0.008 A 
HETATM   21  C   UNL     1      27.628  43.407  53.075  1.00  0.00    -0.051 A 
HETATM   22  C   UNL     1      28.192  43.696  51.825  1.00  0.00     0.008 A 
HETATM   23  C   UNL     1      27.505  44.489  50.905  1.00  0.00     0.017 A 
BRANCH  21  24
HETATM   24  C   UNL     1      28.384  42.568  54.081  1.00  0.00     0.120 C 
BRANCH  24  25
HETATM   25  C   UNL     1      29.294  43.494  54.803  1.00  0.00     0.151 A 
HETATM   26  N   UNL     1      30.542  43.161  55.167  1.00  0.00    -0.158 NA
HETATM   27  N   UNL     1      30.951  44.283  55.782  1.00  0.00    -0.270 N 
HETATM   28  H   UNL     1      31.891  44.334  56.154  1.00  0.00     0.190 HD
HETATM   29  C   UNL     1      29.965  45.217  55.808  1.00  0.00     0.227 A 
HETATM   30  N   UNL     1      28.898  44.746  55.212  1.00  0.00    -0.225 NA
ENDBRANCH  24  25
ENDBRANCH  21  24
ENDBRANCH   2  18
TORSDOF 6
ENDMDL
MODEL 3
REMARK VINA RESULT:      -8.6      3.971     11.617
REMARK  6 active torsions:
REMARK  status: ('A' for Active; 'I' for Inactive)
REMARK    1  A    between atoms: C_2  and  C_3 
REMARK       I    between atoms: C_3  and  N_4 
REMARK    2  A    between atoms: N_4  and  C_5 
REMARK    3  A    between atoms: C_7  and  N_8 
REMARK       I    between atoms: N_8  and  C_9 
REMARK    4  A    between atoms: C_9  and  C_10 
REMARK    5  A    between atoms: C_13  and  C_14 
REMARK    6  A    between atoms: C_14  and  C_15 
ROOT
HETATM    1  N   UNL     1      25.689  45.421  50.956  1.00  0.00    -0.322 N 
HETATM    2  C   UNL     1      25.488  44.688  52.112  1.00  0.00     0.256 C 
HETATM    3  O   UNL     1      24.410  44.421  52.627  1.00  0.00    -0.267 OA
HETATM    4  H   UNL     1      26.643  45.625  50.705  1.00  0.00     0.169 HD
ENDROOT
BRANCH   1   5
HETATM    5  C   UNL     1      24.711  45.836  50.014  1.00  0.00     0.043 A 
HETATM    6  C   UNL     1      24.237  47.158  49.954  1.00  0.00     0.059 A 
HETATM    7  C   UNL     1      23.181  47.513  49.107  1.00  0.00     0.036 A 
HETATM    8  C   UNL     1      22.617  46.534  48.283  1.00  0.00     0.030 A 
HETATM    9  C   UNL     1      23.099  45.226  48.304  1.00  0.00     0.011 A 
HETATM   10  C   UNL     1      24.143  44.861  49.166  1.00  0.00    -0.035 A 
HETATM   11  C   UNL     1      24.607  43.429  49.153  1.00  0.00     0.050 C 
BRANCH   7  12
HETATM   12  N   UNL     1      22.587  48.794  49.065  1.00  0.00    -0.327 N 
HETATM   13  C   UNL     1      22.925  49.857  48.250  1.00  0.00     0.221 C 
HETATM   14  O   UNL     1      23.748  49.840  47.340  1.00  0.00    -0.273 OA
HETATM   15  H   UNL     1      21.810  48.929  49.694  1.00  0.00     0.169 HD
BRANCH  13  16
HETATM   16  C   UNL     1      22.244  51.171  48.613  1.00  0.00     0.098 C 
HETATM   17  C   UNL     1      20.737  51.111  48.780  1.00  0.00     0.014 C 
ENDBRANCH  13  16
ENDBRANCH   7  12
ENDBRANCH   1   5
BRANCH   2  18
HETATM   18  C   UNL     1      26.722  44.151  52.761  1.00  0.00     0.032 A 
HETATM   19  C   UNL     1      26.776  43.763  54.105  1.00  0.00     0.017 A 
HETATM   20  C   UNL     1      27.982  43.325  54.661  1.00  0.00     0.008 A 
HETATM   21  C   UNL     1      29.149  43.258  53.882  1.00  0.00    -0.051 A 
HETATM   22  C   UNL     1      29.079  43.607  52.526  1.00  0.00     0.008 A 
HETATM   23  C   UNL     1      27.877  44.049  51.971  1.00  0.00     0.017 A 
BRANCH  21  24
HETATM   24  C   UNL     1      30.458  42.804  54.488  1.00  0.00     0.120 C 
BRANCH  24  25
HETATM   25  C   UNL     1      30.665  43.625  55.709  1.00  0.00     0.151 A 
HETATM   26  N   UNL     1      31.223  43.144  56.831  1.00  0.00    -0.158 NA
HETATM   27  N   UNL     1      31.185  44.221  57.632  1.00  0.00    -0.270 N 
HETATM   28  H   UNL     1      31.568  44.161  58.567  1.00  0.00     0.190 HD
HETATM   29  C   UNL     1      30.594  45.275  57.012  1.00  0.00     0.227 A 
HETATM   30  N   UNL     1      30.238  44.929  55.800  1.00  0.00    -0.225 NA
ENDBRANCH  24  25
ENDBRANCH  21  24
ENDBRANCH   2  18
TORSDOF 6
ENDMDL
MODEL 4
REMARK VINA RESULT:      -8.5      3.734      7.278
REMARK  6 active torsions:
REMARK  status: ('A' for Active; 'I' for Inactive)
REMARK    1  A    between atoms: C_2  and  C_3 
REMARK       I    between atoms: C_3  and  N_4 
REMARK    2  A    between atoms: N_4  and  C_5 
REMARK    3  A    between atoms: C_7  and  N_8 
REMARK       I    between atoms: N_8  and  C_9 
REMARK    4  A    between atoms: C_9  and  C_10 
REMARK    5  A    between atoms: C_13  and  C_14 
REMARK    6  A    between atoms: C_14  and  C_15 
ROOT
HETATM    1  N   UNL     1      26.855  44.597  51.095  1.00  0.00    -0.322 N 
HETATM    2  C   UNL     1      25.700  45.310  51.363  1.00  0.00     0.256 C 
HETATM    3  O   UNL     1      24.883  45.069  52.243  1.00  0.00    -0.267 OA
HETATM    4  H   UNL     1      27.384  44.872  50.283  1.00  0.00     0.169 HD
ENDROOT
BRANCH   1   5
HETATM    5  C   UNL     1      27.450  43.583  51.891  1.00  0.00     0.043 A 
HETATM    6  C   UNL     1      28.326  43.874  52.951  1.00  0.00     0.059 A 
HETATM    7  C   UNL     1      29.001  42.857  53.636  1.00  0.00     0.036 A 
HETATM    8  C   UNL     1      28.765  41.528  53.276  1.00  0.00     0.030 A 
HETATM    9  C   UNL     1      27.872  41.219  52.250  1.00  0.00     0.011 A 
HETATM   10  C   UNL     1      27.209  42.235  51.547  1.00  0.00    -0.035 A 
HETATM   11  C   UNL     1      26.270  41.837  50.440  1.00  0.00     0.050 C 
BRANCH   7  12
HETATM   12  N   UNL     1      29.968  43.078  54.642  1.00  0.00    -0.327 N 
HETATM   13  C   UNL     1      30.060  44.150  55.508  1.00  0.00     0.221 C 
HETATM   14  O   UNL     1      29.246  45.062  55.620  1.00  0.00    -0.273 OA
HETATM   15  H   UNL     1      30.656  42.346  54.745  1.00  0.00     0.169 HD
BRANCH  13  16
HETATM   16  C   UNL     1      31.350  44.200  56.316  1.00  0.00     0.098 C 
HETATM   17  C   UNL     1      31.579  43.041  57.269  1.00  0.00     0.014 C 
ENDBRANCH  13  16
ENDBRANCH   7  12
ENDBRANCH   1   5
BRANCH   2  18
HETATM   18  C   UNL     1      25.464  46.508  50.502  1.00  0.00     0.032 A 
HETATM   19  C   UNL     1      26.458  47.449  50.207  1.00  0.00     0.017 A 
HETATM   20  C   UNL     1      26.149  48.578  49.441  1.00  0.00     0.008 A 
HETATM   21  C   UNL     1      24.849  48.779  48.950  1.00  0.00    -0.051 A 
HETATM   22  C   UNL     1      23.869  47.811  49.213  1.00  0.00     0.008 A 
HETATM   23  C   UNL     1      24.175  46.686  49.980  1.00  0.00     0.017 A 
BRANCH  21  24
HETATM   24  C   UNL     1      24.510  50.010  48.140  1.00  0.00     0.120 C 
BRANCH  24  25
HETATM   25  C   UNL     1      23.167  50.456  48.592  1.00  0.00     0.151 A 
HETATM   26  N   UNL     1      22.914  50.869  49.844  1.00  0.00    -0.158 NA
HETATM   27  N   UNL     1      21.602  51.148  49.774  1.00  0.00    -0.270 N 
HETATM   28  H   UNL     1      21.125  51.510  50.590  1.00  0.00     0.190 HD
HETATM   29  C   UNL     1      21.105  50.873  48.540  1.00  0.00     0.227 A 
HETATM   30  N   UNL     1      22.064  50.418  47.772  1.00  0.00    -0.225 NA
ENDBRANCH  24  25
ENDBRANCH  21  24
ENDBRANCH   2  18
TORSDOF 6
ENDMDL
MODEL 5
REMARK VINA RESULT:      -8.3      2.131      2.582
REMARK  6 active torsions:
REMARK  status: ('A' for Active; 'I' for Inactive)
REMARK    1  A    between atoms: C_2  and  C_3 
REMARK       I    between atoms: C_3  and  N_4 
REMARK    2  A    between atoms: N_4  and  C_5 
REMARK    3  A    between atoms: C_7  and  N_8 
REMARK       I    between atoms: N_8  and  C_9 
REMARK    4  A    between atoms: C_9  and  C_10 
REMARK    5  A    between atoms: C_13  and  C_14 
REMARK    6  A    between atoms: C_14  and  C_15 
ROOT
HETATM    1  N   UNL     1      22.720  49.217  48.881  1.00  0.00    -0.322 N 
HETATM    2  C   UNL     1      22.072  50.315  49.419  1.00  0.00     0.256 C 
HETATM    3  O   UNL     1      22.409  50.947  50.412  1.00  0.00    -0.267 OA
HETATM    4  H   UNL     1      22.272  48.756  48.107  1.00  0.00     0.169 HD
ENDROOT
BRANCH   1   5
HETATM    5  C   UNL     1      24.006  48.719  49.223  1.00  0.00     0.043 A 
HETATM    6  C   UNL     1      24.191  47.705  50.178  1.00  0.00     0.059 A 
HETATM    7  C   UNL     1      25.472  47.323  50.593  1.00  0.00     0.036 A 
HETATM    8  C   UNL     1      26.582  47.944  50.015  1.00  0.00     0.030 A 
HETATM    9  C   UNL     1      26.418  48.927  49.040  1.00  0.00     0.011 A 
HETATM   10  C   UNL     1      25.137  49.328  48.636  1.00  0.00    -0.035 A 
HETATM   11  C   UNL     1      25.026  50.406  47.591  1.00  0.00     0.050 C 
BRANCH   7  12
HETATM   12  N   UNL     1      25.733  46.385  51.616  1.00  0.00    -0.327 N 
HETATM   13  C   UNL     1      25.811  46.615  52.976  1.00  0.00     0.221 C 
HETATM   14  O   UNL     1      25.566  47.673  53.547  1.00  0.00    -0.273 OA
HETATM   15  H   UNL     1      25.852  45.432  51.306  1.00  0.00     0.169 HD
BRANCH  13  16
HETATM   16  C   UNL     1      26.335  45.436  53.787  1.00  0.00     0.098 C 
HETATM   17  C   UNL     1      27.396  45.763  54.821  1.00  0.00     0.014 C 
ENDBRANCH  13  16
ENDBRANCH   7  12
ENDBRANCH   1   5
BRANCH   2  18
HETATM   18  C   UNL     1      20.860  50.777  48.677  1.00  0.00     0.032 A 
HETATM   19  C   UNL     1      20.034  51.815  49.127  1.00  0.00     0.017 A 
HETATM   20  C   UNL     1      18.882  52.155  48.410  1.00  0.00     0.008 A 
HETATM   21  C   UNL     1      18.542  51.472  47.231  1.00  0.00    -0.051 A 
HETATM   22  C   UNL     1      19.395  50.462  46.764  1.00  0.00     0.008 A 
HETATM   23  C   UNL     1      20.543  50.119  47.480  1.00  0.00     0.017 A 
BRANCH  21  24
HETATM   24  C   UNL     1      17.286  51.825  46.468  1.00  0.00     0.120 C 
BRANCH  24  25
HETATM   25  C   UNL     1      16.394  50.639  46.550  1.00  0.00     0.151 A 
HETATM   26  N   UNL     1      15.877  50.033  45.470  1.00  0.00    -0.158 NA
HETATM   27  N   UNL     1      15.152  49.053  46.034  1.00  0.00    -0.270 N 
HETATM   28  H   UNL     1      14.650  48.402  45.444  1.00  0.00     0.190 HD
HETATM   29  C   UNL     1      15.216  49.110  47.389  1.00  0.00     0.227 A 
HETATM   30  N   UNL     1      15.980  50.112  47.751  1.00  0.00    -0.225 NA
ENDBRANCH  24  25
ENDBRANCH  21  24
ENDBRANCH   2  18
TORSDOF 6
ENDMDL
MODEL 6
REMARK VINA RESULT:      -8.1      2.986     10.537
REMARK  6 active torsions:
REMARK  status: ('A' for Active; 'I' for Inactive)
REMARK    1  A    between atoms: C_2  and  C_3 
REMARK       I    between atoms: C_3  and  N_4 
REMARK    2  A    between atoms: N_4  and  C_5 
REMARK    3  A    between atoms: C_7  and  N_8 
REMARK       I    between atoms: N_8  and  C_9 
REMARK    4  A    between atoms: C_9  and  C_10 
REMARK    5  A    between atoms: C_13  and  C_14 
REMARK    6  A    between atoms: C_14  and  C_15 
ROOT
HETATM    1  N   UNL     1      23.482  46.668  49.783  1.00  0.00    -0.322 N 
HETATM    2  C   UNL     1      24.605  47.229  50.364  1.00  0.00     0.256 C 
HETATM    3  O   UNL     1      25.136  48.288  50.051  1.00  0.00    -0.267 OA
HETATM    4  H   UNL     1      23.215  45.750  50.099  1.00  0.00     0.169 HD
ENDROOT
BRANCH   1   5
HETATM    5  C   UNL     1      22.589  47.277  48.862  1.00  0.00     0.043 A 
HETATM    6  C   UNL     1      22.128  48.595  49.020  1.00  0.00     0.059 A 
HETATM    7  C   UNL     1      21.149  49.128  48.174  1.00  0.00     0.036 A 
HETATM    8  C   UNL     1      20.652  48.338  47.134  1.00  0.00     0.030 A 
HETATM    9  C   UNL     1      21.124  47.041  46.941  1.00  0.00     0.011 A 
HETATM   10  C   UNL     1      22.089  46.494  47.798  1.00  0.00    -0.035 A 
HETATM   11  C   UNL     1      22.546  45.082  47.547  1.00  0.00     0.050 C 
BRANCH   7  12
HETATM   12  N   UNL     1      20.567  50.406  48.332  1.00  0.00    -0.327 N 
HETATM   13  C   UNL     1      19.653  50.808  49.286  1.00  0.00     0.221 C 
HETATM   14  O   UNL     1      19.257  50.140  50.237  1.00  0.00    -0.273 OA
HETATM   15  H   UNL     1      20.883  51.106  47.677  1.00  0.00     0.169 HD
BRANCH  13  16
HETATM   16  C   UNL     1      19.050  52.186  49.042  1.00  0.00     0.098 C 
HETATM   17  C   UNL     1      17.702  52.442  49.690  1.00  0.00     0.014 C 
ENDBRANCH  13  16
ENDBRANCH   7  12
ENDBRANCH   1   5
BRANCH   2  18
HETATM   18  C   UNL     1      25.193  46.466  51.507  1.00  0.00     0.032 A 
HETATM   19  C   UNL     1      25.870  47.076  52.570  1.00  0.00     0.017 A 
HETATM   20  C   UNL     1      26.445  46.294  53.576  1.00  0.00     0.008 A 
HETATM   21  C   UNL     1      26.346  44.893  53.542  1.00  0.00    -0.051 A 
HETATM   22  C   UNL     1      25.630  44.291  52.497  1.00  0.00     0.008 A 
HETATM   23  C   UNL     1      25.058  45.071  51.491  1.00  0.00     0.017 A 
BRANCH  21  24
HETATM   24  C   UNL     1      26.986  44.046  54.618  1.00  0.00     0.120 C 
BRANCH  24  25
HETATM   25  C   UNL     1      28.029  43.229  53.947  1.00  0.00     0.151 A 
HETATM   26  N   UNL     1      27.924  41.902  53.773  1.00  0.00    -0.158 NA
HETATM   27  N   UNL     1      29.080  41.620  53.150  1.00  0.00    -0.270 N 
HETATM   28  H   UNL     1      29.275  40.668  52.868  1.00  0.00     0.190 HD
HETATM   29  C   UNL     1      29.843  42.734  53.002  1.00  0.00     0.227 A 
HETATM   30  N   UNL     1      29.217  43.767  53.509  1.00  0.00    -0.225 NA
ENDBRANCH  24  25
ENDBRANCH  21  24
ENDBRANCH   2  18
TORSDOF 6
ENDMDL
MODEL 7
REMARK VINA RESULT:      -8.1      4.038      7.472
REMARK  6 active torsions:
REMARK  status: ('A' for Active; 'I' for Inactive)
REMARK    1  A    between atoms: C_2  and  C_3 
REMARK       I    between atoms: C_3  and  N_4 
REMARK    2  A    between atoms: N_4  and  C_5 
REMARK    3  A    between atoms: C_7  and  N_8 
REMARK       I    between atoms: N_8  and  C_9 
REMARK    4  A    between atoms: C_9  and  C_10 
REMARK    5  A    between atoms: C_13  and  C_14 
REMARK    6  A    between atoms: C_14  and  C_15 
ROOT
HETATM    1  N   UNL     1      26.724  44.586  50.899  1.00  0.00    -0.322 N 
HETATM    2  C   UNL     1      25.367  44.855  50.865  1.00  0.00     0.256 C 
HETATM    3  O   UNL     1      24.477  44.180  51.367  1.00  0.00    -0.267 OA
HETATM    4  H   UNL     1      27.324  45.196  50.368  1.00  0.00     0.169 HD
ENDROOT
BRANCH   1   5
HETATM    5  C   UNL     1      27.393  43.609  51.684  1.00  0.00     0.043 A 
HETATM    6  C   UNL     1      27.767  42.357  51.168  1.00  0.00     0.059 A 
HETATM    7  C   UNL     1      28.306  41.363  51.994  1.00  0.00     0.036 A 
HETATM    8  C   UNL     1      28.504  41.644  53.348  1.00  0.00     0.030 A 
HETATM    9  C   UNL     1      28.170  42.893  53.870  1.00  0.00     0.011 A 
HETATM   10  C   UNL     1      27.611  43.885  53.052  1.00  0.00    -0.035 A 
HETATM   11  C   UNL     1      27.258  45.208  53.678  1.00  0.00     0.050 C 
BRANCH   7  12
HETATM   12  N   UNL     1      28.613  40.052  51.568  1.00  0.00    -0.327 N 
HETATM   13  C   UNL     1      28.739  39.590  50.272  1.00  0.00     0.221 C 
HETATM   14  O   UNL     1      28.702  40.272  49.253  1.00  0.00    -0.273 OA
HETATM   15  H   UNL     1      28.781  39.387  52.309  1.00  0.00     0.169 HD
BRANCH  13  16
HETATM   16  C   UNL     1      28.848  38.075  50.150  1.00  0.00     0.098 C 
HETATM   17  C   UNL     1      29.947  37.423  50.969  1.00  0.00     0.014 C 
ENDBRANCH  13  16
ENDBRANCH   7  12
ENDBRANCH   1   5
BRANCH   2  18
HETATM   18  C   UNL     1      24.976  46.118  50.170  1.00  0.00     0.032 A 
HETATM   19  C   UNL     1      25.807  47.242  50.093  1.00  0.00     0.017 A 
HETATM   20  C   UNL     1      25.351  48.411  49.476  1.00  0.00     0.008 A 
HETATM   21  C   UNL     1      24.063  48.474  48.919  1.00  0.00    -0.051 A 
HETATM   22  C   UNL     1      23.252  47.332  48.962  1.00  0.00     0.008 A 
HETATM   23  C   UNL     1      23.704  46.165  49.580  1.00  0.00     0.017 A 
BRANCH  21  24
HETATM   24  C   UNL     1      23.562  49.744  48.271  1.00  0.00     0.120 C 
BRANCH  24  25
HETATM   25  C   UNL     1      22.439  50.232  49.112  1.00  0.00     0.151 A 
HETATM   26  N   UNL     1      22.601  50.676  50.368  1.00  0.00    -0.158 NA
HETATM   27  N   UNL     1      21.338  50.986  50.708  1.00  0.00    -0.270 N 
HETATM   28  H   UNL     1      21.150  51.375  51.623  1.00  0.00     0.190 HD
HETATM   29  C   UNL     1      20.473  50.698  49.702  1.00  0.00     0.227 A 
HETATM   30  N   UNL     1      21.132  50.205  48.683  1.00  0.00    -0.225 NA
ENDBRANCH  24  25
ENDBRANCH  21  24
ENDBRANCH   2  18
TORSDOF 6
ENDMDL
MODEL 8
REMARK VINA RESULT:      -7.9      3.779      6.588
REMARK  6 active torsions:
REMARK  status: ('A' for Active; 'I' for Inactive)
REMARK    1  A    between atoms: C_2  and  C_3 
REMARK       I    between atoms: C_3  and  N_4 
REMARK    2  A    between atoms: N_4  and  C_5 
REMARK    3  A    between atoms: C_7  and  N_8 
REMARK       I    between atoms: N_8  and  C_9 
REMARK    4  A    between atoms: C_9  and  C_10 
REMARK    5  A    between atoms: C_13  and  C_14 
REMARK    6  A    between atoms: C_14  and  C_15 
ROOT
HETATM    1  N   UNL     1      25.808  44.928  51.605  1.00  0.00    -0.322 N 
HETATM    2  C   UNL     1      25.985  45.584  50.399  1.00  0.00     0.256 C 
HETATM    3  O   UNL     1      27.037  45.711  49.786  1.00  0.00    -0.267 OA
HETATM    4  H   UNL     1      24.894  44.981  52.023  1.00  0.00     0.169 HD
ENDROOT
BRANCH   1   5
HETATM    5  C   UNL     1      26.739  44.094  52.280  1.00  0.00     0.043 A 
HETATM    6  C   UNL     1      27.564  44.569  53.313  1.00  0.00     0.059 A 
HETATM    7  C   UNL     1      28.562  43.764  53.874  1.00  0.00     0.036 A 
HETATM    8  C   UNL     1      28.711  42.453  53.413  1.00  0.00     0.030 A 
HETATM    9  C   UNL     1      27.878  41.954  52.413  1.00  0.00     0.011 A 
HETATM   10  C   UNL     1      26.889  42.763  51.834  1.00  0.00    -0.035 A 
HETATM   11  C   UNL     1      26.033  42.170  50.747  1.00  0.00     0.050 C 
BRANCH   7  12
HETATM   12  N   UNL     1      29.491  44.203  54.843  1.00  0.00    -0.327 N 
HETATM   13  C   UNL     1      29.294  45.135  55.844  1.00  0.00     0.221 C 
HETATM   14  O   UNL     1      28.231  45.677  56.129  1.00  0.00    -0.273 OA
HETATM   15  H   UNL     1      30.397  43.760  54.803  1.00  0.00     0.169 HD
BRANCH  13  16
HETATM   16  C   UNL     1      30.563  45.553  56.576  1.00  0.00     0.098 C 
HETATM   17  C   UNL     1      30.377  46.017  58.009  1.00  0.00     0.014 C 
ENDBRANCH  13  16
ENDBRANCH   7  12
ENDBRANCH   1   5
BRANCH   2  18
HETATM   18  C   UNL     1      24.748  46.156  49.787  1.00  0.00     0.032 A 
HETATM   19  C   UNL     1      23.828  45.393  49.057  1.00  0.00     0.017 A 
HETATM   20  C   UNL     1      22.722  46.008  48.463  1.00  0.00     0.008 A 
HETATM   21  C   UNL     1      22.512  47.390  48.594  1.00  0.00    -0.051 A 
HETATM   22  C   UNL     1      23.413  48.142  49.362  1.00  0.00     0.008 A 
HETATM   23  C   UNL     1      24.519  47.530  49.953  1.00  0.00     0.017 A 
BRANCH  21  24
HETATM   24  C   UNL     1      21.327  48.059  47.934  1.00  0.00     0.120 C 
BRANCH  24  25
HETATM   25  C   UNL     1      20.262  48.145  48.966  1.00  0.00     0.151 A 
HETATM   26  N   UNL     1      19.427  47.132  49.247  1.00  0.00    -0.158 NA
HETATM   27  N   UNL     1      18.660  47.674  50.207  1.00  0.00    -0.270 N 
HETATM   28  H   UNL     1      17.932  47.117  50.636  1.00  0.00     0.190 HD
HETATM   29  C   UNL     1      19.011  48.964  50.447  1.00  0.00     0.227 A 
HETATM   30  N   UNL     1      20.010  49.300  49.669  1.00  0.00    -0.225 NA
ENDBRANCH  24  25
ENDBRANCH  21  24
ENDBRANCH   2  18
TORSDOF 6
ENDMDL
MODEL 9
REMARK VINA RESULT:      -7.8      2.644      4.433
REMARK  6 active torsions:
REMARK  status: ('A' for Active; 'I' for Inactive)
REMARK    1  A    between atoms: C_2  and  C_3 
REMARK       I    between atoms: C_3  and  N_4 
REMARK    2  A    between atoms: N_4  and  C_5 
REMARK    3  A    between atoms: C_7  and  N_8 
REMARK       I    between atoms: N_8  and  C_9 
REMARK    4  A    between atoms: C_9  and  C_10 
REMARK    5  A    between atoms: C_13  and  C_14 
REMARK    6  A    between atoms: C_14  and  C_15 
ROOT
HETATM    1  N   UNL     1      23.856  46.350  50.314  1.00  0.00    -0.322 N 
HETATM    2  C   UNL     1      24.333  47.491  49.693  1.00  0.00     0.256 C 
HETATM    3  O   UNL     1      25.504  47.841  49.611  1.00  0.00    -0.267 OA
HETATM    4  H   UNL     1      22.857  46.244  50.368  1.00  0.00     0.169 HD
ENDROOT
BRANCH   1   5
HETATM    5  C   UNL     1      24.611  45.248  50.798  1.00  0.00     0.043 A 
HETATM    6  C   UNL     1      25.670  45.404  51.709  1.00  0.00     0.059 A 
HETATM    7  C   UNL     1      26.482  44.322  52.069  1.00  0.00     0.036 A 
HETATM    8  C   UNL     1      26.205  43.061  51.534  1.00  0.00     0.030 A 
HETATM    9  C   UNL     1      25.137  42.883  50.656  1.00  0.00     0.011 A 
HETATM   10  C   UNL     1      24.333  43.966  50.275  1.00  0.00    -0.035 A 
HETATM   11  C   UNL     1      23.205  43.711  49.312  1.00  0.00     0.050 C 
BRANCH   7  12
HETATM   12  N   UNL     1      27.621  44.421  52.899  1.00  0.00    -0.327 N 
HETATM   13  C   UNL     1      27.671  44.368  54.279  1.00  0.00     0.221 C 
HETATM   14  O   UNL     1      26.731  44.122  55.028  1.00  0.00    -0.273 OA
HETATM   15  H   UNL     1      28.500  44.520  52.413  1.00  0.00     0.169 HD
BRANCH  13  16
HETATM   16  C   UNL     1      29.023  44.737  54.877  1.00  0.00     0.098 C 
HETATM   17  C   UNL     1      29.031  45.941  55.801  1.00  0.00     0.014 C 
ENDBRANCH  13  16
ENDBRANCH   7  12
ENDBRANCH   1   5
BRANCH   2  18
HETATM   18  C   UNL     1      23.302  48.348  49.035  1.00  0.00     0.032 A 
HETATM   19  C   UNL     1      23.308  49.747  49.105  1.00  0.00     0.017 A 
HETATM   20  C   UNL     1      22.277  50.483  48.513  1.00  0.00     0.008 A 
HETATM   21  C   UNL     1      21.230  49.836  47.836  1.00  0.00    -0.051 A 
HETATM   22  C   UNL     1      21.252  48.438  47.733  1.00  0.00     0.008 A 
HETATM   23  C   UNL     1      22.279  47.702  48.326  1.00  0.00     0.017 A 
BRANCH  21  24
HETATM   24  C   UNL     1      20.104  50.631  47.214  1.00  0.00     0.120 C 
BRANCH  24  25
HETATM   25  C   UNL     1      19.220  51.054  48.331  1.00  0.00     0.151 A 
HETATM   26  N   UNL     1      18.492  50.192  49.059  1.00  0.00    -0.158 NA
HETATM   27  N   UNL     1      17.868  51.021  49.912  1.00  0.00    -0.270 N 
HETATM   28  H   UNL     1      17.248  50.639  50.614  1.00  0.00     0.190 HD
HETATM   29  C   UNL     1      18.192  52.317  49.664  1.00  0.00     0.227 A 
HETATM   30  N   UNL     1      19.032  52.376  48.661  1.00  0.00    -0.225 NA
ENDBRANCH  24  25
ENDBRANCH  21  24
ENDBRANCH   2  18
TORSDOF 6
ENDMDL
MODEL 10
REMARK VINA RESULT:      -7.8      4.193      7.230
REMARK  6 active torsions:
REMARK  status: ('A' for Active; 'I' for Inactive)
REMARK    1  A    between atoms: C_2  and  C_3 
REMARK       I    between atoms: C_3  and  N_4 
REMARK    2  A    between atoms: N_4  and  C_5 
REMARK    3  A    between atoms: C_7  and  N_8 
REMARK       I    between atoms: N_8  and  C_9 
REMARK    4  A    between atoms: C_9  and  C_10 
REMARK    5  A    between atoms: C_13  and  C_14 
REMARK    6  A    between atoms: C_14  and  C_15 
ROOT
HETATM    1  N   UNL     1      25.685  44.505  51.377  1.00  0.00    -0.322 N 
HETATM    2  C   UNL     1      25.921  45.347  50.304  1.00  0.00     0.256 C 
HETATM    3  O   UNL     1      27.001  45.558  49.767  1.00  0.00    -0.267 OA
HETATM    4  H   UNL     1      24.753  44.502  51.758  1.00  0.00     0.169 HD
ENDROOT
BRANCH   1   5
HETATM    5  C   UNL     1      26.577  43.557  51.945  1.00  0.00     0.043 A 
HETATM    6  C   UNL     1      26.913  42.357  51.297  1.00  0.00     0.059 A 
HETATM    7  C   UNL     1      27.689  41.381  51.932  1.00  0.00     0.036 A 
HETATM    8  C   UNL     1      28.164  41.630  53.223  1.00  0.00     0.030 A 
HETATM    9  C   UNL     1      27.870  42.831  53.867  1.00  0.00     0.011 A 
HETATM   10  C   UNL     1      27.075  43.803  53.243  1.00  0.00    -0.035 A 
HETATM   11  C   UNL     1      26.781  45.071  53.998  1.00  0.00     0.050 C 
BRANCH   7  12
HETATM   12  N   UNL     1      27.984  40.113  51.384  1.00  0.00    -0.327 N 
HETATM   13  C   UNL     1      28.340  39.815  50.082  1.00  0.00     0.221 C 
HETATM   14  O   UNL     1      28.563  40.626  49.189  1.00  0.00    -0.273 OA
HETATM   15  H   UNL     1      27.947  39.343  52.035  1.00  0.00     0.169 HD
BRANCH  13  16
HETATM   16  C   UNL     1      28.365  38.326  49.760  1.00  0.00     0.098 C 
HETATM   17  C   UNL     1      29.175  37.927  48.540  1.00  0.00     0.014 C 
ENDBRANCH  13  16
ENDBRANCH   7  12
ENDBRANCH   1   5
BRANCH   2  18
HETATM   18  C   UNL     1      24.717  46.030  49.742  1.00  0.00     0.032 A 
HETATM   19  C   UNL     1      23.747  45.371  48.978  1.00  0.00     0.017 A 
HETATM   20  C   UNL     1      22.676  46.088  48.433  1.00  0.00     0.008 A 
HETATM   21  C   UNL     1      22.553  47.470  48.650  1.00  0.00    -0.051 A 
HETATM   22  C   UNL     1      23.505  48.116  49.451  1.00  0.00     0.008 A 
HETATM   23  C   UNL     1      24.576  47.403  49.992  1.00  0.00     0.017 A 
BRANCH  21  24
HETATM   24  C   UNL     1      21.408  48.249  48.044  1.00  0.00     0.120 C 
BRANCH  24  25
HETATM   25  C   UNL     1      20.340  48.300  49.076  1.00  0.00     0.151 A 
HETATM   26  N   UNL     1      19.516  47.272  49.333  1.00  0.00    -0.158 NA
HETATM   27  N   UNL     1      18.742  47.785  50.304  1.00  0.00    -0.270 N 
HETATM   28  H   UNL     1      18.019  47.211  50.719  1.00  0.00     0.190 HD
HETATM   29  C   UNL     1      19.079  49.072  50.574  1.00  0.00     0.227 A 
HETATM   30  N   UNL     1      20.075  49.436  49.805  1.00  0.00    -0.225 NA
ENDBRANCH  24  25
ENDBRANCH  21  24
ENDBRANCH   2  18
TORSDOF 6
ENDMDL
