MODEL 1
REMARK VINA RESULT:      -8.9      0.000      0.000
REMARK  3 active torsions:
REMARK  status: ('A' for Active; 'I' for Inactive)
REMARK    1  A    between atoms: C_3  and  N_4 
REMARK       I    between atoms: N_4  and  C_5 
REMARK    2  A    between atoms: C_5  and  C_6 
REMARK    3  A    between atoms: C_6  and  C_7 
ROOT
HETATM    1  C   UNL     1      26.925  45.049  52.584  1.00  0.00     0.286 C 
HETATM    2  N   UNL     1      27.299  45.493  54.000  1.00  0.00    -0.056 N 
HETATM    3  H   UNL     1      27.140  46.498  54.129  1.00  0.00     0.278 HD
HETATM    4  H   UNL     1      26.637  44.997  54.635  1.00  0.00     0.278 HD
HETATM    5  C   UNL     1      28.700  45.100  54.361  1.00  0.00     0.209 C 
HETATM    6  C   UNL     1      28.809  43.563  54.263  1.00  0.00     0.115 C 
HETATM    7  N   UNL     1      28.422  43.080  52.941  1.00  0.00    -0.353 N 
HETATM    8  C   UNL     1      27.329  43.586  52.270  1.00  0.00     0.249 C 
HETATM    9  O   UNL     1      26.783  42.924  51.394  1.00  0.00    -0.271 OA
HETATM   10  C   UNL     1      29.031  45.599  55.761  1.00  0.00     0.035 C 
HETATM   11  C   UNL     1      30.434  45.142  56.164  1.00  0.00     0.002 C 
HETATM   12  C   UNL     1      30.602  43.627  56.037  1.00  0.00     0.002 C 
HETATM   13  C   UNL     1      30.219  43.112  54.647  1.00  0.00     0.027 C 
HETATM   14  H   UNL     1      28.589  42.099  52.725  1.00  0.00     0.163 HD
ENDROOT
BRANCH   1  15
HETATM   15  C   UNL     1      25.432  45.286  52.325  1.00  0.00     0.146 C 
BRANCH  15  16
HETATM   16  C   UNL     1      25.220  46.675  51.769  1.00  0.00     0.224 C 
HETATM   17  N   UNL     1      25.136  46.719  50.396  1.00  0.00    -0.327 N 
HETATM   18  H   UNL     1      25.616  45.986  49.883  1.00  0.00     0.169 HD
HETATM   19  O   UNL     1      25.252  47.639  52.535  1.00  0.00    -0.273 OA
BRANCH  17  20
HETATM   20  C   UNL     1      24.879  47.899  49.661  1.00  0.00     0.040 A 
HETATM   21  C   UNL     1      25.888  48.725  49.131  1.00  0.00    -0.035 A 
HETATM   22  C   UNL     1      27.358  48.521  49.379  1.00  0.00     0.050 C 
HETATM   23  C   UNL     1      25.510  49.848  48.372  1.00  0.00     0.009 A 
HETATM   24  C   UNL     1      24.167  50.175  48.188  1.00  0.00     0.001 A 
HETATM   25  C   UNL     1      23.179  49.392  48.772  1.00  0.00     0.002 A 
HETATM   26  C   UNL     1      23.533  48.268  49.518  1.00  0.00     0.030 A 
ENDBRANCH  17  20
ENDBRANCH  15  16
ENDBRANCH   1  15
TORSDOF 3
ENDMDL
MODEL 2
REMARK VINA RESULT:      -8.5      2.610      7.498
REMARK  3 active torsions:
REMARK  status: ('A' for Active; 'I' for Inactive)
REMARK    1  A    between atoms: C_3  and  N_4 
REMARK       I    between atoms: N_4  and  C_5 
REMARK    2  A    between atoms: C_5  and  C_6 
REMARK    3  A    between atoms: C_6  and  C_7 
ROOT
HETATM    1  C   UNL     1      26.445  45.658  52.390  1.00  0.00     0.286 C 
HETATM    2  N   UNL     1      26.319  44.132  52.376  1.00  0.00    -0.056 N 
HETATM    3  H   UNL     1      27.113  43.689  52.849  1.00  0.00     0.278 HD
HETATM    4  H   UNL     1      25.469  43.915  52.940  1.00  0.00     0.278 HD
HETATM    5  C   UNL     1      26.128  43.597  50.989  1.00  0.00     0.209 C 
HETATM    6  C   UNL     1      24.841  44.220  50.405  1.00  0.00     0.115 C 
HETATM    7  N   UNL     1      24.892  45.678  50.433  1.00  0.00    -0.353 N 
HETATM    8  C   UNL     1      25.380  46.372  51.520  1.00  0.00     0.249 C 
HETATM    9  O   UNL     1      25.050  47.538  51.706  1.00  0.00    -0.271 OA
HETATM   10  C   UNL     1      26.046  42.076  51.029  1.00  0.00     0.035 C 
HETATM   11  C   UNL     1      25.782  41.526  49.628  1.00  0.00     0.002 C 
HETATM   12  C   UNL     1      24.541  42.153  48.990  1.00  0.00     0.002 C 
HETATM   13  C   UNL     1      24.592  43.683  48.995  1.00  0.00     0.027 C 
HETATM   14  H   UNL     1      24.157  46.190  49.946  1.00  0.00     0.163 HD
ENDROOT
BRANCH   1  15
HETATM   15  C   UNL     1      26.436  46.183  53.831  1.00  0.00     0.146 C 
BRANCH  15  16
HETATM   16  C   UNL     1      27.272  45.283  54.712  1.00  0.00     0.224 C 
HETATM   17  N   UNL     1      28.592  45.662  54.803  1.00  0.00    -0.327 N 
HETATM   18  H   UNL     1      28.976  46.178  54.018  1.00  0.00     0.169 HD
HETATM   19  O   UNL     1      26.767  44.259  55.172  1.00  0.00    -0.273 OA
BRANCH  17  20
HETATM   20  C   UNL     1      29.543  45.008  55.617  1.00  0.00     0.040 A 
HETATM   21  C   UNL     1      30.214  43.828  55.242  1.00  0.00    -0.035 A 
HETATM   22  C   UNL     1      29.917  43.056  53.986  1.00  0.00     0.050 C 
HETATM   23  C   UNL     1      31.179  43.294  56.116  1.00  0.00     0.009 A 
HETATM   24  C   UNL     1      31.436  43.884  57.353  1.00  0.00     0.001 A 
HETATM   25  C   UNL     1      30.721  45.009  57.744  1.00  0.00     0.002 A 
HETATM   26  C   UNL     1      29.768  45.560  56.887  1.00  0.00     0.030 A 
ENDBRANCH  17  20
ENDBRANCH  15  16
ENDBRANCH   1  15
TORSDOF 3
ENDMDL
MODEL 3
REMARK VINA RESULT:      -8.5      3.890      6.943
REMARK  3 active torsions:
REMARK  status: ('A' for Active; 'I' for Inactive)
REMARK    1  A    between atoms: C_3  and  N_4 
REMARK       I    between atoms: N_4  and  C_5 
REMARK    2  A    between atoms: C_5  and  C_6 
REMARK    3  A    between atoms: C_6  and  C_7 
ROOT
HETATM    1  C   UNL     1      25.869  43.795  51.944  1.00  0.00     0.286 C 
HETATM    2  N   UNL     1      26.825  42.641  52.258  1.00  0.00    -0.056 N 
HETATM    3  H   UNL     1      27.684  42.980  52.701  1.00  0.00     0.278 HD
HETATM    4  H   UNL     1      26.332  42.051  52.963  1.00  0.00     0.278 HD
HETATM    5  C   UNL     1      27.115  41.806  51.047  1.00  0.00     0.209 C 
HETATM    6  C   UNL     1      25.779  41.234  50.525  1.00  0.00     0.115 C 
HETATM    7  N   UNL     1      24.814  42.293  50.248  1.00  0.00    -0.353 N 
HETATM    8  C   UNL     1      24.644  43.367  51.096  1.00  0.00     0.249 C 
HETATM    9  O   UNL     1      23.596  44.003  51.084  1.00  0.00    -0.271 OA
HETATM   10  C   UNL     1      28.097  40.699  51.407  1.00  0.00     0.035 C 
HETATM   11  C   UNL     1      28.345  39.800  50.195  1.00  0.00     0.002 C 
HETATM   12  C   UNL     1      27.042  39.249  49.614  1.00  0.00     0.002 C 
HETATM   13  C   UNL     1      26.029  40.352  49.301  1.00  0.00     0.027 C 
HETATM   14  H   UNL     1      23.951  42.038  49.770  1.00  0.00     0.163 HD
ENDROOT
BRANCH   1  15
HETATM   15  C   UNL     1      25.439  44.501  53.235  1.00  0.00     0.146 C 
BRANCH  15  16
HETATM   16  C   UNL     1      26.455  44.246  54.325  1.00  0.00     0.224 C 
HETATM   17  N   UNL     1      27.596  45.006  54.212  1.00  0.00    -0.327 N 
HETATM   18  H   UNL     1      27.852  45.315  53.280  1.00  0.00     0.169 HD
HETATM   19  O   UNL     1      26.253  43.338  55.131  1.00  0.00    -0.273 OA
BRANCH  17  20
HETATM   20  C   UNL     1      28.653  44.982  55.150  1.00  0.00     0.040 A 
HETATM   21  C   UNL     1      29.751  44.106  55.066  1.00  0.00    -0.035 A 
HETATM   22  C   UNL     1      29.878  43.013  54.040  1.00  0.00     0.050 C 
HETATM   23  C   UNL     1      30.770  44.208  56.031  1.00  0.00     0.009 A 
HETATM   24  C   UNL     1      30.678  45.118  57.083  1.00  0.00     0.001 A 
HETATM   25  C   UNL     1      29.558  45.932  57.197  1.00  0.00     0.002 A 
HETATM   26  C   UNL     1      28.543  45.855  56.242  1.00  0.00     0.030 A 
ENDBRANCH  17  20
ENDBRANCH  15  16
ENDBRANCH   1  15
TORSDOF 3
ENDMDL
MODEL 4
REMARK VINA RESULT:      -8.5      1.334      7.471
REMARK  3 active torsions:
REMARK  status: ('A' for Active; 'I' for Inactive)
REMARK    1  A    between atoms: C_3  and  N_4 
REMARK       I    between atoms: N_4  and  C_5 
REMARK    2  A    between atoms: C_5  and  C_6 
REMARK    3  A    between atoms: C_6  and  C_7 
ROOT
HETATM    1  C   UNL     1      26.066  45.375  51.468  1.00  0.00     0.286 C 
HETATM    2  N   UNL     1      26.906  46.191  50.482  1.00  0.00    -0.056 N 
HETATM    3  H   UNL     1      27.873  46.288  50.808  1.00  0.00     0.278 HD
HETATM    4  H   UNL     1      26.936  45.627  49.604  1.00  0.00     0.278 HD
HETATM    5  C   UNL     1      26.283  47.521  50.179  1.00  0.00     0.209 C 
HETATM    6  C   UNL     1      24.885  47.272  49.574  1.00  0.00     0.115 C 
HETATM    7  N   UNL     1      24.054  46.461  50.459  1.00  0.00    -0.353 N 
HETATM    8  C   UNL     1      24.554  45.364  51.128  1.00  0.00     0.249 C 
HETATM    9  O   UNL     1      23.797  44.481  51.517  1.00  0.00    -0.271 OA
HETATM   10  C   UNL     1      27.176  48.304  49.226  1.00  0.00     0.035 C 
HETATM   11  C   UNL     1      26.516  49.632  48.857  1.00  0.00     0.002 C 
HETATM   12  C   UNL     1      25.106  49.436  48.298  1.00  0.00     0.002 C 
HETATM   13  C   UNL     1      24.219  48.604  49.227  1.00  0.00     0.027 C 
HETATM   14  H   UNL     1      23.069  46.353  50.222  1.00  0.00     0.163 HD
ENDROOT
BRANCH   1  15
HETATM   15  C   UNL     1      26.623  43.952  51.597  1.00  0.00     0.146 C 
BRANCH  15  16
HETATM   16  C   UNL     1      27.925  43.976  52.364  1.00  0.00     0.224 C 
HETATM   17  N   UNL     1      27.787  44.334  53.685  1.00  0.00    -0.327 N 
HETATM   18  H   UNL     1      26.997  44.926  53.920  1.00  0.00     0.169 HD
HETATM   19  O   UNL     1      28.981  43.796  51.757  1.00  0.00    -0.273 OA
BRANCH  17  20
HETATM   20  C   UNL     1      28.858  44.364  54.608  1.00  0.00     0.040 A 
HETATM   21  C   UNL     1      29.195  45.494  55.377  1.00  0.00    -0.035 A 
HETATM   22  C   UNL     1      28.537  46.839  55.228  1.00  0.00     0.050 C 
HETATM   23  C   UNL     1      30.250  45.390  56.301  1.00  0.00     0.009 A 
HETATM   24  C   UNL     1      30.988  44.213  56.422  1.00  0.00     0.001 A 
HETATM   25  C   UNL     1      30.693  43.125  55.611  1.00  0.00     0.002 A 
HETATM   26  C   UNL     1      29.641  43.205  54.697  1.00  0.00     0.030 A 
ENDBRANCH  17  20
ENDBRANCH  15  16
ENDBRANCH   1  15
TORSDOF 3
ENDMDL
MODEL 5
REMARK VINA RESULT:      -8.4      1.175      2.661
REMARK  3 active torsions:
REMARK  status: ('A' for Active; 'I' for Inactive)
REMARK    1  A    between atoms: C_3  and  N_4 
REMARK       I    between atoms: N_4  and  C_5 
REMARK    2  A    between atoms: C_5  and  C_6 
REMARK    3  A    between atoms: C_6  and  C_7 
ROOT
HETATM    1  C   UNL     1      25.962  44.737  53.563  1.00  0.00     0.286 C 
HETATM    2  N   UNL     1      27.212  43.900  53.282  1.00  0.00    -0.056 N 
HETATM    3  H   UNL     1      26.966  42.944  53.005  1.00  0.00     0.278 HD
HETATM    4  H   UNL     1      27.671  44.346  52.458  1.00  0.00     0.278 HD
HETATM    5  C   UNL     1      28.170  43.915  54.434  1.00  0.00     0.209 C 
HETATM    6  C   UNL     1      28.585  45.380  54.696  1.00  0.00     0.115 C 
HETATM    7  N   UNL     1      27.424  46.233  54.930  1.00  0.00    -0.353 N 
HETATM    8  C   UNL     1      26.275  46.125  54.175  1.00  0.00     0.249 C 
HETATM    9  O   UNL     1      25.500  47.072  54.095  1.00  0.00    -0.271 OA
HETATM   10  C   UNL     1      29.375  43.039  54.117  1.00  0.00     0.035 C 
HETATM   11  C   UNL     1      30.389  43.104  55.259  1.00  0.00     0.002 C 
HETATM   12  C   UNL     1      30.793  44.543  55.585  1.00  0.00     0.002 C 
HETATM   13  C   UNL     1      29.584  45.443  55.852  1.00  0.00     0.027 C 
HETATM   14  H   UNL     1      27.590  47.186  55.249  1.00  0.00     0.163 HD
ENDROOT
BRANCH   1  15
HETATM   15  C   UNL     1      25.105  44.862  52.297  1.00  0.00     0.146 C 
BRANCH  15  16
HETATM   16  C   UNL     1      25.810  45.733  51.283  1.00  0.00     0.224 C 
HETATM   17  N   UNL     1      25.115  46.873  50.949  1.00  0.00    -0.327 N 
HETATM   18  H   UNL     1      24.105  46.838  51.041  1.00  0.00     0.169 HD
HETATM   19  O   UNL     1      26.849  45.327  50.763  1.00  0.00    -0.273 OA
BRANCH  17  20
HETATM   20  C   UNL     1      25.607  47.864  50.069  1.00  0.00     0.040 A 
HETATM   21  C   UNL     1      24.787  48.625  49.214  1.00  0.00    -0.035 A 
HETATM   22  C   UNL     1      23.310  48.398  49.043  1.00  0.00     0.050 C 
HETATM   23  C   UNL     1      25.384  49.620  48.418  1.00  0.00     0.009 A 
HETATM   24  C   UNL     1      26.764  49.822  48.430  1.00  0.00     0.001 A 
HETATM   25  C   UNL     1      27.572  49.020  49.227  1.00  0.00     0.002 A 
HETATM   26  C   UNL     1      26.998  48.036  50.032  1.00  0.00     0.030 A 
ENDBRANCH  17  20
ENDBRANCH  15  16
ENDBRANCH   1  15
TORSDOF 3
ENDMDL
MODEL 6
REMARK VINA RESULT:      -8.2      4.403      7.508
REMARK  3 active torsions:
REMARK  status: ('A' for Active; 'I' for Inactive)
REMARK    1  A    between atoms: C_3  and  N_4 
REMARK       I    between atoms: N_4  and  C_5 
REMARK    2  A    between atoms: C_5  and  C_6 
REMARK    3  A    between atoms: C_6  and  C_7 
ROOT
HETATM    1  C   UNL     1      27.637  42.525  51.012  1.00  0.00     0.286 C 
HETATM    2  N   UNL     1      28.001  41.088  51.393  1.00  0.00    -0.056 N 
HETATM    3  H   UNL     1      28.576  41.062  52.242  1.00  0.00     0.278 HD
HETATM    4  H   UNL     1      27.098  40.619  51.624  1.00  0.00     0.278 HD
HETATM    5  C   UNL     1      28.650  40.353  50.259  1.00  0.00     0.209 C 
HETATM    6  C   UNL     1      27.663  40.331  49.072  1.00  0.00     0.115 C 
HETATM    7  N   UNL     1      27.249  41.678  48.693  1.00  0.00    -0.353 N 
HETATM    8  C   UNL     1      26.939  42.638  49.633  1.00  0.00     0.249 C 
HETATM    9  O   UNL     1      26.223  43.587  49.332  1.00  0.00    -0.271 OA
HETATM   10  C   UNL     1      29.026  38.945  50.704  1.00  0.00     0.035 C 
HETATM   11  C   UNL     1      29.625  38.166  49.533  1.00  0.00     0.002 C 
HETATM   12  C   UNL     1      28.700  38.158  48.315  1.00  0.00     0.002 C 
HETATM   13  C   UNL     1      28.275  39.568  47.896  1.00  0.00     0.027 C 
HETATM   14  H   UNL     1      26.710  41.788  47.836  1.00  0.00     0.163 HD
ENDROOT
BRANCH   1  15
HETATM   15  C   UNL     1      26.799  43.176  52.120  1.00  0.00     0.146 C 
BRANCH  15  16
HETATM   16  C   UNL     1      27.555  43.136  53.428  1.00  0.00     0.224 C 
HETATM   17  N   UNL     1      28.580  44.050  53.507  1.00  0.00    -0.327 N 
HETATM   18  H   UNL     1      29.006  44.340  52.633  1.00  0.00     0.169 HD
HETATM   19  O   UNL     1      27.290  42.255  54.246  1.00  0.00    -0.273 OA
BRANCH  17  20
HETATM   20  C   UNL     1      29.381  44.235  54.657  1.00  0.00     0.040 A 
HETATM   21  C   UNL     1      29.279  45.352  55.508  1.00  0.00    -0.035 A 
HETATM   22  C   UNL     1      28.393  46.538  55.237  1.00  0.00     0.050 C 
HETATM   23  C   UNL     1      30.095  45.404  56.653  1.00  0.00     0.009 A 
HETATM   24  C   UNL     1      31.026  44.401  56.920  1.00  0.00     0.001 A 
HETATM   25  C   UNL     1      31.168  43.336  56.039  1.00  0.00     0.002 A 
HETATM   26  C   UNL     1      30.359  43.261  54.905  1.00  0.00     0.030 A 
ENDBRANCH  17  20
ENDBRANCH  15  16
ENDBRANCH   1  15
TORSDOF 3
ENDMDL
MODEL 7
REMARK VINA RESULT:      -8.1      1.851      7.620
REMARK  3 active torsions:
REMARK  status: ('A' for Active; 'I' for Inactive)
REMARK    1  A    between atoms: C_3  and  N_4 
REMARK       I    between atoms: N_4  and  C_5 
REMARK    2  A    between atoms: C_5  and  C_6 
REMARK    3  A    between atoms: C_6  and  C_7 
ROOT
HETATM    1  C   UNL     1      24.483  44.533  50.962  1.00  0.00     0.286 C 
HETATM    2  N   UNL     1      25.288  45.677  50.340  1.00  0.00    -0.056 N 
HETATM    3  H   UNL     1      26.102  45.915  50.916  1.00  0.00     0.278 HD
HETATM    4  H   UNL     1      25.654  45.305  49.437  1.00  0.00     0.278 HD
HETATM    5  C   UNL     1      24.436  46.877  50.059  1.00  0.00     0.209 C 
HETATM    6  C   UNL     1      23.315  46.454  49.084  1.00  0.00     0.115 C 
HETATM    7  N   UNL     1      22.540  45.336  49.611  1.00  0.00    -0.353 N 
HETATM    8  C   UNL     1      23.137  44.265  50.241  1.00  0.00     0.249 C 
HETATM    9  O   UNL     1      22.559  43.186  50.304  1.00  0.00    -0.271 OA
HETATM   10  C   UNL     1      25.293  47.995  49.478  1.00  0.00     0.035 C 
HETATM   11  C   UNL     1      24.419  49.198  49.123  1.00  0.00     0.002 C 
HETATM   12  C   UNL     1      23.265  48.815  48.196  1.00  0.00     0.002 C 
HETATM   13  C   UNL     1      22.431  47.656  48.748  1.00  0.00     0.027 C 
HETATM   14  H   UNL     1      21.691  45.068  49.114  1.00  0.00     0.163 HD
ENDROOT
BRANCH   1  15
HETATM   15  C   UNL     1      25.336  43.262  51.049  1.00  0.00     0.146 C 
BRANCH  15  16
HETATM   16  C   UNL     1      26.672  43.581  51.678  1.00  0.00     0.224 C 
HETATM   17  N   UNL     1      26.709  43.380  53.039  1.00  0.00    -0.327 N 
HETATM   18  H   UNL     1      25.830  43.461  53.539  1.00  0.00     0.169 HD
HETATM   19  O   UNL     1      27.557  44.084  50.985  1.00  0.00    -0.273 OA
BRANCH  17  20
HETATM   20  C   UNL     1      27.869  43.552  53.829  1.00  0.00     0.040 A 
HETATM   21  C   UNL     1      28.859  42.564  53.989  1.00  0.00    -0.035 A 
HETATM   22  C   UNL     1      28.749  41.168  53.439  1.00  0.00     0.050 C 
HETATM   23  C   UNL     1      29.996  42.868  54.759  1.00  0.00     0.009 A 
HETATM   24  C   UNL     1      30.125  44.100  55.399  1.00  0.00     0.001 A 
HETATM   25  C   UNL     1      29.111  45.045  55.292  1.00  0.00     0.002 A 
HETATM   26  C   UNL     1      27.982  44.766  54.522  1.00  0.00     0.030 A 
ENDBRANCH  17  20
ENDBRANCH  15  16
ENDBRANCH   1  15
TORSDOF 3
ENDMDL
MODEL 8
REMARK VINA RESULT:      -8.0      1.871      2.313
REMARK  3 active torsions:
REMARK  status: ('A' for Active; 'I' for Inactive)
REMARK    1  A    between atoms: C_3  and  N_4 
REMARK       I    between atoms: N_4  and  C_5 
REMARK    2  A    between atoms: C_5  and  C_6 
REMARK    3  A    between atoms: C_6  and  C_7 
ROOT
HETATM    1  C   UNL     1      27.369  43.052  51.623  1.00  0.00     0.286 C 
HETATM    2  N   UNL     1      27.204  43.801  52.948  1.00  0.00    -0.056 N 
HETATM    3  H   UNL     1      26.631  44.643  52.831  1.00  0.00     0.278 HD
HETATM    4  H   UNL     1      26.673  43.156  53.572  1.00  0.00     0.278 HD
HETATM    5  C   UNL     1      28.525  44.111  53.585  1.00  0.00     0.209 C 
HETATM    6  C   UNL     1      29.261  42.778  53.842  1.00  0.00     0.115 C 
HETATM    7  N   UNL     1      29.408  42.002  52.615  1.00  0.00    -0.353 N 
HETATM    8  C   UNL     1      28.385  41.884  51.698  1.00  0.00     0.249 C 
HETATM    9  O   UNL     1      28.363  40.940  50.917  1.00  0.00    -0.271 OA
HETATM   10  C   UNL     1      28.305  44.888  54.877  1.00  0.00     0.035 C 
HETATM   11  C   UNL     1      29.643  45.149  55.570  1.00  0.00     0.002 C 
HETATM   12  C   UNL     1      30.429  43.858  55.801  1.00  0.00     0.002 C 
HETATM   13  C   UNL     1      30.608  43.045  54.516  1.00  0.00     0.027 C 
HETATM   14  H   UNL     1      30.000  41.173  52.643  1.00  0.00     0.163 HD
ENDROOT
BRANCH   1  15
HETATM   15  C   UNL     1      26.006  42.576  51.104  1.00  0.00     0.146 C 
BRANCH  15  16
HETATM   16  C   UNL     1      25.049  43.743  51.026  1.00  0.00     0.224 C 
HETATM   17  N   UNL     1      25.246  44.554  49.932  1.00  0.00    -0.327 N 
HETATM   18  H   UNL     1      26.184  44.582  49.545  1.00  0.00     0.169 HD
HETATM   19  O   UNL     1      24.273  43.945  51.961  1.00  0.00    -0.273 OA
BRANCH  17  20
HETATM   20  C   UNL     1      24.432  45.667  49.621  1.00  0.00     0.040 A 
HETATM   21  C   UNL     1      24.685  46.973  50.081  1.00  0.00    -0.035 A 
HETATM   22  C   UNL     1      25.780  47.325  51.052  1.00  0.00     0.050 C 
HETATM   23  C   UNL     1      23.833  48.011  49.664  1.00  0.00     0.009 A 
HETATM   24  C   UNL     1      22.727  47.755  48.855  1.00  0.00     0.001 A 
HETATM   25  C   UNL     1      22.445  46.453  48.462  1.00  0.00     0.002 A 
HETATM   26  C   UNL     1      23.286  45.411  48.855  1.00  0.00     0.030 A 
ENDBRANCH  17  20
ENDBRANCH  15  16
ENDBRANCH   1  15
TORSDOF 3
ENDMDL
MODEL 9
REMARK VINA RESULT:      -8.0      2.892      4.420
REMARK  3 active torsions:
REMARK  status: ('A' for Active; 'I' for Inactive)
REMARK    1  A    between atoms: C_3  and  N_4 
REMARK       I    between atoms: N_4  and  C_5 
REMARK    2  A    between atoms: C_5  and  C_6 
REMARK    3  A    between atoms: C_6  and  C_7 
ROOT
HETATM    1  C   UNL     1      26.407  46.101  54.144  1.00  0.00     0.286 C 
HETATM    2  N   UNL     1      27.540  45.220  53.612  1.00  0.00    -0.056 N 
HETATM    3  H   UNL     1      27.179  44.471  53.012  1.00  0.00     0.278 HD
HETATM    4  H   UNL     1      28.119  45.841  53.006  1.00  0.00     0.278 HD
HETATM    5  C   UNL     1      28.401  44.683  54.716  1.00  0.00     0.209 C 
HETATM    6  C   UNL     1      29.003  45.881  55.482  1.00  0.00     0.115 C 
HETATM    7  N   UNL     1      27.964  46.778  55.978  1.00  0.00    -0.353 N 
HETATM    8  C   UNL     1      26.872  47.124  55.211  1.00  0.00     0.249 C 
HETATM    9  O   UNL     1      26.250  48.153  55.453  1.00  0.00    -0.271 OA
HETATM   10  C   UNL     1      29.486  43.786  54.135  1.00  0.00     0.035 C 
HETATM   11  C   UNL     1      30.410  43.290  55.247  1.00  0.00     0.002 C 
HETATM   12  C   UNL     1      30.993  44.443  56.065  1.00  0.00     0.002 C 
HETATM   13  C   UNL     1      29.911  45.380  56.607  1.00  0.00     0.027 C 
HETATM   14  H   UNL     1      28.242  47.523  56.614  1.00  0.00     0.163 HD
ENDROOT
BRANCH   1  15
HETATM   15  C   UNL     1      25.676  46.791  52.986  1.00  0.00     0.146 C 
BRANCH  15  16
HETATM   16  C   UNL     1      25.598  45.860  51.798  1.00  0.00     0.224 C 
HETATM   17  N   UNL     1      24.763  44.782  51.988  1.00  0.00    -0.327 N 
HETATM   18  H   UNL     1      24.626  44.470  52.944  1.00  0.00     0.169 HD
HETATM   19  O   UNL     1      26.339  46.055  50.834  1.00  0.00    -0.273 OA
BRANCH  17  20
HETATM   20  C   UNL     1      24.488  43.816  50.994  1.00  0.00     0.040 A 
HETATM   21  C   UNL     1      25.301  42.694  50.749  1.00  0.00    -0.035 A 
HETATM   22  C   UNL     1      26.620  42.447  51.430  1.00  0.00     0.050 C 
HETATM   23  C   UNL     1      24.899  41.771  49.766  1.00  0.00     0.009 A 
HETATM   24  C   UNL     1      23.748  41.982  49.008  1.00  0.00     0.001 A 
HETATM   25  C   UNL     1      22.987  43.127  49.209  1.00  0.00     0.002 A 
HETATM   26  C   UNL     1      23.364  44.048  50.188  1.00  0.00     0.030 A 
ENDBRANCH  17  20
ENDBRANCH  15  16
ENDBRANCH   1  15
TORSDOF 3
ENDMDL
MODEL 10
REMARK VINA RESULT:      -7.9      3.344      5.263
REMARK  3 active torsions:
REMARK  status: ('A' for Active; 'I' for Inactive)
REMARK    1  A    between atoms: C_3  and  N_4 
REMARK       I    between atoms: N_4  and  C_5 
REMARK    2  A    between atoms: C_5  and  C_6 
REMARK    3  A    between atoms: C_6  and  C_7 
ROOT
HETATM    1  C   UNL     1      26.285  45.045  53.874  1.00  0.00     0.286 C 
HETATM    2  N   UNL     1      27.544  44.228  53.572  1.00  0.00    -0.056 N 
HETATM    3  H   UNL     1      27.306  43.295  53.219  1.00  0.00     0.278 HD
HETATM    4  H   UNL     1      28.027  44.731  52.797  1.00  0.00     0.278 HD
HETATM    5  C   UNL     1      28.466  44.158  54.752  1.00  0.00     0.209 C 
HETATM    6  C   UNL     1      28.873  45.599  55.131  1.00  0.00     0.115 C 
HETATM    7  N   UNL     1      27.705  46.435  55.390  1.00  0.00    -0.353 N 
HETATM    8  C   UNL     1      26.580  46.385  54.595  1.00  0.00     0.249 C 
HETATM    9  O   UNL     1      25.807  47.337  54.559  1.00  0.00    -0.271 OA
HETATM   10  C   UNL     1      29.680  43.304  54.409  1.00  0.00     0.035 C 
HETATM   11  C   UNL     1      30.659  43.285  55.583  1.00  0.00     0.002 C 
HETATM   12  C   UNL     1      31.053  44.696  56.024  1.00  0.00     0.002 C 
HETATM   13  C   UNL     1      29.836  45.577  56.318  1.00  0.00     0.027 C 
HETATM   14  H   UNL     1      27.861  47.363  55.782  1.00  0.00     0.163 HD
ENDROOT
BRANCH   1  15
HETATM   15  C   UNL     1      25.468  45.263  52.595  1.00  0.00     0.146 C 
BRANCH  15  16
HETATM   16  C   UNL     1      25.927  44.305  51.521  1.00  0.00     0.224 C 
HETATM   17  N   UNL     1      25.352  43.057  51.603  1.00  0.00    -0.327 N 
HETATM   18  H   UNL     1      25.047  42.752  52.522  1.00  0.00     0.169 HD
HETATM   19  O   UNL     1      26.827  44.650  50.754  1.00  0.00    -0.273 OA
BRANCH  17  20
HETATM   20  C   UNL     1      25.583  42.021  50.671  1.00  0.00     0.040 A 
HETATM   21  C   UNL     1      26.604  41.062  50.806  1.00  0.00    -0.035 A 
HETATM   22  C   UNL     1      27.645  41.090  51.892  1.00  0.00     0.050 C 
HETATM   23  C   UNL     1      26.707  40.045  49.839  1.00  0.00     0.009 A 
HETATM   24  C   UNL     1      25.853  40.010  48.737  1.00  0.00     0.001 A 
HETATM   25  C   UNL     1      24.892  41.000  48.575  1.00  0.00     0.002 A 
HETATM   26  C   UNL     1      24.767  42.009  49.530  1.00  0.00     0.030 A 
ENDBRANCH  17  20
ENDBRANCH  15  16
ENDBRANCH   1  15
TORSDOF 3
ENDMDL
