MODEL 1
REMARK VINA RESULT:      -8.7      0.000      0.000
REMARK  9 active torsions:
REMARK  status: ('A' for Active; 'I' for Inactive)
REMARK    1  A    between atoms: O_2  and  C_3 
REMARK    2  A    between atoms: C_4  and  O_5 
REMARK    3  A    between atoms: C_6  and  C_7 
REMARK    4  A    between atoms: N_8  and  N_9 
REMARK       I    between atoms: N_9  and  C_10 
REMARK    5  A    between atoms: C_10  and  C_11 
REMARK    6  A    between atoms: C_11  and  N_12 
REMARK       I    between atoms: N_12  and  C_13 
REMARK    7  A    between atoms: C_13  and  C_14 
REMARK    8  A    between atoms: C_15  and  C_16 
REMARK    9  A    between atoms: C_15  and  C_22 
ROOT
HETATM    1  N   UNL     1      24.167  42.691  50.045  1.00  0.00    -0.352 N 
HETATM    2  C   UNL     1      25.530  42.536  50.095  1.00  0.00     0.223 C 
HETATM    3  O   UNL     1      26.219  42.357  49.097  1.00  0.00    -0.273 OA
HETATM    4  H   UNL     1      23.660  42.981  50.870  1.00  0.00     0.162 HD
ENDROOT
BRANCH   1   5
HETATM    5  C   UNL     1      23.440  42.571  48.797  1.00  0.00     0.227 C 
BRANCH   5   6
HETATM    6  C   UNL     1      22.555  43.784  48.503  1.00  0.00     0.255 C 
HETATM    7  N   UNL     1      23.196  44.983  48.780  1.00  0.00    -0.246 N 
HETATM    8  H   UNL     1      24.084  44.969  49.291  1.00  0.00     0.192 HD
HETATM    9  O   UNL     1      21.414  43.655  48.064  1.00  0.00    -0.270 OA
BRANCH   7  10
HETATM   10  N   UNL     1      22.620  46.169  48.443  1.00  0.00    -0.184 NA
HETATM   11  C   UNL     1      23.079  47.197  49.087  1.00  0.00     0.153 C 
BRANCH  11  12
HETATM   12  C   UNL     1      22.588  48.564  48.811  1.00  0.00     0.019 A 
HETATM   13  C   UNL     1      21.269  48.911  49.106  1.00  0.00     0.110 A 
HETATM   14  C   UNL     1      20.796  50.211  48.870  1.00  0.00     0.102 A 
HETATM   15  C   UNL     1      21.661  51.165  48.330  1.00  0.00     0.040 A 
HETATM   16  C   UNL     1      22.983  50.820  48.031  1.00  0.00     0.004 A 
HETATM   17  C   UNL     1      23.447  49.525  48.271  1.00  0.00     0.016 A 
BRANCH  13  18
HETATM   18  O   UNL     1      20.409  47.986  49.643  1.00  0.00    -0.357 OA
HETATM   19  H   UNL     1      20.498  47.193  49.077  1.00  0.00     0.218 HD
ENDBRANCH  13  18
BRANCH  14  20
HETATM   20  O   UNL     1      19.483  50.417  49.214  1.00  0.00    -0.353 OA
HETATM   21  C   UNL     1      19.195  51.597  49.956  1.00  0.00     0.210 C 
ENDBRANCH  14  20
ENDBRANCH  11  12
ENDBRANCH   7  10
ENDBRANCH   5   6
ENDBRANCH   1   5
BRANCH   2  22
HETATM   22  C   UNL     1      26.098  42.634  51.460  1.00  0.00     0.097 A 
HETATM   23  C   UNL     1      26.739  43.924  51.992  1.00  0.00     0.027 A 
HETATM   24  C   UNL     1      25.405  43.413  52.537  1.00  0.00     0.035 A 
BRANCH  23  25
HETATM   25  C   UNL     1      28.010  43.732  52.832  1.00  0.00    -0.044 A 
HETATM   26  C   UNL     1      28.123  44.313  54.108  1.00  0.00     0.008 A 
HETATM   27  C   UNL     1      29.264  44.135  54.895  1.00  0.00     0.001 A 
HETATM   28  C   UNL     1      30.324  43.369  54.419  1.00  0.00     0.000 A 
HETATM   29  C   UNL     1      30.239  42.778  53.162  1.00  0.00     0.001 A 
HETATM   30  C   UNL     1      29.092  42.954  52.382  1.00  0.00     0.008 A 
ENDBRANCH  23  25
BRANCH  23  31
HETATM   31  C   UNL     1      26.686  45.248  51.221  1.00  0.00    -0.044 A 
HETATM   32  C   UNL     1      25.964  46.344  51.731  1.00  0.00     0.008 A 
HETATM   33  C   UNL     1      25.927  47.573  51.067  1.00  0.00     0.001 A 
HETATM   34  C   UNL     1      26.617  47.736  49.871  1.00  0.00     0.000 A 
HETATM   35  C   UNL     1      27.347  46.674  49.346  1.00  0.00     0.001 A 
HETATM   36  C   UNL     1      27.386  45.449  50.019  1.00  0.00     0.008 A 
ENDBRANCH  23  31
ENDBRANCH   2  22
TORSDOF 9
ENDMDL
MODEL 2
REMARK VINA RESULT:      -8.5      1.815      3.403
REMARK  9 active torsions:
REMARK  status: ('A' for Active; 'I' for Inactive)
REMARK    1  A    between atoms: O_2  and  C_3 
REMARK    2  A    between atoms: C_4  and  O_5 
REMARK    3  A    between atoms: C_6  and  C_7 
REMARK    4  A    between atoms: N_8  and  N_9 
REMARK       I    between atoms: N_9  and  C_10 
REMARK    5  A    between atoms: C_10  and  C_11 
REMARK    6  A    between atoms: C_11  and  N_12 
REMARK       I    between atoms: N_12  and  C_13 
REMARK    7  A    between atoms: C_13  and  C_14 
REMARK    8  A    between atoms: C_15  and  C_16 
REMARK    9  A    between atoms: C_15  and  C_22 
ROOT
HETATM    1  N   UNL     1      24.448  44.905  49.181  1.00  0.00    -0.352 N 
HETATM    2  C   UNL     1      24.638  44.531  50.488  1.00  0.00     0.223 C 
HETATM    3  O   UNL     1      23.763  44.006  51.166  1.00  0.00    -0.273 OA
HETATM    4  H   UNL     1      25.236  45.199  48.618  1.00  0.00     0.162 HD
ENDROOT
BRANCH   1   5
HETATM    5  C   UNL     1      23.155  44.774  48.539  1.00  0.00     0.227 C 
BRANCH   5   6
HETATM    6  C   UNL     1      22.553  46.119  48.130  1.00  0.00     0.255 C 
HETATM    7  N   UNL     1      22.311  46.941  49.221  1.00  0.00    -0.246 N 
HETATM    8  H   UNL     1      22.380  46.552  50.165  1.00  0.00     0.192 HD
HETATM    9  O   UNL     1      22.335  46.394  46.951  1.00  0.00    -0.270 OA
BRANCH   7  10
HETATM   10  N   UNL     1      21.915  48.231  49.040  1.00  0.00    -0.184 NA
HETATM   11  C   UNL     1      20.640  48.431  49.173  1.00  0.00     0.153 C 
BRANCH  11  12
HETATM   12  C   UNL     1      20.052  49.780  49.049  1.00  0.00     0.019 A 
HETATM   13  C   UNL     1      18.849  50.085  49.686  1.00  0.00     0.110 A 
HETATM   14  C   UNL     1      18.290  51.370  49.596  1.00  0.00     0.102 A 
HETATM   15  C   UNL     1      18.950  52.351  48.853  1.00  0.00     0.040 A 
HETATM   16  C   UNL     1      20.155  52.048  48.211  1.00  0.00     0.004 A 
HETATM   17  C   UNL     1      20.706  50.769  48.308  1.00  0.00     0.016 A 
BRANCH  13  18
HETATM   18  O   UNL     1      18.191  49.133  50.425  1.00  0.00    -0.357 OA
HETATM   19  H   UNL     1      17.732  48.572  49.769  1.00  0.00     0.218 HD
ENDBRANCH  13  18
BRANCH  14  20
HETATM   20  O   UNL     1      17.110  51.534  50.279  1.00  0.00    -0.353 OA
HETATM   21  C   UNL     1      16.301  52.640  49.898  1.00  0.00     0.210 C 
ENDBRANCH  14  20
ENDBRANCH  11  12
ENDBRANCH   7  10
ENDBRANCH   5   6
ENDBRANCH   1   5
BRANCH   2  22
HETATM   22  C   UNL     1      26.006  44.790  50.996  1.00  0.00     0.097 A 
HETATM   23  C   UNL     1      27.099  43.711  50.998  1.00  0.00     0.027 A 
HETATM   24  C   UNL     1      27.171  44.919  50.062  1.00  0.00     0.035 A 
BRANCH  23  25
HETATM   25  C   UNL     1      27.993  43.679  52.245  1.00  0.00    -0.044 A 
HETATM   26  C   UNL     1      29.222  42.993  52.232  1.00  0.00     0.008 A 
HETATM   27  C   UNL     1      30.058  42.968  53.351  1.00  0.00     0.001 A 
HETATM   28  C   UNL     1      29.681  43.630  54.515  1.00  0.00     0.000 A 
HETATM   29  C   UNL     1      28.473  44.321  54.556  1.00  0.00     0.001 A 
HETATM   30  C   UNL     1      27.644  44.349  53.431  1.00  0.00     0.008 A 
ENDBRANCH  23  25
BRANCH  23  31
HETATM   31  C   UNL     1      26.912  42.349  50.320  1.00  0.00    -0.044 A 
HETATM   32  C   UNL     1      26.439  41.243  51.053  1.00  0.00     0.008 A 
HETATM   33  C   UNL     1      26.227  39.999  50.453  1.00  0.00     0.001 A 
HETATM   34  C   UNL     1      26.481  39.832  49.096  1.00  0.00     0.000 A 
HETATM   35  C   UNL     1      26.940  40.908  48.343  1.00  0.00     0.001 A 
HETATM   36  C   UNL     1      27.144  42.151  48.947  1.00  0.00     0.008 A 
ENDBRANCH  23  31
ENDBRANCH   2  22
TORSDOF 9
ENDMDL
MODEL 3
REMARK VINA RESULT:      -8.4      3.646     10.641
REMARK  9 active torsions:
REMARK  status: ('A' for Active; 'I' for Inactive)
REMARK    1  A    between atoms: O_2  and  C_3 
REMARK    2  A    between atoms: C_4  and  O_5 
REMARK    3  A    between atoms: C_6  and  C_7 
REMARK    4  A    between atoms: N_8  and  N_9 
REMARK       I    between atoms: N_9  and  C_10 
REMARK    5  A    between atoms: C_10  and  C_11 
REMARK    6  A    between atoms: C_11  and  N_12 
REMARK       I    between atoms: N_12  and  C_13 
REMARK    7  A    between atoms: C_13  and  C_14 
REMARK    8  A    between atoms: C_15  and  C_16 
REMARK    9  A    between atoms: C_15  and  C_22 
ROOT
HETATM    1  N   UNL     1      16.890  48.084  46.761  1.00  0.00    -0.352 N 
HETATM    2  C   UNL     1      16.111  48.550  47.791  1.00  0.00     0.223 C 
HETATM    3  O   UNL     1      15.914  47.914  48.819  1.00  0.00    -0.273 OA
HETATM    4  H   UNL     1      17.144  48.700  45.999  1.00  0.00     0.162 HD
ENDROOT
BRANCH   1   5
HETATM    5  C   UNL     1      17.469  46.756  46.794  1.00  0.00     0.227 C 
BRANCH   5   6
HETATM    6  C   UNL     1      18.951  46.760  47.173  1.00  0.00     0.255 C 
HETATM    7  N   UNL     1      19.266  47.786  48.052  1.00  0.00    -0.246 N 
HETATM    8  H   UNL     1      18.575  48.521  48.232  1.00  0.00     0.192 HD
HETATM    9  O   UNL     1      19.731  45.921  46.728  1.00  0.00    -0.270 OA
BRANCH   7  10
HETATM   10  N   UNL     1      20.503  47.859  48.615  1.00  0.00    -0.184 NA
HETATM   11  C   UNL     1      21.422  48.351  47.843  1.00  0.00     0.153 C 
BRANCH  11  12
HETATM   12  C   UNL     1      22.810  48.536  48.314  1.00  0.00     0.019 A 
HETATM   13  C   UNL     1      23.428  47.550  49.085  1.00  0.00     0.110 A 
HETATM   14  C   UNL     1      24.754  47.702  49.520  1.00  0.00     0.102 A 
HETATM   15  C   UNL     1      25.458  48.858  49.178  1.00  0.00     0.040 A 
HETATM   16  C   UNL     1      24.841  49.849  48.408  1.00  0.00     0.004 A 
HETATM   17  C   UNL     1      23.523  49.690  47.976  1.00  0.00     0.016 A 
BRANCH  13  18
HETATM   18  O   UNL     1      22.752  46.405  49.424  1.00  0.00    -0.357 OA
HETATM   19  H   UNL     1      22.965  45.763  48.718  1.00  0.00     0.218 HD
ENDBRANCH  13  18
BRANCH  14  20
HETATM   20  O   UNL     1      25.240  46.653  50.262  1.00  0.00    -0.353 OA
HETATM   21  C   UNL     1      25.764  46.968  51.547  1.00  0.00     0.210 C 
ENDBRANCH  14  20
ENDBRANCH  11  12
ENDBRANCH   7  10
ENDBRANCH   5   6
ENDBRANCH   1   5
BRANCH   2  22
HETATM   22  C   UNL     1      15.556  49.905  47.561  1.00  0.00     0.097 A 
HETATM   23  C   UNL     1      16.276  51.177  48.031  1.00  0.00     0.027 A 
HETATM   24  C   UNL     1      16.157  50.830  46.546  1.00  0.00     0.035 A 
BRANCH  23  25
HETATM   25  C   UNL     1      15.371  52.270  48.616  1.00  0.00    -0.044 A 
HETATM   26  C   UNL     1      14.891  53.317  47.807  1.00  0.00     0.008 A 
HETATM   27  C   UNL     1      14.051  54.311  48.316  1.00  0.00     0.001 A 
HETATM   28  C   UNL     1      13.673  54.281  49.655  1.00  0.00     0.000 A 
HETATM   29  C   UNL     1      14.128  53.256  50.479  1.00  0.00     0.001 A 
HETATM   30  C   UNL     1      14.963  52.260  49.962  1.00  0.00     0.008 A 
ENDBRANCH  23  25
BRANCH  23  31
HETATM   31  C   UNL     1      17.694  51.154  48.613  1.00  0.00    -0.044 A 
HETATM   32  C   UNL     1      18.767  51.734  47.908  1.00  0.00     0.008 A 
HETATM   33  C   UNL     1      20.063  51.757  48.431  1.00  0.00     0.001 A 
HETATM   34  C   UNL     1      20.317  51.199  49.679  1.00  0.00     0.000 A 
HETATM   35  C   UNL     1      19.276  50.627  50.404  1.00  0.00     0.001 A 
HETATM   36  C   UNL     1      17.981  50.613  49.879  1.00  0.00     0.008 A 
ENDBRANCH  23  31
ENDBRANCH   2  22
TORSDOF 9
ENDMDL
MODEL 4
REMARK VINA RESULT:      -8.3      1.690      3.266
REMARK  9 active torsions:
REMARK  status: ('A' for Active; 'I' for Inactive)
REMARK    1  A    between atoms: O_2  and  C_3 
REMARK    2  A    between atoms: C_4  and  O_5 
REMARK    3  A    between atoms: C_6  and  C_7 
REMARK    4  A    between atoms: N_8  and  N_9 
REMARK       I    between atoms: N_9  and  C_10 
REMARK    5  A    between atoms: C_10  and  C_11 
REMARK    6  A    between atoms: C_11  and  N_12 
REMARK       I    between atoms: N_12  and  C_13 
REMARK    7  A    between atoms: C_13  and  C_14 
REMARK    8  A    between atoms: C_15  and  C_16 
REMARK    9  A    between atoms: C_15  and  C_22 
ROOT
HETATM    1  N   UNL     1      24.277  43.905  49.056  1.00  0.00    -0.352 N 
HETATM    2  C   UNL     1      24.479  43.635  50.387  1.00  0.00     0.223 C 
HETATM    3  O   UNL     1      23.656  43.050  51.082  1.00  0.00    -0.273 OA
HETATM    4  H   UNL     1      25.037  44.257  48.489  1.00  0.00     0.162 HD
ENDROOT
BRANCH   1   5
HETATM    5  C   UNL     1      23.025  43.579  48.402  1.00  0.00     0.227 C 
BRANCH   5   6
HETATM    6  C   UNL     1      21.974  44.681  48.543  1.00  0.00     0.255 C 
HETATM    7  N   UNL     1      22.489  45.939  48.264  1.00  0.00    -0.246 N 
HETATM    8  H   UNL     1      23.502  46.053  48.165  1.00  0.00     0.192 HD
HETATM    9  O   UNL     1      20.814  44.426  48.862  1.00  0.00    -0.270 OA
BRANCH   7  10
HETATM   10  N   UNL     1      21.668  47.022  48.193  1.00  0.00    -0.184 NA
HETATM   11  C   UNL     1      22.032  48.027  48.930  1.00  0.00     0.153 C 
BRANCH  11  12
HETATM   12  C   UNL     1      21.273  49.294  48.937  1.00  0.00     0.019 A 
HETATM   13  C   UNL     1      20.042  49.373  49.591  1.00  0.00     0.110 A 
HETATM   14  C   UNL     1      19.320  50.577  49.625  1.00  0.00     0.102 A 
HETATM   15  C   UNL     1      19.844  51.706  48.992  1.00  0.00     0.040 A 
HETATM   16  C   UNL     1      21.075  51.629  48.333  1.00  0.00     0.004 A 
HETATM   17  C   UNL     1      21.789  50.430  48.306  1.00  0.00     0.016 A 
BRANCH  13  18
HETATM   18  O   UNL     1      19.518  48.274  50.224  1.00  0.00    -0.357 OA
HETATM   19  H   UNL     1      19.989  47.508  49.840  1.00  0.00     0.218 HD
ENDBRANCH  13  18
BRANCH  14  20
HETATM   20  O   UNL     1      18.132  50.516  50.310  1.00  0.00    -0.353 OA
HETATM   21  C   UNL     1      17.126  51.447  49.928  1.00  0.00     0.210 C 
ENDBRANCH  14  20
ENDBRANCH  11  12
ENDBRANCH   7  10
ENDBRANCH   5   6
ENDBRANCH   1   5
BRANCH   2  22
HETATM   22  C   UNL     1      25.793  44.088  50.901  1.00  0.00     0.097 A 
HETATM   23  C   UNL     1      27.027  43.174  50.917  1.00  0.00     0.027 A 
HETATM   24  C   UNL     1      26.935  44.373  49.972  1.00  0.00     0.035 A 
BRANCH  23  25
HETATM   25  C   UNL     1      27.908  43.278  52.170  1.00  0.00    -0.044 A 
HETATM   26  C   UNL     1      29.219  42.765  52.172  1.00  0.00     0.008 A 
HETATM   27  C   UNL     1      30.043  42.866  53.296  1.00  0.00     0.001 A 
HETATM   28  C   UNL     1      29.571  43.485  54.450  1.00  0.00     0.000 A 
HETATM   29  C   UNL     1      28.281  44.006  54.476  1.00  0.00     0.001 A 
HETATM   30  C   UNL     1      27.463  43.908  53.346  1.00  0.00     0.008 A 
ENDBRANCH  23  25
BRANCH  23  31
HETATM   31  C   UNL     1      27.038  41.794  50.250  1.00  0.00    -0.044 A 
HETATM   32  C   UNL     1      27.632  41.615  48.985  1.00  0.00     0.008 A 
HETATM   33  C   UNL     1      27.686  40.362  48.370  1.00  0.00     0.001 A 
HETATM   34  C   UNL     1      27.148  39.251  49.010  1.00  0.00     0.000 A 
HETATM   35  C   UNL     1      26.563  39.394  50.264  1.00  0.00     0.001 A 
HETATM   36  C   UNL     1      26.517  40.649  50.878  1.00  0.00     0.008 A 
ENDBRANCH  23  31
ENDBRANCH   2  22
TORSDOF 9
ENDMDL
MODEL 5
REMARK VINA RESULT:      -8.3      3.101     10.414
REMARK  9 active torsions:
REMARK  status: ('A' for Active; 'I' for Inactive)
REMARK    1  A    between atoms: O_2  and  C_3 
REMARK    2  A    between atoms: C_4  and  O_5 
REMARK    3  A    between atoms: C_6  and  C_7 
REMARK    4  A    between atoms: N_8  and  N_9 
REMARK       I    between atoms: N_9  and  C_10 
REMARK    5  A    between atoms: C_10  and  C_11 
REMARK    6  A    between atoms: C_11  and  N_12 
REMARK       I    between atoms: N_12  and  C_13 
REMARK    7  A    between atoms: C_13  and  C_14 
REMARK    8  A    between atoms: C_15  and  C_16 
REMARK    9  A    between atoms: C_15  and  C_22 
ROOT
HETATM    1  N   UNL     1      21.685  48.210  49.337  1.00  0.00    -0.352 N 
HETATM    2  C   UNL     1      21.282  49.475  48.990  1.00  0.00     0.223 C 
HETATM    3  O   UNL     1      21.898  50.178  48.198  1.00  0.00    -0.273 OA
HETATM    4  H   UNL     1      21.072  47.614  49.878  1.00  0.00     0.162 HD
ENDROOT
BRANCH   1   5
HETATM    5  C   UNL     1      22.926  47.650  48.841  1.00  0.00     0.227 C 
BRANCH   5   6
HETATM    6  C   UNL     1      24.127  47.983  49.727  1.00  0.00     0.255 C 
HETATM    7  N   UNL     1      24.262  47.096  50.786  1.00  0.00    -0.246 N 
HETATM    8  H   UNL     1      23.502  46.439  50.987  1.00  0.00     0.192 HD
HETATM    9  O   UNL     1      24.865  48.935  49.480  1.00  0.00    -0.270 OA
BRANCH   7  10
HETATM   10  N   UNL     1      25.356  47.145  51.595  1.00  0.00    -0.184 NA
HETATM   11  C   UNL     1      25.364  46.267  52.550  1.00  0.00     0.153 C 
BRANCH  11  12
HETATM   12  C   UNL     1      26.498  46.160  53.491  1.00  0.00     0.019 A 
HETATM   13  C   UNL     1      27.108  44.925  53.720  1.00  0.00     0.110 A 
HETATM   14  C   UNL     1      28.201  44.813  54.594  1.00  0.00     0.102 A 
HETATM   15  C   UNL     1      28.677  45.953  55.242  1.00  0.00     0.040 A 
HETATM   16  C   UNL     1      28.067  47.192  55.017  1.00  0.00     0.004 A 
HETATM   17  C   UNL     1      26.982  47.297  54.144  1.00  0.00     0.016 A 
BRANCH  13  18
HETATM   18  O   UNL     1      26.655  43.796  53.084  1.00  0.00    -0.357 OA
HETATM   19  H   UNL     1      26.795  43.965  52.131  1.00  0.00     0.218 HD
ENDBRANCH  13  18
BRANCH  14  20
HETATM   20  O   UNL     1      28.709  43.543  54.718  1.00  0.00    -0.353 OA
HETATM   21  C   UNL     1      30.042  43.341  54.262  1.00  0.00     0.210 C 
ENDBRANCH  14  20
ENDBRANCH  11  12
ENDBRANCH   7  10
ENDBRANCH   5   6
ENDBRANCH   1   5
BRANCH   2  22
HETATM   22  C   UNL     1      20.019  49.904  49.636  1.00  0.00     0.097 A 
HETATM   23  C   UNL     1      18.644  49.647  49.001  1.00  0.00     0.027 A 
HETATM   24  C   UNL     1      19.091  48.910  50.265  1.00  0.00     0.035 A 
BRANCH  23  25
HETATM   25  C   UNL     1      17.634  50.796  49.126  1.00  0.00    -0.044 A 
HETATM   26  C   UNL     1      16.323  50.658  48.633  1.00  0.00     0.008 A 
HETATM   27  C   UNL     1      15.384  51.686  48.753  1.00  0.00     0.001 A 
HETATM   28  C   UNL     1      15.738  52.881  49.371  1.00  0.00     0.000 A 
HETATM   29  C   UNL     1      17.026  53.045  49.873  1.00  0.00     0.001 A 
HETATM   30  C   UNL     1      17.960  52.010  49.756  1.00  0.00     0.008 A 
ENDBRANCH  23  25
BRANCH  23  31
HETATM   31  C   UNL     1      18.465  48.781  47.749  1.00  0.00    -0.044 A 
HETATM   32  C   UNL     1      18.012  47.452  47.856  1.00  0.00     0.008 A 
HETATM   33  C   UNL     1      17.807  46.652  46.729  1.00  0.00     0.001 A 
HETATM   34  C   UNL     1      18.048  47.167  45.460  1.00  0.00     0.000 A 
HETATM   35  C   UNL     1      18.487  48.480  45.321  1.00  0.00     0.001 A 
HETATM   36  C   UNL     1      18.684  49.278  46.452  1.00  0.00     0.008 A 
ENDBRANCH  23  31
ENDBRANCH   2  22
TORSDOF 9
ENDMDL
MODEL 6
REMARK VINA RESULT:      -8.0      2.207      3.759
REMARK  9 active torsions:
REMARK  status: ('A' for Active; 'I' for Inactive)
REMARK    1  A    between atoms: O_2  and  C_3 
REMARK    2  A    between atoms: C_4  and  O_5 
REMARK    3  A    between atoms: C_6  and  C_7 
REMARK    4  A    between atoms: N_8  and  N_9 
REMARK       I    between atoms: N_9  and  C_10 
REMARK    5  A    between atoms: C_10  and  C_11 
REMARK    6  A    between atoms: C_11  and  N_12 
REMARK       I    between atoms: N_12  and  C_13 
REMARK    7  A    between atoms: C_13  and  C_14 
REMARK    8  A    between atoms: C_15  and  C_16 
REMARK    9  A    between atoms: C_15  and  C_22 
ROOT
HETATM    1  N   UNL     1      26.640  40.571  51.657  1.00  0.00    -0.352 N 
HETATM    2  C   UNL     1      27.910  41.066  51.824  1.00  0.00     0.223 C 
HETATM    3  O   UNL     1      28.733  41.112  50.918  1.00  0.00    -0.273 OA
HETATM    4  H   UNL     1      25.951  40.686  52.388  1.00  0.00     0.162 HD
ENDROOT
BRANCH   1   5
HETATM    5  C   UNL     1      26.217  39.991  50.398  1.00  0.00     0.227 C 
BRANCH   5   6
HETATM    6  C   UNL     1      25.671  41.028  49.416  1.00  0.00     0.255 C 
HETATM    7  N   UNL     1      24.762  41.891  50.013  1.00  0.00    -0.246 N 
HETATM    8  H   UNL     1      24.412  41.677  50.952  1.00  0.00     0.192 HD
HETATM    9  O   UNL     1      26.035  41.058  48.243  1.00  0.00    -0.270 OA
BRANCH   7  10
HETATM   10  N   UNL     1      24.284  42.970  49.335  1.00  0.00    -0.184 NA
HETATM   11  C   UNL     1      23.214  42.741  48.637  1.00  0.00     0.153 C 
BRANCH  11  12
HETATM   12  C   UNL     1      22.545  43.815  47.874  1.00  0.00     0.019 A 
HETATM   13  C   UNL     1      21.633  44.662  48.505  1.00  0.00     0.110 A 
HETATM   14  C   UNL     1      21.006  45.701  47.798  1.00  0.00     0.102 A 
HETATM   15  C   UNL     1      21.301  45.881  46.446  1.00  0.00     0.040 A 
HETATM   16  C   UNL     1      22.213  45.032  45.810  1.00  0.00     0.004 A 
HETATM   17  C   UNL     1      22.834  44.003  46.520  1.00  0.00     0.016 A 
BRANCH  13  18
HETATM   18  O   UNL     1      21.337  44.501  49.836  1.00  0.00    -0.357 OA
HETATM   19  H   UNL     1      22.034  43.909  50.183  1.00  0.00     0.218 HD
ENDBRANCH  13  18
BRANCH  14  20
HETATM   20  O   UNL     1      20.140  46.463  48.543  1.00  0.00    -0.353 OA
HETATM   21  C   UNL     1      20.431  47.853  48.635  1.00  0.00     0.210 C 
ENDBRANCH  14  20
ENDBRANCH  11  12
ENDBRANCH   7  10
ENDBRANCH   5   6
ENDBRANCH   1   5
BRANCH   2  22
HETATM   22  C   UNL     1      28.186  41.567  53.191  1.00  0.00     0.097 A 
HETATM   23  C   UNL     1      27.807  42.986  53.637  1.00  0.00     0.027 A 
HETATM   24  C   UNL     1      27.083  41.757  54.188  1.00  0.00     0.035 A 
BRANCH  23  25
HETATM   25  C   UNL     1      28.841  43.700  54.519  1.00  0.00    -0.044 A 
HETATM   26  C   UNL     1      28.609  45.006  54.988  1.00  0.00     0.008 A 
HETATM   27  C   UNL     1      29.529  45.666  55.806  1.00  0.00     0.001 A 
HETATM   28  C   UNL     1      30.711  45.030  56.175  1.00  0.00     0.000 A 
HETATM   29  C   UNL     1      30.966  43.736  55.731  1.00  0.00     0.001 A 
HETATM   30  C   UNL     1      30.038  43.078  54.917  1.00  0.00     0.008 A 
ENDBRANCH  23  25
BRANCH  23  31
HETATM   31  C   UNL     1      26.965  43.926  52.766  1.00  0.00    -0.044 A 
HETATM   32  C   UNL     1      27.497  44.473  51.582  1.00  0.00     0.008 A 
HETATM   33  C   UNL     1      26.740  45.303  50.751  1.00  0.00     0.001 A 
HETATM   34  C   UNL     1      25.425  45.607  51.086  1.00  0.00     0.000 A 
HETATM   35  C   UNL     1      24.868  45.074  52.245  1.00  0.00     0.001 A 
HETATM   36  C   UNL     1      25.628  44.238  53.068  1.00  0.00     0.008 A 
ENDBRANCH  23  31
ENDBRANCH   2  22
TORSDOF 9
ENDMDL
MODEL 7
REMARK VINA RESULT:      -7.9      2.825      4.019
REMARK  9 active torsions:
REMARK  status: ('A' for Active; 'I' for Inactive)
REMARK    1  A    between atoms: O_2  and  C_3 
REMARK    2  A    between atoms: C_4  and  O_5 
REMARK    3  A    between atoms: C_6  and  C_7 
REMARK    4  A    between atoms: N_8  and  N_9 
REMARK       I    between atoms: N_9  and  C_10 
REMARK    5  A    between atoms: C_10  and  C_11 
REMARK    6  A    between atoms: C_11  and  N_12 
REMARK       I    between atoms: N_12  and  C_13 
REMARK    7  A    between atoms: C_13  and  C_14 
REMARK    8  A    between atoms: C_15  and  C_16 
REMARK    9  A    between atoms: C_15  and  C_22 
ROOT
HETATM    1  N   UNL     1      24.507  46.690  50.491  1.00  0.00    -0.352 N 
HETATM    2  C   UNL     1      25.815  46.285  50.578  1.00  0.00     0.223 C 
HETATM    3  O   UNL     1      26.753  46.969  50.185  1.00  0.00    -0.273 OA
HETATM    4  H   UNL     1      23.781  46.162  50.957  1.00  0.00     0.162 HD
ENDROOT
BRANCH   1   5
HETATM    5  C   UNL     1      24.144  47.936  49.844  1.00  0.00     0.227 C 
BRANCH   5   6
HETATM    6  C   UNL     1      22.808  47.856  49.103  1.00  0.00     0.255 C 
HETATM    7  N   UNL     1      21.871  48.744  49.610  1.00  0.00    -0.246 N 
HETATM    8  H   UNL     1      22.065  49.226  50.493  1.00  0.00     0.192 HD
HETATM    9  O   UNL     1      22.640  47.081  48.163  1.00  0.00    -0.270 OA
BRANCH   7  10
HETATM   10  N   UNL     1      20.675  48.920  48.984  1.00  0.00    -0.184 NA
HETATM   11  C   UNL     1      19.647  48.482  49.644  1.00  0.00     0.153 C 
BRANCH  11  12
HETATM   12  C   UNL     1      18.273  48.632  49.123  1.00  0.00     0.019 A 
HETATM   13  C   UNL     1      17.773  49.898  48.812  1.00  0.00     0.110 A 
HETATM   14  C   UNL     1      16.477  50.053  48.294  1.00  0.00     0.102 A 
HETATM   15  C   UNL     1      15.681  48.924  48.094  1.00  0.00     0.040 A 
HETATM   16  C   UNL     1      16.178  47.654  48.408  1.00  0.00     0.004 A 
HETATM   17  C   UNL     1      17.469  47.507  48.919  1.00  0.00     0.016 A 
BRANCH  13  18
HETATM   18  O   UNL     1      18.546  51.017  48.997  1.00  0.00    -0.357 OA
HETATM   19  H   UNL     1      19.469  50.695  48.992  1.00  0.00     0.218 HD
ENDBRANCH  13  18
BRANCH  14  20
HETATM   20  O   UNL     1      16.118  51.350  48.024  1.00  0.00    -0.353 OA
HETATM   21  C   UNL     1      15.829  51.663  46.666  1.00  0.00     0.210 C 
ENDBRANCH  14  20
ENDBRANCH  11  12
ENDBRANCH   7  10
ENDBRANCH   5   6
ENDBRANCH   1   5
BRANCH   2  22
HETATM   22  C   UNL     1      25.995  44.961  51.219  1.00  0.00     0.097 A 
HETATM   23  C   UNL     1      26.518  44.809  52.655  1.00  0.00     0.027 A 
HETATM   24  C   UNL     1      25.067  44.486  52.295  1.00  0.00     0.035 A 
BRANCH  23  25
HETATM   25  C   UNL     1      27.505  43.655  52.878  1.00  0.00    -0.044 A 
HETATM   26  C   UNL     1      27.099  42.477  53.534  1.00  0.00     0.008 A 
HETATM   27  C   UNL     1      27.978  41.409  53.732  1.00  0.00     0.001 A 
HETATM   28  C   UNL     1      29.290  41.495  53.277  1.00  0.00     0.000 A 
HETATM   29  C   UNL     1      29.719  42.645  52.620  1.00  0.00     0.001 A 
HETATM   30  C   UNL     1      28.833  43.709  52.420  1.00  0.00     0.008 A 
ENDBRANCH  23  25
BRANCH  23  31
HETATM   31  C   UNL     1      26.727  46.008  53.587  1.00  0.00    -0.044 A 
HETATM   32  C   UNL     1      25.719  46.980  53.740  1.00  0.00     0.008 A 
HETATM   33  C   UNL     1      25.869  48.064  54.608  1.00  0.00     0.001 A 
HETATM   34  C   UNL     1      27.037  48.201  55.351  1.00  0.00     0.000 A 
HETATM   35  C   UNL     1      28.047  47.252  55.229  1.00  0.00     0.001 A 
HETATM   36  C   UNL     1      27.888  46.166  54.363  1.00  0.00     0.008 A 
ENDBRANCH  23  31
ENDBRANCH   2  22
TORSDOF 9
ENDMDL
MODEL 8
REMARK VINA RESULT:      -7.9      1.630      2.414
REMARK  9 active torsions:
REMARK  status: ('A' for Active; 'I' for Inactive)
REMARK    1  A    between atoms: O_2  and  C_3 
REMARK    2  A    between atoms: C_4  and  O_5 
REMARK    3  A    between atoms: C_6  and  C_7 
REMARK    4  A    between atoms: N_8  and  N_9 
REMARK       I    between atoms: N_9  and  C_10 
REMARK    5  A    between atoms: C_10  and  C_11 
REMARK    6  A    between atoms: C_11  and  N_12 
REMARK       I    between atoms: N_12  and  C_13 
REMARK    7  A    between atoms: C_13  and  C_14 
REMARK    8  A    between atoms: C_15  and  C_16 
REMARK    9  A    between atoms: C_15  and  C_22 
ROOT
HETATM    1  N   UNL     1      23.202  44.350  49.944  1.00  0.00    -0.352 N 
HETATM    2  C   UNL     1      24.432  43.741  49.984  1.00  0.00     0.223 C 
HETATM    3  O   UNL     1      24.955  43.228  49.002  1.00  0.00    -0.273 OA
HETATM    4  H   UNL     1      22.876  44.885  50.739  1.00  0.00     0.162 HD
ENDROOT
BRANCH   1   5
HETATM    5  C   UNL     1      22.400  44.352  48.737  1.00  0.00     0.227 C 
BRANCH   5   6
HETATM    6  C   UNL     1      21.192  45.285  48.825  1.00  0.00     0.255 C 
HETATM    7  N   UNL     1      21.559  46.623  48.830  1.00  0.00    -0.246 N 
HETATM    8  H   UNL     1      22.546  46.871  48.945  1.00  0.00     0.192 HD
HETATM    9  O   UNL     1      20.044  44.847  48.876  1.00  0.00    -0.270 OA
BRANCH   7  10
HETATM   10  N   UNL     1      20.614  47.600  48.755  1.00  0.00    -0.184 NA
HETATM   11  C   UNL     1      21.058  48.802  48.958  1.00  0.00     0.153 C 
BRANCH  11  12
HETATM   12  C   UNL     1      20.170  49.979  48.872  1.00  0.00     0.019 A 
HETATM   13  C   UNL     1      19.467  50.246  47.696  1.00  0.00     0.110 A 
HETATM   14  C   UNL     1      18.602  51.348  47.608  1.00  0.00     0.102 A 
HETATM   15  C   UNL     1      18.449  52.187  48.713  1.00  0.00     0.040 A 
HETATM   16  C   UNL     1      19.153  51.924  49.893  1.00  0.00     0.004 A 
HETATM   17  C   UNL     1      20.010  50.824  49.975  1.00  0.00     0.016 A 
BRANCH  13  18
HETATM   18  O   UNL     1      19.602  49.427  46.603  1.00  0.00    -0.357 OA
HETATM   19  H   UNL     1      18.971  48.694  46.752  1.00  0.00     0.218 HD
ENDBRANCH  13  18
BRANCH  14  20
HETATM   20  O   UNL     1      17.968  51.486  46.398  1.00  0.00    -0.353 OA
HETATM   21  C   UNL     1      16.547  51.400  46.408  1.00  0.00     0.210 C 
ENDBRANCH  14  20
ENDBRANCH  11  12
ENDBRANCH   7  10
ENDBRANCH   5   6
ENDBRANCH   1   5
BRANCH   2  22
HETATM   22  C   UNL     1      25.084  43.786  51.314  1.00  0.00     0.097 A 
HETATM   23  C   UNL     1      26.142  44.839  51.674  1.00  0.00     0.027 A 
HETATM   24  C   UNL     1      24.750  44.857  52.308  1.00  0.00     0.035 A 
BRANCH  23  25
HETATM   25  C   UNL     1      27.330  44.326  52.500  1.00  0.00    -0.044 A 
HETATM   26  C   UNL     1      28.218  43.373  51.967  1.00  0.00     0.008 A 
HETATM   27  C   UNL     1      29.315  42.907  52.696  1.00  0.00     0.001 A 
HETATM   28  C   UNL     1      29.550  43.385  53.981  1.00  0.00     0.000 A 
HETATM   29  C   UNL     1      28.691  44.332  54.533  1.00  0.00     0.001 A 
HETATM   30  C   UNL     1      27.598  44.800  53.796  1.00  0.00     0.008 A 
ENDBRANCH  23  25
BRANCH  23  31
HETATM   31  C   UNL     1      26.475  46.020  50.755  1.00  0.00    -0.044 A 
HETATM   32  C   UNL     1      25.743  47.221  50.838  1.00  0.00     0.008 A 
HETATM   33  C   UNL     1      26.047  48.324  50.037  1.00  0.00     0.001 A 
HETATM   34  C   UNL     1      27.098  48.253  49.129  1.00  0.00     0.000 A 
HETATM   35  C   UNL     1      27.846  47.083  49.030  1.00  0.00     0.001 A 
HETATM   36  C   UNL     1      27.541  45.985  49.840  1.00  0.00     0.008 A 
ENDBRANCH  23  31
ENDBRANCH   2  22
TORSDOF 9
ENDMDL
MODEL 9
REMARK VINA RESULT:      -7.9      3.469     10.248
REMARK  9 active torsions:
REMARK  status: ('A' for Active; 'I' for Inactive)
REMARK    1  A    between atoms: O_2  and  C_3 
REMARK    2  A    between atoms: C_4  and  O_5 
REMARK    3  A    between atoms: C_6  and  C_7 
REMARK    4  A    between atoms: N_8  and  N_9 
REMARK       I    between atoms: N_9  and  C_10 
REMARK    5  A    between atoms: C_10  and  C_11 
REMARK    6  A    between atoms: C_11  and  N_12 
REMARK       I    between atoms: N_12  and  C_13 
REMARK    7  A    between atoms: C_13  and  C_14 
REMARK    8  A    between atoms: C_15  and  C_16 
REMARK    9  A    between atoms: C_15  and  C_22 
ROOT
HETATM    1  N   UNL     1      21.323  48.476  49.005  1.00  0.00    -0.352 N 
HETATM    2  C   UNL     1      20.164  47.740  48.992  1.00  0.00     0.223 C 
HETATM    3  O   UNL     1      20.120  46.571  48.625  1.00  0.00    -0.273 OA
HETATM    4  H   UNL     1      21.341  49.384  49.450  1.00  0.00     0.162 HD
ENDROOT
BRANCH   1   5
HETATM    5  C   UNL     1      22.568  47.931  48.502  1.00  0.00     0.227 C 
BRANCH   5   6
HETATM    6  C   UNL     1      23.725  48.073  49.492  1.00  0.00     0.255 C 
HETATM    7  N   UNL     1      23.870  46.950  50.295  1.00  0.00    -0.246 N 
HETATM    8  H   UNL     1      23.138  46.234  50.291  1.00  0.00     0.192 HD
HETATM    9  O   UNL     1      24.422  49.084  49.526  1.00  0.00    -0.270 OA
BRANCH   7  10
HETATM   10  N   UNL     1      24.936  46.834  51.134  1.00  0.00    -0.184 NA
HETATM   11  C   UNL     1      25.093  45.654  51.651  1.00  0.00     0.153 C 
BRANCH  11  12
HETATM   12  C   UNL     1      26.225  45.349  52.551  1.00  0.00     0.019 A 
HETATM   13  C   UNL     1      26.429  46.106  53.705  1.00  0.00     0.110 A 
HETATM   14  C   UNL     1      27.486  45.813  54.581  1.00  0.00     0.102 A 
HETATM   15  C   UNL     1      28.344  44.752  54.286  1.00  0.00     0.040 A 
HETATM   16  C   UNL     1      28.144  43.993  53.128  1.00  0.00     0.004 A 
HETATM   17  C   UNL     1      27.088  44.288  52.263  1.00  0.00     0.016 A 
BRANCH  13  18
HETATM   18  O   UNL     1      25.590  47.149  54.013  1.00  0.00    -0.357 OA
HETATM   19  H   UNL     1      26.180  47.878  54.289  1.00  0.00     0.218 HD
ENDBRANCH  13  18
BRANCH  14  20
HETATM   20  O   UNL     1      27.565  46.630  55.682  1.00  0.00    -0.353 OA
HETATM   21  C   UNL     1      28.570  46.317  56.639  1.00  0.00     0.210 C 
ENDBRANCH  14  20
ENDBRANCH  11  12
ENDBRANCH   7  10
ENDBRANCH   5   6
ENDBRANCH   1   5
BRANCH   2  22
HETATM   22  C   UNL     1      18.978  48.475  49.490  1.00  0.00     0.097 A 
HETATM   23  C   UNL     1      17.909  49.044  48.545  1.00  0.00     0.027 A 
HETATM   24  C   UNL     1      17.612  47.857  49.463  1.00  0.00     0.035 A 
BRANCH  23  25
HETATM   25  C   UNL     1      17.367  50.430  48.921  1.00  0.00    -0.044 A 
HETATM   26  C   UNL     1      16.017  50.759  48.699  1.00  0.00     0.008 A 
HETATM   27  C   UNL     1      15.500  52.009  49.050  1.00  0.00     0.001 A 
HETATM   28  C   UNL     1      16.328  52.964  49.633  1.00  0.00     0.000 A 
HETATM   29  C   UNL     1      17.667  52.666  49.869  1.00  0.00     0.001 A 
HETATM   30  C   UNL     1      18.177  51.411  49.521  1.00  0.00     0.008 A 
ENDBRANCH  23  25
BRANCH  23  31
HETATM   31  C   UNL     1      17.897  48.748  47.041  1.00  0.00    -0.044 A 
HETATM   32  C   UNL     1      18.479  49.650  46.129  1.00  0.00     0.008 A 
HETATM   33  C   UNL     1      18.513  49.389  44.757  1.00  0.00     0.001 A 
HETATM   34  C   UNL     1      17.965  48.210  44.262  1.00  0.00     0.000 A 
HETATM   35  C   UNL     1      17.391  47.295  45.139  1.00  0.00     0.001 A 
HETATM   36  C   UNL     1      17.366  47.559  46.511  1.00  0.00     0.008 A 
ENDBRANCH  23  31
ENDBRANCH   2  22
TORSDOF 9
ENDMDL
MODEL 10
REMARK VINA RESULT:      -7.9     10.623     11.861
REMARK  9 active torsions:
REMARK  status: ('A' for Active; 'I' for Inactive)
REMARK    1  A    between atoms: O_2  and  C_3 
REMARK    2  A    between atoms: C_4  and  O_5 
REMARK    3  A    between atoms: C_6  and  C_7 
REMARK    4  A    between atoms: N_8  and  N_9 
REMARK       I    between atoms: N_9  and  C_10 
REMARK    5  A    between atoms: C_10  and  C_11 
REMARK    6  A    between atoms: C_11  and  N_12 
REMARK       I    between atoms: N_12  and  C_13 
REMARK    7  A    between atoms: C_13  and  C_14 
REMARK    8  A    between atoms: C_15  and  C_16 
REMARK    9  A    between atoms: C_15  and  C_22 
ROOT
HETATM    1  N   UNL     1      29.752  47.717  39.956  1.00  0.00    -0.352 N 
HETATM    2  C   UNL     1      30.830  48.560  39.851  1.00  0.00     0.223 C 
HETATM    3  O   UNL     1      31.200  49.042  38.787  1.00  0.00    -0.273 OA
HETATM    4  H   UNL     1      29.395  47.461  40.867  1.00  0.00     0.162 HD
ENDROOT
BRANCH   1   5
HETATM    5  C   UNL     1      29.023  47.275  38.783  1.00  0.00     0.227 C 
BRANCH   5   6
HETATM    6  C   UNL     1      27.513  47.197  39.013  1.00  0.00     0.255 C 
HETATM    7  N   UNL     1      26.836  48.256  38.425  1.00  0.00    -0.246 N 
HETATM    8  H   UNL     1      27.370  49.050  38.060  1.00  0.00     0.192 HD
HETATM    9  O   UNL     1      27.006  46.274  39.648  1.00  0.00    -0.270 OA
BRANCH   7  10
HETATM   10  N   UNL     1      25.475  48.277  38.398  1.00  0.00    -0.184 NA
HETATM   11  C   UNL     1      24.919  48.762  39.465  1.00  0.00     0.153 C 
BRANCH  11  12
HETATM   12  C   UNL     1      23.452  48.893  39.580  1.00  0.00     0.019 A 
HETATM   13  C   UNL     1      22.785  49.931  38.929  1.00  0.00     0.110 A 
HETATM   14  C   UNL     1      21.389  50.055  39.011  1.00  0.00     0.102 A 
HETATM   15  C   UNL     1      20.664  49.125  39.759  1.00  0.00     0.040 A 
HETATM   16  C   UNL     1      21.329  48.084  40.415  1.00  0.00     0.004 A 
HETATM   17  C   UNL     1      22.718  47.966  40.326  1.00  0.00     0.016 A 
BRANCH  13  18
HETATM   18  O   UNL     1      23.484  50.850  38.185  1.00  0.00    -0.357 OA
HETATM   19  H   UNL     1      24.383  50.861  38.570  1.00  0.00     0.218 HD
ENDBRANCH  13  18
BRANCH  14  20
HETATM   20  O   UNL     1      20.863  51.115  38.315  1.00  0.00    -0.353 OA
HETATM   21  C   UNL     1      19.477  51.048  38.000  1.00  0.00     0.210 C 
ENDBRANCH  14  20
ENDBRANCH  11  12
ENDBRANCH   7  10
ENDBRANCH   5   6
ENDBRANCH   1   5
BRANCH   2  22
HETATM   22  C   UNL     1      31.488  48.860  41.145  1.00  0.00     0.097 A 
HETATM   23  C   UNL     1      31.297  50.199  41.872  1.00  0.00     0.027 A 
HETATM   24  C   UNL     1      30.708  48.900  42.423  1.00  0.00     0.035 A 
BRANCH  23  25
HETATM   25  C   UNL     1      32.559  50.782  42.524  1.00  0.00    -0.044 A 
HETATM   26  C   UNL     1      33.809  50.688  41.885  1.00  0.00     0.008 A 
HETATM   27  C   UNL     1      34.965  51.228  42.454  1.00  0.00     0.001 A 
HETATM   28  C   UNL     1      34.897  51.875  43.684  1.00  0.00     0.000 A 
HETATM   29  C   UNL     1      33.673  51.987  44.339  1.00  0.00     0.001 A 
HETATM   30  C   UNL     1      32.518  51.451  43.760  1.00  0.00     0.008 A 
ENDBRANCH  23  25
BRANCH  23  31
HETATM   31  C   UNL     1      30.284  51.251  41.407  1.00  0.00    -0.044 A 
HETATM   32  C   UNL     1      30.701  52.360  40.645  1.00  0.00     0.008 A 
HETATM   33  C   UNL     1      29.793  53.315  40.179  1.00  0.00     0.001 A 
HETATM   34  C   UNL     1      28.439  53.181  40.464  1.00  0.00     0.000 A 
HETATM   35  C   UNL     1      27.995  52.092  41.207  1.00  0.00     0.001 A 
HETATM   36  C   UNL     1      28.906  51.136  41.664  1.00  0.00     0.008 A 
ENDBRANCH  23  31
ENDBRANCH   2  22
TORSDOF 9
ENDMDL
