MODEL 1
REMARK VINA RESULT:     -10.7      0.000      0.000
REMARK  5 active torsions:
REMARK  status: ('A' for Active; 'I' for Inactive)
REMARK    1  A    between atoms: O_2  and  C_3 
REMARK    2  A    between atoms: C_10  and  C_11 
REMARK    3  A    between atoms: C_11  and  C_12 
REMARK       I    between atoms: C_12  and  N_13 
REMARK    4  A    between atoms: N_13  and  C_14 
REMARK    5  A    between atoms: C_16  and  C_17 
ROOT
HETATM    1  C   UNL     1      25.678  47.086  50.310  1.00  0.00     0.035 A 
HETATM    2  C   UNL     1      24.385  47.124  49.767  1.00  0.00     0.046 A 
HETATM    3  C   UNL     1      23.983  48.169  48.913  1.00  0.00     0.036 A 
HETATM    4  C   UNL     1      24.899  49.179  48.594  1.00  0.00     0.048 A 
HETATM    5 CL   UNL     1      24.489  50.512  47.574  1.00  0.00    -0.083 Cl
HETATM    6  C   UNL     1      26.188  49.144  49.127  1.00  0.00     0.027 A 
HETATM    7  C   UNL     1      26.572  48.105  49.982  1.00  0.00     0.031 A 
ENDROOT
BRANCH   1   8
HETATM    8  N   UNL     1      26.013  45.980  51.121  1.00  0.00    -0.327 N 
HETATM    9  C   UNL     1      26.716  44.843  50.738  1.00  0.00     0.226 C 
HETATM   10  O   UNL     1      27.329  44.703  49.683  1.00  0.00    -0.273 OA
HETATM   11  H   UNL     1      25.693  46.008  52.082  1.00  0.00     0.169 HD
BRANCH   9  12
HETATM   12  C   UNL     1      26.601  43.706  51.734  1.00  0.00     0.144 C 
BRANCH  12  13
HETATM   13  C   UNL     1      27.848  43.277  52.447  1.00  0.00    -0.021 A 
HETATM   14  C   UNL     1      28.519  43.814  53.601  1.00  0.00     0.001 A 
HETATM   15  C   UNL     1      28.277  44.869  54.510  1.00  0.00     0.051 A 
HETATM   16  C   UNL     1      29.690  43.071  53.783  1.00  0.00     0.043 A 
HETATM   17  C   UNL     1      29.185  45.145  55.548  1.00  0.00     0.069 A 
HETATM   18  C   UNL     1      30.342  44.382  55.681  1.00  0.00     0.039 A 
HETATM   19  C   UNL     1      30.614  43.332  54.801  1.00  0.00     0.033 A 
HETATM   20  N   UNL     1      29.728  42.114  52.800  1.00  0.00    -0.365 N 
HETATM   21  H   UNL     1      30.475  41.444  52.682  1.00  0.00     0.165 HD
HETATM   22  C   UNL     1      28.629  42.223  52.000  1.00  0.00     0.097 A 
BRANCH  17  23
HETATM   23  O   UNL     1      28.820  46.186  56.360  1.00  0.00    -0.356 OA
HETATM   24  C   UNL     1      29.079  46.039  57.751  1.00  0.00     0.210 C 
ENDBRANCH  17  23
ENDBRANCH  12  13
ENDBRANCH   9  12
ENDBRANCH   1   8
BRANCH   3  25
HETATM   25  C   UNL     1      22.631  48.159  48.366  1.00  0.00     0.165 A 
HETATM   26  N   UNL     1      21.605  49.004  48.735  1.00  0.00    -0.316 N 
HETATM   27  C   UNL     1      20.524  48.649  47.965  1.00  0.00     0.130 A 
HETATM   28  C   UNL     1      21.676  50.012  49.773  1.00  0.00     0.132 C 
HETATM   29  C   UNL     1      19.175  49.279  47.999  1.00  0.00     0.081 C 
HETATM   30  N   UNL     1      20.872  47.647  47.185  1.00  0.00    -0.134 NA
HETATM   31  C   UNL     1      18.694  49.564  49.418  1.00  0.00     0.008 C 
HETATM   32  C   UNL     1      19.267  50.850  50.014  1.00  0.00     0.002 C 
HETATM   33  C   UNL     1      20.710  51.182  49.631  1.00  0.00     0.020 C 
HETATM   34  N   UNL     1      22.183  47.340  47.437  1.00  0.00    -0.129 NA
ENDBRANCH   3  25
TORSDOF 5
ENDMDL
MODEL 2
REMARK VINA RESULT:     -10.1      1.104      2.026
REMARK  5 active torsions:
REMARK  status: ('A' for Active; 'I' for Inactive)
REMARK    1  A    between atoms: O_2  and  C_3 
REMARK    2  A    between atoms: C_10  and  C_11 
REMARK    3  A    between atoms: C_11  and  C_12 
REMARK       I    between atoms: C_12  and  N_13 
REMARK    4  A    between atoms: N_13  and  C_14 
REMARK    5  A    between atoms: C_16  and  C_17 
ROOT
HETATM    1  C   UNL     1      25.855  47.080  50.422  1.00  0.00     0.035 A 
HETATM    2  C   UNL     1      24.491  47.311  50.186  1.00  0.00     0.046 A 
HETATM    3  C   UNL     1      24.063  48.374  49.369  1.00  0.00     0.036 A 
HETATM    4  C   UNL     1      25.020  49.206  48.775  1.00  0.00     0.048 A 
HETATM    5 CL   UNL     1      24.588  50.550  47.777  1.00  0.00    -0.083 Cl
HETATM    6  C   UNL     1      26.378  48.979  49.002  1.00  0.00     0.027 A 
HETATM    7  C   UNL     1      26.790  47.924  49.824  1.00  0.00     0.031 A 
ENDROOT
BRANCH   1   8
HETATM    8  N   UNL     1      26.200  45.965  51.217  1.00  0.00    -0.327 N 
HETATM    9  C   UNL     1      26.786  44.779  50.787  1.00  0.00     0.226 C 
HETATM   10  O   UNL     1      27.277  44.585  49.678  1.00  0.00    -0.273 OA
HETATM   11  H   UNL     1      25.982  46.027  52.205  1.00  0.00     0.169 HD
BRANCH   9  12
HETATM   12  C   UNL     1      26.701  43.666  51.812  1.00  0.00     0.144 C 
BRANCH  12  13
HETATM   13  C   UNL     1      27.959  43.287  52.533  1.00  0.00    -0.021 A 
HETATM   14  C   UNL     1      28.611  43.861  53.680  1.00  0.00     0.001 A 
HETATM   15  C   UNL     1      28.334  44.921  54.573  1.00  0.00     0.051 A 
HETATM   16  C   UNL     1      29.805  43.158  53.874  1.00  0.00     0.043 A 
HETATM   17  C   UNL     1      29.232  45.241  55.608  1.00  0.00     0.069 A 
HETATM   18  C   UNL     1      30.411  44.516  55.754  1.00  0.00     0.039 A 
HETATM   19  C   UNL     1      30.718  43.462  54.890  1.00  0.00     0.033 A 
HETATM   20  N   UNL     1      29.874  42.189  52.906  1.00  0.00    -0.365 N 
HETATM   21  H   UNL     1      30.642  41.541  52.799  1.00  0.00     0.165 HD
HETATM   22  C   UNL     1      28.774  42.251  52.102  1.00  0.00     0.097 A 
BRANCH  17  23
HETATM   23  O   UNL     1      28.833  46.282  56.404  1.00  0.00    -0.356 OA
HETATM   24  C   UNL     1      28.866  46.067  57.810  1.00  0.00     0.210 C 
ENDBRANCH  17  23
ENDBRANCH  12  13
ENDBRANCH   9  12
ENDBRANCH   1   8
BRANCH   3  25
HETATM   25  C   UNL     1      22.634  48.568  49.146  1.00  0.00     0.165 A 
HETATM   26  N   UNL     1      21.820  47.760  48.380  1.00  0.00    -0.316 N 
HETATM   27  C   UNL     1      20.562  48.306  48.456  1.00  0.00     0.130 A 
HETATM   28  C   UNL     1      22.254  46.608  47.618  1.00  0.00     0.132 C 
HETATM   29  C   UNL     1      19.335  47.785  47.793  1.00  0.00     0.081 C 
HETATM   30  N   UNL     1      20.614  49.383  49.212  1.00  0.00    -0.134 NA
HETATM   31  C   UNL     1      19.588  47.332  46.359  1.00  0.00     0.008 C 
HETATM   32  C   UNL     1      20.193  45.931  46.255  1.00  0.00     0.002 C 
HETATM   33  C   UNL     1      21.191  45.549  47.348  1.00  0.00     0.020 C 
HETATM   34  N   UNL     1      21.905  49.548  49.639  1.00  0.00    -0.129 NA
ENDBRANCH   3  25
TORSDOF 5
ENDMDL
MODEL 3
REMARK VINA RESULT:     -10.0      1.925      2.438
REMARK  5 active torsions:
REMARK  status: ('A' for Active; 'I' for Inactive)
REMARK    1  A    between atoms: O_2  and  C_3 
REMARK    2  A    between atoms: C_10  and  C_11 
REMARK    3  A    between atoms: C_11  and  C_12 
REMARK       I    between atoms: C_12  and  N_13 
REMARK    4  A    between atoms: N_13  and  C_14 
REMARK    5  A    between atoms: C_16  and  C_17 
ROOT
HETATM    1  C   UNL     1      24.150  46.152  49.627  1.00  0.00     0.035 A 
HETATM    2  C   UNL     1      23.665  47.455  49.445  1.00  0.00     0.046 A 
HETATM    3  C   UNL     1      22.641  47.729  48.517  1.00  0.00     0.036 A 
HETATM    4  C   UNL     1      22.094  46.675  47.775  1.00  0.00     0.048 A 
HETATM    5 CL   UNL     1      20.852  46.919  46.597  1.00  0.00    -0.083 Cl
HETATM    6  C   UNL     1      22.569  45.376  47.955  1.00  0.00     0.027 A 
HETATM    7  C   UNL     1      23.593  45.118  48.874  1.00  0.00     0.031 A 
ENDROOT
BRANCH   1   8
HETATM    8  N   UNL     1      25.146  45.958  50.609  1.00  0.00    -0.327 N 
HETATM    9  C   UNL     1      25.021  45.250  51.800  1.00  0.00     0.226 C 
HETATM   10  O   UNL     1      24.084  44.513  52.099  1.00  0.00    -0.273 OA
HETATM   11  H   UNL     1      26.043  46.395  50.438  1.00  0.00     0.169 HD
BRANCH   9  12
HETATM   12  C   UNL     1      26.144  45.526  52.779  1.00  0.00     0.144 C 
BRANCH  12  13
HETATM   13  C   UNL     1      27.270  44.539  52.842  1.00  0.00    -0.021 A 
HETATM   14  C   UNL     1      28.337  44.369  53.793  1.00  0.00     0.001 A 
HETATM   15  C   UNL     1      28.717  44.989  55.005  1.00  0.00     0.051 A 
HETATM   16  C   UNL     1      29.158  43.342  53.315  1.00  0.00     0.043 A 
HETATM   17  C   UNL     1      29.875  44.576  55.689  1.00  0.00     0.069 A 
HETATM   18  C   UNL     1      30.664  43.555  55.169  1.00  0.00     0.039 A 
HETATM   19  C   UNL     1      30.319  42.920  53.973  1.00  0.00     0.033 A 
HETATM   20  N   UNL     1      28.613  42.891  52.140  1.00  0.00    -0.365 N 
HETATM   21  H   UNL     1      29.011  42.158  51.569  1.00  0.00     0.165 HD
HETATM   22  C   UNL     1      27.481  43.593  51.849  1.00  0.00     0.097 A 
BRANCH  17  23
HETATM   23  O   UNL     1      30.118  45.255  56.855  1.00  0.00    -0.356 OA
HETATM   24  C   UNL     1      29.074  46.087  57.345  1.00  0.00     0.210 C 
ENDBRANCH  17  23
ENDBRANCH  12  13
ENDBRANCH   9  12
ENDBRANCH   1   8
BRANCH   3  25
HETATM   25  C   UNL     1      22.163  49.099  48.370  1.00  0.00     0.165 A 
HETATM   26  N   UNL     1      20.990  49.606  48.890  1.00  0.00    -0.316 N 
HETATM   27  C   UNL     1      20.948  50.927  48.517  1.00  0.00     0.130 A 
HETATM   28  C   UNL     1      20.000  48.847  49.625  1.00  0.00     0.132 C 
HETATM   29  C   UNL     1      19.868  51.899  48.845  1.00  0.00     0.081 C 
HETATM   30  N   UNL     1      22.023  51.201  47.809  1.00  0.00    -0.134 NA
HETATM   31  C   UNL     1      18.474  51.303  48.696  1.00  0.00     0.008 C 
HETATM   32  C   UNL     1      18.031  50.465  49.897  1.00  0.00     0.002 C 
HETATM   33  C   UNL     1      19.126  49.648  50.585  1.00  0.00     0.020 C 
HETATM   34  N   UNL     1      22.779  50.063  47.715  1.00  0.00    -0.129 NA
ENDBRANCH   3  25
TORSDOF 5
ENDMDL
MODEL 4
REMARK VINA RESULT:      -9.8      4.988      8.125
REMARK  5 active torsions:
REMARK  status: ('A' for Active; 'I' for Inactive)
REMARK    1  A    between atoms: O_2  and  C_3 
REMARK    2  A    between atoms: C_10  and  C_11 
REMARK    3  A    between atoms: C_11  and  C_12 
REMARK       I    between atoms: C_12  and  N_13 
REMARK    4  A    between atoms: N_13  and  C_14 
REMARK    5  A    between atoms: C_16  and  C_17 
ROOT
HETATM    1  C   UNL     1      24.470  43.349  51.004  1.00  0.00     0.035 A 
HETATM    2  C   UNL     1      25.615  42.737  50.473  1.00  0.00     0.046 A 
HETATM    3  C   UNL     1      25.534  41.882  49.357  1.00  0.00     0.036 A 
HETATM    4  C   UNL     1      24.287  41.652  48.764  1.00  0.00     0.048 A 
HETATM    5 CL   UNL     1      24.087  40.601  47.406  1.00  0.00    -0.083 Cl
HETATM    6  C   UNL     1      23.145  42.262  49.284  1.00  0.00     0.027 A 
HETATM    7  C   UNL     1      23.237  43.102  50.399  1.00  0.00     0.031 A 
ENDROOT
BRANCH   1   8
HETATM    8  N   UNL     1      24.645  44.227  52.096  1.00  0.00    -0.327 N 
HETATM    9  C   UNL     1      25.408  45.389  52.122  1.00  0.00     0.226 C 
HETATM   10  O   UNL     1      25.897  45.946  51.143  1.00  0.00    -0.273 OA
HETATM   11  H   UNL     1      24.179  43.975  52.960  1.00  0.00     0.169 HD
BRANCH   9  12
HETATM   12  C   UNL     1      25.668  45.900  53.525  1.00  0.00     0.144 C 
BRANCH  12  13
HETATM   13  C   UNL     1      27.040  45.702  54.095  1.00  0.00    -0.021 A 
HETATM   14  C   UNL     1      27.875  44.533  54.188  1.00  0.00     0.001 A 
HETATM   15  C   UNL     1      27.776  43.187  53.768  1.00  0.00     0.051 A 
HETATM   16  C   UNL     1      29.025  44.900  54.893  1.00  0.00     0.043 A 
HETATM   17  C   UNL     1      28.802  42.269  54.057  1.00  0.00     0.069 A 
HETATM   18  C   UNL     1      29.924  42.681  54.770  1.00  0.00     0.039 A 
HETATM   19  C   UNL     1      30.055  44.003  55.200  1.00  0.00     0.033 A 
HETATM   20  N   UNL     1      28.912  46.231  55.203  1.00  0.00    -0.365 N 
HETATM   21  H   UNL     1      29.597  46.758  55.727  1.00  0.00     0.165 HD
HETATM   22  C   UNL     1      27.734  46.724  54.726  1.00  0.00     0.097 A 
BRANCH  17  23
HETATM   23  O   UNL     1      28.581  41.002  53.582  1.00  0.00    -0.356 OA
HETATM   24  C   UNL     1      28.770  40.795  52.188  1.00  0.00     0.210 C 
ENDBRANCH  17  23
ENDBRANCH  12  13
ENDBRANCH   9  12
ENDBRANCH   1   8
BRANCH   3  25
HETATM   25  C   UNL     1      26.755  41.277  48.836  1.00  0.00     0.165 A 
HETATM   26  N   UNL     1      27.175  39.983  49.063  1.00  0.00    -0.316 N 
HETATM   27  C   UNL     1      28.357  39.841  48.379  1.00  0.00     0.130 A 
HETATM   28  C   UNL     1      26.503  39.016  49.907  1.00  0.00     0.132 C 
HETATM   29  C   UNL     1      29.197  38.612  48.319  1.00  0.00     0.081 C 
HETATM   30  N   UNL     1      28.641  40.980  47.784  1.00  0.00    -0.134 NA
HETATM   31  C   UNL     1      29.325  37.919  49.671  1.00  0.00     0.008 C 
HETATM   32  C   UNL     1      28.127  37.037  50.026  1.00  0.00     0.002 C 
HETATM   33  C   UNL     1      26.759  37.550  49.574  1.00  0.00     0.020 C 
HETATM   34  N   UNL     1      27.644  41.875  48.070  1.00  0.00    -0.129 NA
ENDBRANCH   3  25
TORSDOF 5
ENDMDL
MODEL 5
REMARK VINA RESULT:      -9.8      2.217      3.007
REMARK  5 active torsions:
REMARK  status: ('A' for Active; 'I' for Inactive)
REMARK    1  A    between atoms: O_2  and  C_3 
REMARK    2  A    between atoms: C_10  and  C_11 
REMARK    3  A    between atoms: C_11  and  C_12 
REMARK       I    between atoms: C_12  and  N_13 
REMARK    4  A    between atoms: N_13  and  C_14 
REMARK    5  A    between atoms: C_16  and  C_17 
ROOT
HETATM    1  C   UNL     1      24.007  45.367  49.806  1.00  0.00     0.035 A 
HETATM    2  C   UNL     1      23.713  46.717  49.561  1.00  0.00     0.046 A 
HETATM    3  C   UNL     1      22.865  47.098  48.504  1.00  0.00     0.036 A 
HETATM    4  C   UNL     1      22.298  46.107  47.693  1.00  0.00     0.048 A 
HETATM    5 CL   UNL     1      21.265  46.482  46.359  1.00  0.00    -0.083 Cl
HETATM    6  C   UNL     1      22.582  44.763  47.935  1.00  0.00     0.027 A 
HETATM    7  C   UNL     1      23.434  44.397  48.983  1.00  0.00     0.031 A 
ENDROOT
BRANCH   1   8
HETATM    8  N   UNL     1      24.830  45.068  50.914  1.00  0.00    -0.327 N 
HETATM    9  C   UNL     1      26.220  45.014  50.933  1.00  0.00     0.226 C 
HETATM   10  O   UNL     1      26.964  45.408  50.039  1.00  0.00    -0.273 OA
HETATM   11  H   UNL     1      24.359  44.853  51.784  1.00  0.00     0.169 HD
BRANCH   9  12
HETATM   12  C   UNL     1      26.772  44.331  52.168  1.00  0.00     0.144 C 
BRANCH  12  13
HETATM   13  C   UNL     1      27.149  45.196  53.332  1.00  0.00    -0.021 A 
HETATM   14  C   UNL     1      28.175  45.056  54.332  1.00  0.00     0.001 A 
HETATM   15  C   UNL     1      29.214  44.134  54.590  1.00  0.00     0.051 A 
HETATM   16  C   UNL     1      28.021  46.114  55.235  1.00  0.00     0.043 A 
HETATM   17  C   UNL     1      30.048  44.288  55.711  1.00  0.00     0.069 A 
HETATM   18  C   UNL     1      29.849  45.353  56.585  1.00  0.00     0.039 A 
HETATM   19  C   UNL     1      28.832  46.284  56.362  1.00  0.00     0.033 A 
HETATM   20  N   UNL     1      26.965  46.875  54.802  1.00  0.00    -0.365 N 
HETATM   21  H   UNL     1      26.620  47.698  55.276  1.00  0.00     0.165 HD
HETATM   22  C   UNL     1      26.439  46.341  53.662  1.00  0.00     0.097 A 
BRANCH  17  23
HETATM   23  O   UNL     1      31.020  43.329  55.833  1.00  0.00    -0.356 OA
HETATM   24  C   UNL     1      31.853  43.399  56.984  1.00  0.00     0.210 C 
ENDBRANCH  17  23
ENDBRANCH  12  13
ENDBRANCH   9  12
ENDBRANCH   1   8
BRANCH   3  25
HETATM   25  C   UNL     1      22.583  48.514  48.295  1.00  0.00     0.165 A 
HETATM   26  N   UNL     1      21.444  49.178  48.700  1.00  0.00    -0.316 N 
HETATM   27  C   UNL     1      21.605  50.485  48.307  1.00  0.00     0.130 A 
HETATM   28  C   UNL     1      20.303  48.572  49.354  1.00  0.00     0.132 C 
HETATM   29  C   UNL     1      20.635  51.594  48.522  1.00  0.00     0.081 C 
HETATM   30  N   UNL     1      22.764  50.602  47.694  1.00  0.00    -0.134 NA
HETATM   31  C   UNL     1      19.194  51.176  48.257  1.00  0.00     0.008 C 
HETATM   32  C   UNL     1      18.544  50.433  49.425  1.00  0.00     0.002 C 
HETATM   33  C   UNL     1      19.460  49.501  50.219  1.00  0.00     0.020 C 
HETATM   34  N   UNL     1      23.372  49.374  47.685  1.00  0.00    -0.129 NA
ENDBRANCH   3  25
TORSDOF 5
ENDMDL
MODEL 6
REMARK VINA RESULT:      -9.6      3.303      9.873
REMARK  5 active torsions:
REMARK  status: ('A' for Active; 'I' for Inactive)
REMARK    1  A    between atoms: O_2  and  C_3 
REMARK    2  A    between atoms: C_10  and  C_11 
REMARK    3  A    between atoms: C_11  and  C_12 
REMARK       I    between atoms: C_12  and  N_13 
REMARK    4  A    between atoms: N_13  and  C_14 
REMARK    5  A    between atoms: C_16  and  C_17 
ROOT
HETATM    1  C   UNL     1      23.428  49.521  48.979  1.00  0.00     0.035 A 
HETATM    2  C   UNL     1      23.592  48.288  49.627  1.00  0.00     0.046 A 
HETATM    3  C   UNL     1      24.857  47.678  49.726  1.00  0.00     0.036 A 
HETATM    4  C   UNL     1      25.970  48.326  49.175  1.00  0.00     0.048 A 
HETATM    5 CL   UNL     1      27.558  47.643  49.227  1.00  0.00    -0.083 Cl
HETATM    6  C   UNL     1      25.815  49.555  48.534  1.00  0.00     0.027 A 
HETATM    7  C   UNL     1      24.550  50.146  48.435  1.00  0.00     0.031 A 
ENDROOT
BRANCH   1   8
HETATM    8  N   UNL     1      22.133  50.084  48.964  1.00  0.00    -0.327 N 
HETATM    9  C   UNL     1      21.529  50.822  49.977  1.00  0.00     0.226 C 
HETATM   10  O   UNL     1      22.095  51.271  50.970  1.00  0.00    -0.273 OA
HETATM   11  H   UNL     1      21.576  49.919  48.134  1.00  0.00     0.169 HD
BRANCH   9  12
HETATM   12  C   UNL     1      20.033  50.975  49.792  1.00  0.00     0.144 C 
BRANCH  12  13
HETATM   13  C   UNL     1      19.197  49.731  49.822  1.00  0.00    -0.021 A 
HETATM   14  C   UNL     1      18.476  49.041  48.786  1.00  0.00     0.001 A 
HETATM   15  C   UNL     1      18.303  49.208  47.393  1.00  0.00     0.051 A 
HETATM   16  C   UNL     1      17.796  47.978  49.391  1.00  0.00     0.043 A 
HETATM   17  C   UNL     1      17.479  48.334  46.662  1.00  0.00     0.069 A 
HETATM   18  C   UNL     1      16.816  47.297  47.312  1.00  0.00     0.039 A 
HETATM   19  C   UNL     1      16.963  47.101  48.687  1.00  0.00     0.033 A 
HETATM   20  N   UNL     1      18.099  48.003  50.728  1.00  0.00    -0.365 N 
HETATM   21  H   UNL     1      17.731  47.356  51.411  1.00  0.00     0.165 HD
HETATM   22  C   UNL     1      18.940  49.042  50.998  1.00  0.00     0.097 A 
BRANCH  17  23
HETATM   23  O   UNL     1      17.410  48.607  45.321  1.00  0.00    -0.356 OA
HETATM   24  C   UNL     1      18.095  49.766  44.863  1.00  0.00     0.210 C 
ENDBRANCH  17  23
ENDBRANCH  12  13
ENDBRANCH   9  12
ENDBRANCH   1   8
BRANCH   3  25
HETATM   25  C   UNL     1      24.979  46.400  50.418  1.00  0.00     0.165 A 
HETATM   26  N   UNL     1      25.470  46.216  51.693  1.00  0.00    -0.316 N 
HETATM   27  C   UNL     1      25.393  44.866  51.939  1.00  0.00     0.130 A 
HETATM   28  C   UNL     1      26.005  47.255  52.547  1.00  0.00     0.132 C 
HETATM   29  C   UNL     1      25.807  44.176  53.192  1.00  0.00     0.081 C 
HETATM   30  N   UNL     1      24.895  44.270  50.876  1.00  0.00    -0.134 NA
HETATM   31  C   UNL     1      27.127  44.701  53.744  1.00  0.00     0.008 C 
HETATM   32  C   UNL     1      26.986  45.994  54.550  1.00  0.00     0.002 C 
HETATM   33  C   UNL     1      25.937  46.986  54.046  1.00  0.00     0.020 C 
HETATM   34  N   UNL     1      24.639  45.225  49.928  1.00  0.00    -0.129 NA
ENDBRANCH   3  25
TORSDOF 5
ENDMDL
MODEL 7
REMARK VINA RESULT:      -9.5      3.641     10.591
REMARK  5 active torsions:
REMARK  status: ('A' for Active; 'I' for Inactive)
REMARK    1  A    between atoms: O_2  and  C_3 
REMARK    2  A    between atoms: C_10  and  C_11 
REMARK    3  A    between atoms: C_11  and  C_12 
REMARK       I    between atoms: C_12  and  N_13 
REMARK    4  A    between atoms: N_13  and  C_14 
REMARK    5  A    between atoms: C_16  and  C_17 
ROOT
HETATM    1  C   UNL     1      23.301  48.479  49.177  1.00  0.00     0.035 A 
HETATM    2  C   UNL     1      24.053  47.378  49.613  1.00  0.00     0.046 A 
HETATM    3  C   UNL     1      25.460  47.412  49.619  1.00  0.00     0.036 A 
HETATM    4  C   UNL     1      26.116  48.573  49.192  1.00  0.00     0.048 A 
HETATM    5 CL   UNL     1      27.839  48.699  49.142  1.00  0.00    -0.083 Cl
HETATM    6  C   UNL     1      25.374  49.674  48.762  1.00  0.00     0.027 A 
HETATM    7  C   UNL     1      23.976  49.624  48.753  1.00  0.00     0.031 A 
ENDROOT
BRANCH   1   8
HETATM    8  N   UNL     1      21.894  48.378  49.246  1.00  0.00    -0.327 N 
HETATM    9  C   UNL     1      21.002  49.371  49.634  1.00  0.00     0.226 C 
HETATM   10  O   UNL     1      21.276  50.558  49.792  1.00  0.00    -0.273 OA
HETATM   11  H   UNL     1      21.492  47.480  49.003  1.00  0.00     0.169 HD
BRANCH   9  12
HETATM   12  C   UNL     1      19.614  48.841  49.933  1.00  0.00     0.144 C 
BRANCH  12  13
HETATM   13  C   UNL     1      18.507  49.219  48.996  1.00  0.00    -0.021 A 
HETATM   14  C   UNL     1      17.588  50.326  49.002  1.00  0.00     0.001 A 
HETATM   15  C   UNL     1      17.387  51.467  49.812  1.00  0.00     0.051 A 
HETATM   16  C   UNL     1      16.706  50.139  47.933  1.00  0.00     0.043 A 
HETATM   17  C   UNL     1      16.340  52.365  49.539  1.00  0.00     0.069 A 
HETATM   18  C   UNL     1      15.483  52.130  48.468  1.00  0.00     0.039 A 
HETATM   19  C   UNL     1      15.651  51.013  47.646  1.00  0.00     0.033 A 
HETATM   20  N   UNL     1      17.076  48.984  47.291  1.00  0.00    -0.365 N 
HETATM   21  H   UNL     1      16.599  48.598  46.488  1.00  0.00     0.165 HD
HETATM   22  C   UNL     1      18.155  48.429  47.912  1.00  0.00     0.097 A 
BRANCH  17  23
HETATM   23  O   UNL     1      16.268  53.432  50.397  1.00  0.00    -0.356 OA
HETATM   24  C   UNL     1      14.968  53.863  50.780  1.00  0.00     0.210 C 
ENDBRANCH  17  23
ENDBRANCH  12  13
ENDBRANCH   9  12
ENDBRANCH   1   8
BRANCH   3  25
HETATM   25  C   UNL     1      26.198  46.245  50.090  1.00  0.00     0.165 A 
HETATM   26  N   UNL     1      26.358  45.869  51.407  1.00  0.00    -0.316 N 
HETATM   27  C   UNL     1      27.107  44.717  51.386  1.00  0.00     0.130 A 
HETATM   28  C   UNL     1      25.870  46.601  52.557  1.00  0.00     0.132 C 
HETATM   29  C   UNL     1      27.542  43.928  52.572  1.00  0.00     0.081 C 
HETATM   30  N   UNL     1      27.389  44.420  50.135  1.00  0.00    -0.134 NA
HETATM   31  C   UNL     1      28.028  44.808  53.718  1.00  0.00     0.008 C 
HETATM   32  C   UNL     1      26.898  45.391  54.568  1.00  0.00     0.002 C 
HETATM   33  C   UNL     1      25.623  45.777  53.816  1.00  0.00     0.020 C 
HETATM   34  N   UNL     1      26.825  45.372  49.328  1.00  0.00    -0.129 NA
ENDBRANCH   3  25
TORSDOF 5
ENDMDL
MODEL 8
REMARK VINA RESULT:      -9.5      3.152     10.433
REMARK  5 active torsions:
REMARK  status: ('A' for Active; 'I' for Inactive)
REMARK    1  A    between atoms: O_2  and  C_3 
REMARK    2  A    between atoms: C_10  and  C_11 
REMARK    3  A    between atoms: C_11  and  C_12 
REMARK       I    between atoms: C_12  and  N_13 
REMARK    4  A    between atoms: N_13  and  C_14 
REMARK    5  A    between atoms: C_16  and  C_17 
ROOT
HETATM    1  C   UNL     1      23.576  49.303  49.019  1.00  0.00     0.035 A 
HETATM    2  C   UNL     1      23.973  48.076  49.571  1.00  0.00     0.046 A 
HETATM    3  C   UNL     1      25.327  47.689  49.588  1.00  0.00     0.036 A 
HETATM    4  C   UNL     1      26.290  48.554  49.053  1.00  0.00     0.048 A 
HETATM    5 CL   UNL     1      27.971  48.153  49.009  1.00  0.00    -0.083 Cl
HETATM    6  C   UNL     1      25.901  49.777  48.508  1.00  0.00     0.027 A 
HETATM    7  C   UNL     1      24.552  50.147  48.489  1.00  0.00     0.031 A 
ENDROOT
BRANCH   1   8
HETATM    8  N   UNL     1      22.204  49.634  49.083  1.00  0.00    -0.327 N 
HETATM    9  C   UNL     1      21.589  50.478  50.001  1.00  0.00     0.226 C 
HETATM   10  O   UNL     1      22.167  51.227  50.785  1.00  0.00    -0.273 OA
HETATM   11  H   UNL     1      21.600  49.196  48.398  1.00  0.00     0.169 HD
BRANCH   9  12
HETATM   12  C   UNL     1      20.079  50.344  50.016  1.00  0.00     0.144 C 
BRANCH  12  13
HETATM   13  C   UNL     1      19.309  51.031  48.929  1.00  0.00    -0.021 A 
HETATM   14  C   UNL     1      18.916  50.593  47.616  1.00  0.00     0.001 A 
HETATM   15  C   UNL     1      19.042  49.399  46.870  1.00  0.00     0.051 A 
HETATM   16  C   UNL     1      18.285  51.673  46.990  1.00  0.00     0.043 A 
HETATM   17  C   UNL     1      18.548  49.318  45.556  1.00  0.00     0.069 A 
HETATM   18  C   UNL     1      17.935  50.424  44.973  1.00  0.00     0.039 A 
HETATM   19  C   UNL     1      17.793  51.620  45.681  1.00  0.00     0.033 A 
HETATM   20  N   UNL     1      18.274  52.716  47.880  1.00  0.00    -0.365 N 
HETATM   21  H   UNL     1      17.892  53.632  47.685  1.00  0.00     0.165 HD
HETATM   22  C   UNL     1      18.877  52.344  49.045  1.00  0.00     0.097 A 
BRANCH  17  23
HETATM   23  O   UNL     1      18.728  48.100  44.955  1.00  0.00    -0.356 OA
HETATM   24  C   UNL     1      18.015  46.998  45.505  1.00  0.00     0.210 C 
ENDBRANCH  17  23
ENDBRANCH  12  13
ENDBRANCH   9  12
ENDBRANCH   1   8
BRANCH   3  25
HETATM   25  C   UNL     1      25.692  46.407  50.181  1.00  0.00     0.165 A 
HETATM   26  N   UNL     1      26.019  46.194  51.504  1.00  0.00    -0.316 N 
HETATM   27  C   UNL     1      26.282  44.850  51.619  1.00  0.00     0.130 A 
HETATM   28  C   UNL     1      26.112  47.218  52.523  1.00  0.00     0.132 C 
HETATM   29  C   UNL     1      26.679  44.135  52.863  1.00  0.00     0.081 C 
HETATM   30  N   UNL     1      26.133  44.288  50.438  1.00  0.00    -0.134 NA
HETATM   31  C   UNL     1      27.705  44.908  53.684  1.00  0.00     0.008 C 
HETATM   32  C   UNL     1      27.093  46.006  54.556  1.00  0.00     0.002 C 
HETATM   33  C   UNL     1      25.898  46.749  53.958  1.00  0.00     0.020 C 
HETATM   34  N   UNL     1      25.768  45.257  49.542  1.00  0.00    -0.129 NA
ENDBRANCH   3  25
TORSDOF 5
ENDMDL
MODEL 9
REMARK VINA RESULT:      -9.4      2.339      3.229
REMARK  5 active torsions:
REMARK  status: ('A' for Active; 'I' for Inactive)
REMARK    1  A    between atoms: O_2  and  C_3 
REMARK    2  A    between atoms: C_10  and  C_11 
REMARK    3  A    between atoms: C_11  and  C_12 
REMARK       I    between atoms: C_12  and  N_13 
REMARK    4  A    between atoms: N_13  and  C_14 
REMARK    5  A    between atoms: C_16  and  C_17 
ROOT
HETATM    1  C   UNL     1      24.306  44.422  49.474  1.00  0.00     0.035 A 
HETATM    2  C   UNL     1      23.381  45.477  49.474  1.00  0.00     0.046 A 
HETATM    3  C   UNL     1      22.508  45.681  48.388  1.00  0.00     0.036 A 
HETATM    4  C   UNL     1      22.560  44.804  47.297  1.00  0.00     0.048 A 
HETATM    5 CL   UNL     1      21.544  44.989  45.911  1.00  0.00    -0.083 Cl
HETATM    6  C   UNL     1      23.474  43.750  47.294  1.00  0.00     0.027 A 
HETATM    7  C   UNL     1      24.343  43.564  48.375  1.00  0.00     0.031 A 
ENDROOT
BRANCH   1   8
HETATM    8  N   UNL     1      25.113  44.263  50.621  1.00  0.00    -0.327 N 
HETATM    9  C   UNL     1      26.502  44.310  50.681  1.00  0.00     0.226 C 
HETATM   10  O   UNL     1      27.244  44.693  49.780  1.00  0.00    -0.273 OA
HETATM   11  H   UNL     1      24.631  44.077  51.493  1.00  0.00     0.169 HD
BRANCH   9  12
HETATM   12  C   UNL     1      27.062  43.757  51.976  1.00  0.00     0.144 C 
BRANCH  12  13
HETATM   13  C   UNL     1      27.366  44.730  53.074  1.00  0.00    -0.021 A 
HETATM   14  C   UNL     1      28.361  44.715  54.114  1.00  0.00     0.001 A 
HETATM   15  C   UNL     1      29.424  43.858  54.482  1.00  0.00     0.051 A 
HETATM   16  C   UNL     1      28.138  45.837  54.919  1.00  0.00     0.043 A 
HETATM   17  C   UNL     1      30.213  44.138  55.612  1.00  0.00     0.069 A 
HETATM   18  C   UNL     1      29.945  45.264  56.386  1.00  0.00     0.039 A 
HETATM   19  C   UNL     1      28.903  46.132  56.053  1.00  0.00     0.033 A 
HETATM   20  N   UNL     1      27.071  46.518  54.390  1.00  0.00    -0.365 N 
HETATM   21  H   UNL     1      26.680  47.363  54.781  1.00  0.00     0.165 HD
HETATM   22  C   UNL     1      26.605  45.870  53.284  1.00  0.00     0.097 A 
BRANCH  17  23
HETATM   23  O   UNL     1      31.213  43.231  55.845  1.00  0.00    -0.356 OA
HETATM   24  C   UNL     1      31.778  43.218  57.151  1.00  0.00     0.210 C 
ENDBRANCH  17  23
ENDBRANCH  12  13
ENDBRANCH   9  12
ENDBRANCH   1   8
BRANCH   3  25
HETATM   25  C   UNL     1      21.557  46.786  48.438  1.00  0.00     0.165 A 
HETATM   26  N   UNL     1      21.877  48.128  48.405  1.00  0.00    -0.316 N 
HETATM   27  C   UNL     1      20.683  48.805  48.465  1.00  0.00     0.130 A 
HETATM   28  C   UNL     1      23.218  48.673  48.374  1.00  0.00     0.132 C 
HETATM   29  C   UNL     1      20.509  50.284  48.457  1.00  0.00     0.081 C 
HETATM   30  N   UNL     1      19.703  47.928  48.538  1.00  0.00    -0.134 NA
HETATM   31  C   UNL     1      21.524  51.000  49.340  1.00  0.00     0.008 C 
HETATM   32  C   UNL     1      22.888  51.196  48.675  1.00  0.00     0.002 C 
HETATM   33  C   UNL     1      23.357  50.063  47.762  1.00  0.00     0.020 C 
HETATM   34  N   UNL     1      20.248  46.671  48.524  1.00  0.00    -0.129 NA
ENDBRANCH   3  25
TORSDOF 5
ENDMDL
MODEL 10
REMARK VINA RESULT:      -9.4      5.023      7.857
REMARK  5 active torsions:
REMARK  status: ('A' for Active; 'I' for Inactive)
REMARK    1  A    between atoms: O_2  and  C_3 
REMARK    2  A    between atoms: C_10  and  C_11 
REMARK    3  A    between atoms: C_11  and  C_12 
REMARK       I    between atoms: C_12  and  N_13 
REMARK    4  A    between atoms: N_13  and  C_14 
REMARK    5  A    between atoms: C_16  and  C_17 
ROOT
HETATM    1  C   UNL     1      25.143  43.751  51.052  1.00  0.00     0.035 A 
HETATM    2  C   UNL     1      25.832  42.573  50.725  1.00  0.00     0.046 A 
HETATM    3  C   UNL     1      25.304  41.654  49.797  1.00  0.00     0.036 A 
HETATM    4  C   UNL     1      24.075  41.932  49.186  1.00  0.00     0.048 A 
HETATM    5 CL   UNL     1      23.339  40.852  48.055  1.00  0.00    -0.083 Cl
HETATM    6  C   UNL     1      23.388  43.104  49.504  1.00  0.00     0.027 A 
HETATM    7  C   UNL     1      23.919  44.005  50.434  1.00  0.00     0.031 A 
ENDROOT
BRANCH   1   8
HETATM    8  N   UNL     1      25.764  44.640  51.957  1.00  0.00    -0.327 N 
HETATM    9  C   UNL     1      25.420  44.855  53.287  1.00  0.00     0.226 C 
HETATM   10  O   UNL     1      24.647  44.165  53.947  1.00  0.00    -0.273 OA
HETATM   11  H   UNL     1      26.531  45.194  51.595  1.00  0.00     0.169 HD
BRANCH   9  12
HETATM   12  C   UNL     1      26.043  46.108  53.869  1.00  0.00     0.144 C 
BRANCH  12  13
HETATM   13  C   UNL     1      27.311  45.955  54.653  1.00  0.00    -0.021 A 
HETATM   14  C   UNL     1      28.357  44.969  54.593  1.00  0.00     0.001 A 
HETATM   15  C   UNL     1      28.632  43.837  53.794  1.00  0.00     0.051 A 
HETATM   16  C   UNL     1      29.264  45.264  55.616  1.00  0.00     0.043 A 
HETATM   17  C   UNL     1      29.774  43.051  54.031  1.00  0.00     0.069 A 
HETATM   18  C   UNL     1      30.642  43.380  55.067  1.00  0.00     0.039 A 
HETATM   19  C   UNL     1      30.402  44.493  55.878  1.00  0.00     0.033 A 
HETATM   20  N   UNL     1      28.808  46.385  56.261  1.00  0.00    -0.365 N 
HETATM   21  H   UNL     1      29.263  46.813  57.056  1.00  0.00     0.165 HD
HETATM   22  C   UNL     1      27.645  46.812  55.692  1.00  0.00     0.097 A 
BRANCH  17  23
HETATM   23  O   UNL     1      29.922  41.991  53.175  1.00  0.00    -0.356 OA
HETATM   24  C   UNL     1      28.767  41.197  52.927  1.00  0.00     0.210 C 
ENDBRANCH  17  23
ENDBRANCH  12  13
ENDBRANCH   9  12
ENDBRANCH   1   8
BRANCH   3  25
HETATM   25  C   UNL     1      26.062  40.448  49.482  1.00  0.00     0.165 A 
HETATM   26  N   UNL     1      26.759  40.215  48.315  1.00  0.00    -0.316 N 
HETATM   27  C   UNL     1      27.323  38.969  48.452  1.00  0.00     0.130 A 
HETATM   28  C   UNL     1      26.813  41.105  47.175  1.00  0.00     0.132 C 
HETATM   29  C   UNL     1      28.175  38.275  47.447  1.00  0.00     0.081 C 
HETATM   30  N   UNL     1      26.981  38.476  49.623  1.00  0.00    -0.134 NA
HETATM   31  C   UNL     1      27.647  38.421  46.025  1.00  0.00     0.008 C 
HETATM   32  C   UNL     1      28.018  39.750  45.365  1.00  0.00     0.002 C 
HETATM   33  C   UNL     1      28.043  40.972  46.284  1.00  0.00     0.020 C 
HETATM   34  N   UNL     1      26.193  39.396  50.264  1.00  0.00    -0.129 NA
ENDBRANCH   3  25
TORSDOF 5
ENDMDL
