MODEL 1
REMARK VINA RESULT:      -8.0      0.000      0.000
REMARK  7 active torsions:
REMARK  status: ('A' for Active; 'I' for Inactive)
REMARK    1  A    between atoms: C_7  and  C_8 
REMARK    2  A    between atoms: C_8  and  N_9 
REMARK       I    between atoms: N_9  and  C_10 
REMARK       I    between atoms: C_10  and  N_11 
REMARK    3  A    between atoms: N_11  and  C_12 
REMARK    4  A    between atoms: C_12  and  C_13 
REMARK    5  A    between atoms: C_13  and  C_14 
REMARK    6  A    between atoms: C_14  and  O_15 
REMARK    7  A    between atoms: C_14  and  C_16 
ROOT
HETATM    1  N   UNL     1      25.644  46.356  53.413  1.00  0.00    -0.337 N 
HETATM    2  C   UNL     1      25.678  46.622  52.067  1.00  0.00     0.316 C 
HETATM    3  N   UNL     1      25.009  45.680  51.340  1.00  0.00    -0.339 N 
HETATM    4  O   UNL     1      26.170  47.643  51.597  1.00  0.00    -0.247 OA
HETATM    5  H   UNL     1      25.478  45.387  53.644  1.00  0.00     0.164 HD
HETATM    6  H   UNL     1      24.953  44.750  51.733  1.00  0.00     0.164 HD
ENDROOT
BRANCH   1   7
HETATM    7  C   UNL     1      26.425  47.123  54.365  1.00  0.00     0.183 C 
BRANCH   7   8
HETATM    8  C   UNL     1      27.584  46.352  54.890  1.00  0.00     0.044 A 
HETATM    9  N   UNL     1      28.060  45.206  54.271  1.00  0.00    -0.343 N 
HETATM   10  C   UNL     1      29.075  44.682  54.938  1.00  0.00     0.112 A 
HETATM   11  H   UNL     1      27.691  44.872  53.372  1.00  0.00     0.167 HD
HETATM   12  N   UNL     1      29.301  45.463  56.014  1.00  0.00    -0.311 N 
HETATM   13  C   UNL     1      29.885  43.474  54.663  1.00  0.00     0.049 A 
HETATM   14  C   UNL     1      30.311  45.189  56.936  1.00  0.00     0.014 A 
HETATM   15  C   UNL     1      28.387  46.511  55.999  1.00  0.00     0.125 A 
HETATM   16  C   UNL     1      30.544  46.081  58.117  1.00  0.00     0.068 C 
HETATM   17  C   UNL     1      31.055  44.085  56.696  1.00  0.00     0.025 A 
HETATM   18  C   UNL     1      30.854  43.202  55.552  1.00  0.00     0.006 A 
ENDBRANCH   7   8
ENDBRANCH   1   7
BRANCH   3  19
HETATM   19  C   UNL     1      24.907  45.757  49.886  1.00  0.00     0.085 C 
HETATM   20  C   UNL     1      23.640  46.512  49.496  1.00  0.00     0.032 C 
BRANCH  19  21
HETATM   21  C   UNL     1      25.077  44.389  49.190  1.00  0.00     0.063 C 
BRANCH  21  22
HETATM   22  C   UNL     1      24.611  43.125  49.922  1.00  0.00     0.177 C 
BRANCH  22  23
HETATM   23  O   UNL     1      23.570  43.428  50.846  1.00  0.00    -0.389 OA
HETATM   24  H   UNL     1      23.295  44.345  50.677  1.00  0.00     0.210 HD
ENDBRANCH  22  23
BRANCH  22  25
HETATM   25  C   UNL     1      25.682  42.404  50.666  1.00  0.00     0.081 A 
HETATM   26  O   UNL     1      26.439  43.147  51.529  1.00  0.00    -0.324 OA
HETATM   27  C   UNL     1      27.390  42.323  52.038  1.00  0.00     0.142 A 
HETATM   28  C   UNL     1      27.246  41.052  51.537  1.00  0.00     0.027 A 
HETATM   29  C   UNL     1      26.144  41.102  50.651  1.00  0.00     0.037 A 
ENDBRANCH  22  25
ENDBRANCH  21  22
ENDBRANCH  19  21
ENDBRANCH   3  19
TORSDOF 7
ENDMDL
MODEL 2
REMARK VINA RESULT:      -8.0      3.815      6.601
REMARK  7 active torsions:
REMARK  status: ('A' for Active; 'I' for Inactive)
REMARK    1  A    between atoms: C_7  and  C_8 
REMARK    2  A    between atoms: C_8  and  N_9 
REMARK       I    between atoms: N_9  and  C_10 
REMARK       I    between atoms: C_10  and  N_11 
REMARK    3  A    between atoms: N_11  and  C_12 
REMARK    4  A    between atoms: C_12  and  C_13 
REMARK    5  A    between atoms: C_13  and  C_14 
REMARK    6  A    between atoms: C_14  and  O_15 
REMARK    7  A    between atoms: C_14  and  C_16 
ROOT
HETATM    1  N   UNL     1      24.904  46.672  51.345  1.00  0.00    -0.337 N 
HETATM    2  C   UNL     1      24.266  46.938  50.159  1.00  0.00     0.316 C 
HETATM    3  N   UNL     1      24.049  48.275  49.980  1.00  0.00    -0.339 N 
HETATM    4  O   UNL     1      24.016  46.076  49.323  1.00  0.00    -0.247 OA
HETATM    5  H   UNL     1      24.797  47.390  52.047  1.00  0.00     0.164 HD
HETATM    6  H   UNL     1      23.957  48.841  50.813  1.00  0.00     0.164 HD
ENDROOT
BRANCH   1   7
HETATM    7  C   UNL     1      25.089  45.317  51.827  1.00  0.00     0.183 C 
BRANCH   7   8
HETATM    8  C   UNL     1      26.216  45.214  52.793  1.00  0.00     0.044 A 
HETATM    9  N   UNL     1      26.417  46.140  53.806  1.00  0.00    -0.343 N 
HETATM   10  C   UNL     1      27.498  45.854  54.513  1.00  0.00     0.112 A 
HETATM   11  H   UNL     1      25.754  46.900  53.996  1.00  0.00     0.167 HD
HETATM   12  N   UNL     1      28.041  44.735  53.993  1.00  0.00    -0.311 N 
HETATM   13  C   UNL     1      28.100  46.551  55.672  1.00  0.00     0.049 A 
HETATM   14  C   UNL     1      29.201  44.158  54.510  1.00  0.00     0.014 A 
HETATM   15  C   UNL     1      27.255  44.317  52.924  1.00  0.00     0.125 A 
HETATM   16  C   UNL     1      29.776  42.908  53.916  1.00  0.00     0.068 C 
HETATM   17  C   UNL     1      29.762  44.789  55.566  1.00  0.00     0.025 A 
HETATM   18  C   UNL     1      29.221  46.004  56.168  1.00  0.00     0.006 A 
ENDBRANCH   7   8
ENDBRANCH   1   7
BRANCH   3  19
HETATM   19  C   UNL     1      23.389  48.796  48.788  1.00  0.00     0.085 C 
HETATM   20  C   UNL     1      24.289  49.821  48.105  1.00  0.00     0.032 C 
BRANCH  19  21
HETATM   21  C   UNL     1      21.948  49.285  49.054  1.00  0.00     0.063 C 
BRANCH  21  22
HETATM   22  C   UNL     1      21.739  50.701  49.603  1.00  0.00     0.177 C 
BRANCH  22  23
HETATM   23  O   UNL     1      22.054  50.759  50.991  1.00  0.00    -0.389 OA
HETATM   24  H   UNL     1      22.543  49.947  51.208  1.00  0.00     0.210 HD
ENDBRANCH  22  23
BRANCH  22  25
HETATM   25  C   UNL     1      20.363  51.243  49.427  1.00  0.00     0.081 A 
HETATM   26  O   UNL     1      19.406  50.783  50.290  1.00  0.00    -0.324 OA
HETATM   27  C   UNL     1      18.226  51.338  49.912  1.00  0.00     0.142 A 
HETATM   28  C   UNL     1      18.408  52.169  48.833  1.00  0.00     0.027 A 
HETATM   29  C   UNL     1      19.786  52.109  48.519  1.00  0.00     0.037 A 
ENDBRANCH  22  25
ENDBRANCH  21  22
ENDBRANCH  19  21
ENDBRANCH   3  19
TORSDOF 7
ENDMDL
MODEL 3
REMARK VINA RESULT:      -7.9      2.134      4.457
REMARK  7 active torsions:
REMARK  status: ('A' for Active; 'I' for Inactive)
REMARK    1  A    between atoms: C_7  and  C_8 
REMARK    2  A    between atoms: C_8  and  N_9 
REMARK       I    between atoms: N_9  and  C_10 
REMARK       I    between atoms: C_10  and  N_11 
REMARK    3  A    between atoms: N_11  and  C_12 
REMARK    4  A    between atoms: C_12  and  C_13 
REMARK    5  A    between atoms: C_13  and  C_14 
REMARK    6  A    between atoms: C_14  and  O_15 
REMARK    7  A    between atoms: C_14  and  C_16 
ROOT
HETATM    1  N   UNL     1      26.577  43.017  50.889  1.00  0.00    -0.337 N 
HETATM    2  C   UNL     1      25.303  43.507  50.749  1.00  0.00     0.316 C 
HETATM    3  N   UNL     1      25.196  44.367  49.692  1.00  0.00    -0.339 N 
HETATM    4  O   UNL     1      24.359  43.131  51.436  1.00  0.00    -0.247 OA
HETATM    5  H   UNL     1      27.295  43.594  50.474  1.00  0.00     0.164 HD
HETATM    6  H   UNL     1      26.030  44.871  49.424  1.00  0.00     0.164 HD
ENDROOT
BRANCH   1   7
HETATM    7  C   UNL     1      26.969  42.221  52.036  1.00  0.00     0.183 C 
BRANCH   7   8
HETATM    8  C   UNL     1      27.774  43.003  53.013  1.00  0.00     0.044 A 
HETATM    9  N   UNL     1      28.896  42.481  53.641  1.00  0.00    -0.343 N 
HETATM   10  C   UNL     1      29.424  43.351  54.486  1.00  0.00     0.112 A 
HETATM   11  H   UNL     1      29.279  41.558  53.406  1.00  0.00     0.167 HD
HETATM   12  N   UNL     1      28.672  44.470  54.442  1.00  0.00    -0.311 N 
HETATM   13  C   UNL     1      30.607  43.236  55.369  1.00  0.00     0.049 A 
HETATM   14  C   UNL     1      28.958  45.592  55.220  1.00  0.00     0.014 A 
HETATM   15  C   UNL     1      27.644  44.275  53.527  1.00  0.00     0.125 A 
HETATM   16  C   UNL     1      28.109  46.824  55.142  1.00  0.00     0.068 C 
HETATM   17  C   UNL     1      30.034  45.497  56.034  1.00  0.00     0.025 A 
HETATM   18  C   UNL     1      30.881  44.312  56.126  1.00  0.00     0.006 A 
ENDBRANCH   7   8
ENDBRANCH   1   7
BRANCH   3  19
HETATM   19  C   UNL     1      23.932  45.009  49.346  1.00  0.00     0.085 C 
HETATM   20  C   UNL     1      23.435  44.481  48.004  1.00  0.00     0.032 C 
BRANCH  19  21
HETATM   21  C   UNL     1      23.983  46.550  49.449  1.00  0.00     0.063 C 
BRANCH  21  22
HETATM   22  C   UNL     1      25.132  47.199  50.230  1.00  0.00     0.177 C 
BRANCH  22  23
HETATM   23  O   UNL     1      24.664  47.746  51.459  1.00  0.00    -0.389 OA
HETATM   24  H   UNL     1      23.765  48.082  51.300  1.00  0.00     0.210 HD
ENDBRANCH  22  23
BRANCH  22  25
HETATM   25  C   UNL     1      25.852  48.279  49.499  1.00  0.00     0.081 A 
HETATM   26  O   UNL     1      27.203  48.361  49.697  1.00  0.00    -0.324 OA
HETATM   27  C   UNL     1      27.644  49.444  49.007  1.00  0.00     0.142 A 
HETATM   28  C   UNL     1      26.604  50.050  48.345  1.00  0.00     0.027 A 
HETATM   29  C   UNL     1      25.447  49.300  48.661  1.00  0.00     0.037 A 
ENDBRANCH  22  25
ENDBRANCH  21  22
ENDBRANCH  19  21
ENDBRANCH   3  19
TORSDOF 7
ENDMDL
MODEL 4
REMARK VINA RESULT:      -7.7     12.923     14.842
REMARK  7 active torsions:
REMARK  status: ('A' for Active; 'I' for Inactive)
REMARK    1  A    between atoms: C_7  and  C_8 
REMARK    2  A    between atoms: C_8  and  N_9 
REMARK       I    between atoms: N_9  and  C_10 
REMARK       I    between atoms: C_10  and  N_11 
REMARK    3  A    between atoms: N_11  and  C_12 
REMARK    4  A    between atoms: C_12  and  C_13 
REMARK    5  A    between atoms: C_13  and  C_14 
REMARK    6  A    between atoms: C_14  and  O_15 
REMARK    7  A    between atoms: C_14  and  C_16 
ROOT
HETATM    1  N   UNL     1      30.888  48.390  39.564  1.00  0.00    -0.337 N 
HETATM    2  C   UNL     1      29.687  48.967  39.891  1.00  0.00     0.316 C 
HETATM    3  N   UNL     1      29.118  49.608  38.827  1.00  0.00    -0.339 N 
HETATM    4  O   UNL     1      29.152  48.830  40.986  1.00  0.00    -0.247 OA
HETATM    5  H   UNL     1      31.344  48.799  38.761  1.00  0.00     0.164 HD
HETATM    6  H   UNL     1      29.743  49.964  38.117  1.00  0.00     0.164 HD
ENDROOT
BRANCH   1   7
HETATM    7  C   UNL     1      31.753  47.801  40.568  1.00  0.00     0.183 C 
BRANCH   7   8
HETATM    8  C   UNL     1      32.442  48.832  41.390  1.00  0.00     0.044 A 
HETATM    9  N   UNL     1      31.819  49.485  42.443  1.00  0.00    -0.343 N 
HETATM   10  C   UNL     1      32.622  50.376  43.000  1.00  0.00     0.112 A 
HETATM   11  H   UNL     1      30.876  49.236  42.765  1.00  0.00     0.167 HD
HETATM   12  N   UNL     1      33.795  50.339  42.338  1.00  0.00    -0.311 N 
HETATM   13  C   UNL     1      32.392  51.300  44.135  1.00  0.00     0.049 A 
HETATM   14  C   UNL     1      34.870  51.162  42.675  1.00  0.00     0.014 A 
HETATM   15  C   UNL     1      33.706  49.379  41.335  1.00  0.00     0.125 A 
HETATM   16  C   UNL     1      36.165  51.090  41.925  1.00  0.00     0.068 C 
HETATM   17  C   UNL     1      34.669  52.013  43.707  1.00  0.00     0.025 A 
HETATM   18  C   UNL     1      33.421  52.099  44.458  1.00  0.00     0.006 A 
ENDBRANCH   7   8
ENDBRANCH   1   7
BRANCH   3  19
HETATM   19  C   UNL     1      27.833  50.292  38.936  1.00  0.00     0.085 C 
HETATM   20  C   UNL     1      26.706  49.341  38.546  1.00  0.00     0.032 C 
BRANCH  19  21
HETATM   21  C   UNL     1      27.804  51.653  38.206  1.00  0.00     0.063 C 
BRANCH  21  22
HETATM   22  C   UNL     1      29.128  52.382  37.951  1.00  0.00     0.177 C 
BRANCH  22  23
HETATM   23  O   UNL     1      29.962  51.630  37.074  1.00  0.00    -0.389 OA
HETATM   24  H   UNL     1      29.701  51.859  36.165  1.00  0.00     0.210 HD
ENDBRANCH  22  23
BRANCH  22  25
HETATM   25  C   UNL     1      29.919  52.688  39.175  1.00  0.00     0.081 A 
HETATM   26  O   UNL     1      31.159  52.119  39.266  1.00  0.00    -0.324 OA
HETATM   27  C   UNL     1      31.671  52.461  40.476  1.00  0.00     0.142 A 
HETATM   28  C   UNL     1      30.791  53.264  41.161  1.00  0.00     0.027 A 
HETATM   29  C   UNL     1      29.660  53.412  40.324  1.00  0.00     0.037 A 
ENDBRANCH  22  25
ENDBRANCH  21  22
ENDBRANCH  19  21
ENDBRANCH   3  19
TORSDOF 7
ENDMDL
MODEL 5
REMARK VINA RESULT:      -7.7      4.183      6.767
REMARK  7 active torsions:
REMARK  status: ('A' for Active; 'I' for Inactive)
REMARK    1  A    between atoms: C_7  and  C_8 
REMARK    2  A    between atoms: C_8  and  N_9 
REMARK       I    between atoms: N_9  and  C_10 
REMARK       I    between atoms: C_10  and  N_11 
REMARK    3  A    between atoms: N_11  and  C_12 
REMARK    4  A    between atoms: C_12  and  C_13 
REMARK    5  A    between atoms: C_13  and  C_14 
REMARK    6  A    between atoms: C_14  and  O_15 
REMARK    7  A    between atoms: C_14  and  C_16 
ROOT
HETATM    1  N   UNL     1      24.277  46.808  50.701  1.00  0.00    -0.337 N 
HETATM    2  C   UNL     1      23.594  47.117  49.551  1.00  0.00     0.316 C 
HETATM    3  N   UNL     1      23.241  48.436  49.501  1.00  0.00    -0.339 N 
HETATM    4  O   UNL     1      23.417  46.315  48.639  1.00  0.00    -0.247 OA
HETATM    5  H   UNL     1      24.111  47.443  51.469  1.00  0.00     0.164 HD
HETATM    6  H   UNL     1      23.108  48.910  50.384  1.00  0.00     0.164 HD
ENDROOT
BRANCH   1   7
HETATM    7  C   UNL     1      24.606  45.440  51.052  1.00  0.00     0.183 C 
BRANCH   7   8
HETATM    8  C   UNL     1      25.706  45.366  52.052  1.00  0.00     0.044 A 
HETATM    9  N   UNL     1      26.540  44.263  52.161  1.00  0.00    -0.343 N 
HETATM   10  C   UNL     1      27.418  44.418  53.138  1.00  0.00     0.112 A 
HETATM   11  H   UNL     1      26.498  43.473  51.505  1.00  0.00     0.167 HD
HETATM   12  N   UNL     1      27.193  45.622  53.702  1.00  0.00    -0.311 N 
HETATM   13  C   UNL     1      28.488  43.515  53.620  1.00  0.00     0.049 A 
HETATM   14  C   UNL     1      27.951  46.099  54.771  1.00  0.00     0.014 A 
HETATM   15  C   UNL     1      26.135  46.230  53.036  1.00  0.00     0.125 A 
HETATM   16  C   UNL     1      27.682  47.446  55.370  1.00  0.00     0.068 C 
HETATM   17  C   UNL     1      28.928  45.280  55.222  1.00  0.00     0.025 A 
HETATM   18  C   UNL     1      29.215  43.967  54.654  1.00  0.00     0.006 A 
ENDBRANCH   7   8
ENDBRANCH   1   7
BRANCH   3  19
HETATM   19  C   UNL     1      22.511  48.996  48.368  1.00  0.00     0.085 C 
HETATM   20  C   UNL     1      23.055  50.382  48.037  1.00  0.00     0.032 C 
BRANCH  19  21
HETATM   21  C   UNL     1      20.977  48.934  48.542  1.00  0.00     0.063 C 
BRANCH  21  22
HETATM   22  C   UNL     1      20.353  49.536  49.805  1.00  0.00     0.177 C 
BRANCH  22  23
HETATM   23  O   UNL     1      19.559  48.571  50.490  1.00  0.00    -0.389 OA
HETATM   24  H   UNL     1      18.656  48.639  50.135  1.00  0.00     0.210 HD
ENDBRANCH  22  23
BRANCH  22  25
HETATM   25  C   UNL     1      19.503  50.737  49.571  1.00  0.00     0.081 A 
HETATM   26  O   UNL     1      18.341  50.818  50.287  1.00  0.00    -0.324 OA
HETATM   27  C   UNL     1      17.691  51.935  49.871  1.00  0.00     0.142 A 
HETATM   28  C   UNL     1      18.426  52.593  48.914  1.00  0.00     0.027 A 
HETATM   29  C   UNL     1      19.596  51.821  48.718  1.00  0.00     0.037 A 
ENDBRANCH  22  25
ENDBRANCH  21  22
ENDBRANCH  19  21
ENDBRANCH   3  19
TORSDOF 7
ENDMDL
MODEL 6
REMARK VINA RESULT:      -7.6      2.937      6.653
REMARK  7 active torsions:
REMARK  status: ('A' for Active; 'I' for Inactive)
REMARK    1  A    between atoms: C_7  and  C_8 
REMARK    2  A    between atoms: C_8  and  N_9 
REMARK       I    between atoms: N_9  and  C_10 
REMARK       I    between atoms: C_10  and  N_11 
REMARK    3  A    between atoms: N_11  and  C_12 
REMARK    4  A    between atoms: C_12  and  C_13 
REMARK    5  A    between atoms: C_13  and  C_14 
REMARK    6  A    between atoms: C_14  and  O_15 
REMARK    7  A    between atoms: C_14  and  C_16 
ROOT
HETATM    1  N   UNL     1      24.648  44.205  51.008  1.00  0.00    -0.337 N 
HETATM    2  C   UNL     1      25.784  43.498  50.705  1.00  0.00     0.316 C 
HETATM    3  N   UNL     1      25.501  42.259  50.203  1.00  0.00    -0.339 N 
HETATM    4  O   UNL     1      26.913  43.973  50.788  1.00  0.00    -0.247 OA
HETATM    5  H   UNL     1      23.831  43.633  51.171  1.00  0.00     0.164 HD
HETATM    6  H   UNL     1      24.629  41.836  50.490  1.00  0.00     0.164 HD
ENDROOT
BRANCH   1   7
HETATM    7  C   UNL     1      24.699  45.474  51.708  1.00  0.00     0.183 C 
BRANCH   7   8
HETATM    8  C   UNL     1      24.980  46.611  50.790  1.00  0.00     0.044 A 
HETATM    9  N   UNL     1      26.262  47.093  50.572  1.00  0.00    -0.343 N 
HETATM   10  C   UNL     1      26.255  48.124  49.743  1.00  0.00     0.112 A 
HETATM   11  H   UNL     1      27.095  46.641  50.968  1.00  0.00     0.167 HD
HETATM   12  N   UNL     1      24.975  48.352  49.388  1.00  0.00    -0.311 N 
HETATM   13  C   UNL     1      27.370  48.952  49.230  1.00  0.00     0.049 A 
HETATM   14  C   UNL     1      24.614  49.378  48.514  1.00  0.00     0.014 A 
HETATM   15  C   UNL     1      24.166  47.417  50.025  1.00  0.00     0.125 A 
HETATM   16  C   UNL     1      23.182  49.601  48.131  1.00  0.00     0.068 C 
HETATM   17  C   UNL     1      25.624  50.144  48.043  1.00  0.00     0.025 A 
HETATM   18  C   UNL     1      27.026  49.946  48.395  1.00  0.00     0.006 A 
ENDBRANCH   7   8
ENDBRANCH   1   7
BRANCH   3  19
HETATM   19  C   UNL     1      26.553  41.330  49.805  1.00  0.00     0.085 C 
HETATM   20  C   UNL     1      26.075  40.478  48.634  1.00  0.00     0.032 C 
BRANCH  19  21
HETATM   21  C   UNL     1      27.134  40.524  50.989  1.00  0.00     0.063 C 
BRANCH  21  22
HETATM   22  C   UNL     1      28.592  40.762  51.399  1.00  0.00     0.177 C 
BRANCH  22  23
HETATM   23  O   UNL     1      29.221  39.539  51.771  1.00  0.00    -0.389 OA
HETATM   24  H   UNL     1      30.054  39.770  52.216  1.00  0.00     0.210 HD
ENDBRANCH  22  23
BRANCH  22  25
HETATM   25  C   UNL     1      28.776  41.726  52.519  1.00  0.00     0.081 A 
HETATM   26  O   UNL     1      27.704  41.923  53.344  1.00  0.00    -0.324 OA
HETATM   27  C   UNL     1      28.057  42.882  54.238  1.00  0.00     0.142 A 
HETATM   28  C   UNL     1      29.351  43.292  54.020  1.00  0.00     0.027 A 
HETATM   29  C   UNL     1      29.816  42.547  52.911  1.00  0.00     0.037 A 
ENDBRANCH  22  25
ENDBRANCH  21  22
ENDBRANCH  19  21
ENDBRANCH   3  19
TORSDOF 7
ENDMDL
MODEL 7
REMARK VINA RESULT:      -7.6      4.249      9.094
REMARK  7 active torsions:
REMARK  status: ('A' for Active; 'I' for Inactive)
REMARK    1  A    between atoms: C_7  and  C_8 
REMARK    2  A    between atoms: C_8  and  N_9 
REMARK       I    between atoms: N_9  and  C_10 
REMARK       I    between atoms: C_10  and  N_11 
REMARK    3  A    between atoms: N_11  and  C_12 
REMARK    4  A    between atoms: C_12  and  C_13 
REMARK    5  A    between atoms: C_13  and  C_14 
REMARK    6  A    between atoms: C_14  and  O_15 
REMARK    7  A    between atoms: C_14  and  C_16 
ROOT
HETATM    1  N   UNL     1      23.973  48.188  48.906  1.00  0.00    -0.337 N 
HETATM    2  C   UNL     1      25.066  47.808  49.644  1.00  0.00     0.316 C 
HETATM    3  N   UNL     1      25.035  46.480  49.963  1.00  0.00    -0.339 N 
HETATM    4  O   UNL     1      26.002  48.560  49.894  1.00  0.00    -0.247 OA
HETATM    5  H   UNL     1      23.169  47.586  49.011  1.00  0.00     0.164 HD
HETATM    6  H   UNL     1      24.125  46.045  50.033  1.00  0.00     0.164 HD
ENDROOT
BRANCH   1   7
HETATM    7  C   UNL     1      23.705  49.579  48.596  1.00  0.00     0.183 C 
BRANCH   7   8
HETATM    8  C   UNL     1      22.293  49.955  48.877  1.00  0.00     0.044 A 
HETATM    9  N   UNL     1      21.720  51.119  48.386  1.00  0.00    -0.343 N 
HETATM   10  C   UNL     1      20.468  51.250  48.795  1.00  0.00     0.112 A 
HETATM   11  H   UNL     1      22.212  51.743  47.735  1.00  0.00     0.167 HD
HETATM   12  N   UNL     1      20.177  50.181  49.564  1.00  0.00    -0.311 N 
HETATM   13  C   UNL     1      19.478  52.318  48.530  1.00  0.00     0.049 A 
HETATM   14  C   UNL     1      18.927  50.008  50.158  1.00  0.00     0.014 A 
HETATM   15  C   UNL     1      21.298  49.360  49.623  1.00  0.00     0.125 A 
HETATM   16  C   UNL     1      18.630  48.804  51.000  1.00  0.00     0.068 C 
HETATM   17  C   UNL     1      18.016  50.980  49.927  1.00  0.00     0.025 A 
HETATM   18  C   UNL     1      18.276  52.159  49.107  1.00  0.00     0.006 A 
ENDBRANCH   7   8
ENDBRANCH   1   7
BRANCH   3  19
HETATM   19  C   UNL     1      26.097  45.848  50.739  1.00  0.00     0.085 C 
HETATM   20  C   UNL     1      26.824  44.819  49.880  1.00  0.00     0.032 C 
BRANCH  19  21
HETATM   21  C   UNL     1      25.616  45.315  52.107  1.00  0.00     0.063 C 
BRANCH  21  22
HETATM   22  C   UNL     1      25.739  46.221  53.337  1.00  0.00     0.177 C 
BRANCH  22  23
HETATM   23  O   UNL     1      25.752  47.594  52.958  1.00  0.00    -0.389 OA
HETATM   24  H   UNL     1      25.174  47.681  52.180  1.00  0.00     0.210 HD
ENDBRANCH  22  23
BRANCH  22  25
HETATM   25  C   UNL     1      26.944  45.972  54.178  1.00  0.00     0.081 A 
HETATM   26  O   UNL     1      27.253  46.926  55.108  1.00  0.00    -0.324 OA
HETATM   27  C   UNL     1      28.411  46.544  55.704  1.00  0.00     0.142 A 
HETATM   28  C   UNL     1      28.845  45.345  55.191  1.00  0.00     0.027 A 
HETATM   29  C   UNL     1      27.899  44.974  54.206  1.00  0.00     0.037 A 
ENDBRANCH  22  25
ENDBRANCH  21  22
ENDBRANCH  19  21
ENDBRANCH   3  19
TORSDOF 7
ENDMDL
MODEL 8
REMARK VINA RESULT:      -7.6      1.549      3.505
REMARK  7 active torsions:
REMARK  status: ('A' for Active; 'I' for Inactive)
REMARK    1  A    between atoms: C_7  and  C_8 
REMARK    2  A    between atoms: C_8  and  N_9 
REMARK       I    between atoms: N_9  and  C_10 
REMARK       I    between atoms: C_10  and  N_11 
REMARK    3  A    between atoms: N_11  and  C_12 
REMARK    4  A    between atoms: C_12  and  C_13 
REMARK    5  A    between atoms: C_13  and  C_14 
REMARK    6  A    between atoms: C_14  and  O_15 
REMARK    7  A    between atoms: C_14  and  C_16 
ROOT
HETATM    1  N   UNL     1      26.135  46.024  52.702  1.00  0.00    -0.337 N 
HETATM    2  C   UNL     1      25.289  44.947  52.620  1.00  0.00     0.316 C 
HETATM    3  N   UNL     1      24.993  44.623  51.326  1.00  0.00    -0.339 N 
HETATM    4  O   UNL     1      24.928  44.299  53.597  1.00  0.00    -0.247 OA
HETATM    5  H   UNL     1      26.126  46.626  51.891  1.00  0.00     0.164 HD
HETATM    6  H   UNL     1      25.029  45.370  50.645  1.00  0.00     0.164 HD
ENDROOT
BRANCH   1   7
HETATM    7  C   UNL     1      26.453  46.652  53.970  1.00  0.00     0.183 C 
BRANCH   7   8
HETATM    8  C   UNL     1      27.620  46.014  54.636  1.00  0.00     0.044 A 
HETATM    9  N   UNL     1      28.216  44.859  54.150  1.00  0.00    -0.343 N 
HETATM   10  C   UNL     1      29.212  44.467  54.927  1.00  0.00     0.112 A 
HETATM   11  H   UNL     1      27.937  44.428  53.260  1.00  0.00     0.167 HD
HETATM   12  N   UNL     1      29.306  45.346  55.945  1.00  0.00    -0.311 N 
HETATM   13  C   UNL     1      30.120  43.303  54.810  1.00  0.00     0.049 A 
HETATM   14  C   UNL     1      30.262  45.223  56.952  1.00  0.00     0.014 A 
HETATM   15  C   UNL     1      28.327  46.320  55.779  1.00  0.00     0.125 A 
HETATM   16  C   UNL     1      30.347  46.222  58.066  1.00  0.00     0.068 C 
HETATM   17  C   UNL     1      31.095  44.161  56.859  1.00  0.00     0.025 A 
HETATM   18  C   UNL     1      31.038  43.176  55.783  1.00  0.00     0.006 A 
ENDBRANCH   7   8
ENDBRANCH   1   7
BRANCH   3  19
HETATM   19  C   UNL     1      24.115  43.507  50.992  1.00  0.00     0.085 C 
HETATM   20  C   UNL     1      24.950  42.283  50.625  1.00  0.00     0.032 C 
BRANCH  19  21
HETATM   21  C   UNL     1      23.029  43.875  49.956  1.00  0.00     0.063 C 
BRANCH  21  22
HETATM   22  C   UNL     1      23.432  44.694  48.724  1.00  0.00     0.177 C 
BRANCH  22  23
HETATM   23  O   UNL     1      24.807  44.495  48.409  1.00  0.00    -0.389 OA
HETATM   24  H   UNL     1      25.097  45.267  47.894  1.00  0.00     0.210 HD
ENDBRANCH  22  23
BRANCH  22  25
HETATM   25  C   UNL     1      23.203  46.161  48.848  1.00  0.00     0.081 A 
HETATM   26  O   UNL     1      24.128  46.870  49.565  1.00  0.00    -0.324 OA
HETATM   27  C   UNL     1      23.695  48.156  49.616  1.00  0.00     0.142 A 
HETATM   28  C   UNL     1      22.516  48.296  48.923  1.00  0.00     0.027 A 
HETATM   29  C   UNL     1      22.197  47.010  48.427  1.00  0.00     0.037 A 
ENDBRANCH  22  25
ENDBRANCH  21  22
ENDBRANCH  19  21
ENDBRANCH   3  19
TORSDOF 7
ENDMDL
MODEL 9
REMARK VINA RESULT:      -7.5     12.837     14.484
REMARK  7 active torsions:
REMARK  status: ('A' for Active; 'I' for Inactive)
REMARK    1  A    between atoms: C_7  and  C_8 
REMARK    2  A    between atoms: C_8  and  N_9 
REMARK       I    between atoms: N_9  and  C_10 
REMARK       I    between atoms: C_10  and  N_11 
REMARK    3  A    between atoms: N_11  and  C_12 
REMARK    4  A    between atoms: C_12  and  C_13 
REMARK    5  A    between atoms: C_13  and  C_14 
REMARK    6  A    between atoms: C_14  and  O_15 
REMARK    7  A    between atoms: C_14  and  C_16 
ROOT
HETATM    1  N   UNL     1      28.105  52.437  40.001  1.00  0.00    -0.337 N 
HETATM    2  C   UNL     1      28.105  51.506  38.993  1.00  0.00     0.316 C 
HETATM    3  N   UNL     1      27.114  50.579  39.149  1.00  0.00    -0.339 N 
HETATM    4  O   UNL     1      28.850  51.569  38.020  1.00  0.00    -0.247 OA
HETATM    5  H   UNL     1      27.663  52.128  40.855  1.00  0.00     0.164 HD
HETATM    6  H   UNL     1      26.803  50.393  40.092  1.00  0.00     0.164 HD
ENDROOT
BRANCH   1   7
HETATM    7  C   UNL     1      29.165  53.417  40.139  1.00  0.00     0.183 C 
BRANCH   7   8
HETATM    8  C   UNL     1      30.402  52.827  40.718  1.00  0.00     0.044 A 
HETATM    9  N   UNL     1      31.415  52.298  39.931  1.00  0.00    -0.343 N 
HETATM   10  C   UNL     1      32.394  51.807  40.672  1.00  0.00     0.112 A 
HETATM   11  H   UNL     1      31.403  52.357  38.906  1.00  0.00     0.167 HD
HETATM   12  N   UNL     1      32.062  51.997  41.965  1.00  0.00    -0.311 N 
HETATM   13  C   UNL     1      33.660  51.148  40.277  1.00  0.00     0.049 A 
HETATM   14  C   UNL     1      32.886  51.590  43.015  1.00  0.00     0.014 A 
HETATM   15  C   UNL     1      30.828  52.636  42.015  1.00  0.00     0.125 A 
HETATM   16  C   UNL     1      32.493  51.824  44.442  1.00  0.00     0.068 C 
HETATM   17  C   UNL     1      34.043  50.983  42.666  1.00  0.00     0.025 A 
HETATM   18  C   UNL     1      34.453  50.748  41.285  1.00  0.00     0.006 A 
ENDBRANCH   7   8
ENDBRANCH   1   7
BRANCH   3  19
HETATM   19  C   UNL     1      26.918  49.493  38.194  1.00  0.00     0.085 C 
HETATM   20  C   UNL     1      25.431  49.336  37.888  1.00  0.00     0.032 C 
BRANCH  19  21
HETATM   21  C   UNL     1      27.629  48.184  38.605  1.00  0.00     0.063 C 
BRANCH  21  22
HETATM   22  C   UNL     1      29.159  48.126  38.546  1.00  0.00     0.177 C 
BRANCH  22  23
HETATM   23  O   UNL     1      29.600  46.893  37.984  1.00  0.00    -0.389 OA
HETATM   24  H   UNL     1      28.850  46.520  37.490  1.00  0.00     0.210 HD
ENDBRANCH  22  23
BRANCH  22  25
HETATM   25  C   UNL     1      29.842  48.296  39.859  1.00  0.00     0.081 A 
HETATM   26  O   UNL     1      29.087  48.792  40.885  1.00  0.00    -0.324 OA
HETATM   27  C   UNL     1      29.911  48.937  41.955  1.00  0.00     0.142 A 
HETATM   28  C   UNL     1      31.183  48.519  41.644  1.00  0.00     0.027 A 
HETATM   29  C   UNL     1      31.141  48.105  40.292  1.00  0.00     0.037 A 
ENDBRANCH  22  25
ENDBRANCH  21  22
ENDBRANCH  19  21
ENDBRANCH   3  19
TORSDOF 7
ENDMDL
MODEL 10
REMARK VINA RESULT:      -7.5      2.163      4.862
REMARK  7 active torsions:
REMARK  status: ('A' for Active; 'I' for Inactive)
REMARK    1  A    between atoms: C_7  and  C_8 
REMARK    2  A    between atoms: C_8  and  N_9 
REMARK       I    between atoms: N_9  and  C_10 
REMARK       I    between atoms: C_10  and  N_11 
REMARK    3  A    between atoms: N_11  and  C_12 
REMARK    4  A    between atoms: C_12  and  C_13 
REMARK    5  A    between atoms: C_13  and  C_14 
REMARK    6  A    between atoms: C_14  and  O_15 
REMARK    7  A    between atoms: C_14  and  C_16 
ROOT
HETATM    1  N   UNL     1      28.222  43.982  51.611  1.00  0.00    -0.337 N 
HETATM    2  C   UNL     1      26.862  44.162  51.650  1.00  0.00     0.316 C 
HETATM    3  N   UNL     1      26.468  45.262  50.942  1.00  0.00    -0.339 N 
HETATM    4  O   UNL     1      26.093  43.365  52.178  1.00  0.00    -0.247 OA
HETATM    5  H   UNL     1      28.748  44.819  51.408  1.00  0.00     0.164 HD
HETATM    6  H   UNL     1      27.137  46.014  50.852  1.00  0.00     0.164 HD
ENDROOT
BRANCH   1   7
HETATM    7  C   UNL     1      28.885  42.981  52.424  1.00  0.00     0.183 C 
BRANCH   7   8
HETATM    8  C   UNL     1      29.331  43.527  53.734  1.00  0.00     0.044 A 
HETATM    9  N   UNL     1      30.400  42.994  54.439  1.00  0.00    -0.343 N 
HETATM   10  C   UNL     1      30.585  43.627  55.586  1.00  0.00     0.112 A 
HETATM   11  H   UNL     1      30.993  42.246  54.058  1.00  0.00     0.167 HD
HETATM   12  N   UNL     1      29.650  44.594  55.673  1.00  0.00    -0.311 N 
HETATM   13  C   UNL     1      31.588  43.407  56.653  1.00  0.00     0.049 A 
HETATM   14  C   UNL     1      29.565  45.453  56.769  1.00  0.00     0.014 A 
HETATM   15  C   UNL     1      28.863  44.552  54.527  1.00  0.00     0.125 A 
HETATM   16  C   UNL     1      28.520  46.525  56.832  1.00  0.00     0.068 C 
HETATM   17  C   UNL     1      30.472  45.258  57.752  1.00  0.00     0.025 A 
HETATM   18  C   UNL     1      31.504  44.226  57.714  1.00  0.00     0.006 A 
ENDBRANCH   7   8
ENDBRANCH   1   7
BRANCH   3  19
HETATM   19  C   UNL     1      25.065  45.650  50.837  1.00  0.00     0.085 C 
HETATM   20  C   UNL     1      24.397  44.875  49.706  1.00  0.00     0.032 C 
BRANCH  19  21
HETATM   21  C   UNL     1      24.860  47.180  50.774  1.00  0.00     0.063 C 
BRANCH  21  22
HETATM   22  C   UNL     1      25.377  47.944  49.550  1.00  0.00     0.177 C 
BRANCH  22  23
HETATM   23  O   UNL     1      26.503  48.747  49.892  1.00  0.00    -0.389 OA
HETATM   24  H   UNL     1      27.089  48.200  50.443  1.00  0.00     0.210 HD
ENDBRANCH  22  23
BRANCH  22  25
HETATM   25  C   UNL     1      24.373  48.827  48.894  1.00  0.00     0.081 A 
HETATM   26  O   UNL     1      23.136  48.289  48.667  1.00  0.00    -0.324 OA
HETATM   27  C   UNL     1      22.409  49.223  48.002  1.00  0.00     0.142 A 
HETATM   28  C   UNL     1      23.148  50.367  47.817  1.00  0.00     0.027 A 
HETATM   29  C   UNL     1      24.415  50.113  48.391  1.00  0.00     0.037 A 
ENDBRANCH  22  25
ENDBRANCH  21  22
ENDBRANCH  19  21
ENDBRANCH   3  19
TORSDOF 7
ENDMDL
