MODEL 1
REMARK VINA RESULT:     -10.2      0.000      0.000
REMARK  3 active torsions:
REMARK  status: ('A' for Active; 'I' for Inactive)
REMARK    1  A    between atoms: C_8  and  C_9 
REMARK       I    between atoms: C_9  and  N_10 
REMARK    2  A    between atoms: N_10  and  N_11 
REMARK    3  A    between atoms: N_11  and  C_12 
ROOT
HETATM    1  C   UNL     1      27.570  44.663  52.785  1.00  0.00     0.276 C 
HETATM    2  N   UNL     1      26.331  45.245  52.664  1.00  0.00    -0.264 N 
HETATM    3  O   UNL     1      28.053  43.976  51.882  1.00  0.00    -0.266 OA
HETATM    4  H   UNL     1      25.865  45.796  53.393  1.00  0.00     0.190 HD
ENDROOT
BRANCH   2   5
HETATM    5  N   UNL     1      25.636  45.041  51.467  1.00  0.00    -0.275 N 
HETATM    6  H   UNL     1      25.113  44.162  51.447  1.00  0.00     0.189 HD
BRANCH   5   7
HETATM    7  C   UNL     1      25.196  46.075  50.713  1.00  0.00     0.187 A 
HETATM    8  S   UNL     1      26.237  47.402  50.382  1.00  0.00    -0.048 SA
HETATM    9  C   UNL     1      24.990  48.169  49.481  1.00  0.00     0.043 A 
HETATM   10  C   UNL     1      23.854  47.354  49.491  1.00  0.00     0.115 A 
HETATM   11  C   UNL     1      25.015  49.406  48.814  1.00  0.00     0.063 A 
HETATM   12  N   UNL     1      23.995  46.164  50.190  1.00  0.00    -0.219 NA
HETATM   13  C   UNL     1      22.707  47.813  48.806  1.00  0.00     0.149 A 
HETATM   14  C   UNL     1      22.710  49.038  48.142  1.00  0.00     0.087 A 
HETATM   15  F   UNL     1      21.588  47.074  48.784  1.00  0.00    -0.203 F 
HETATM   16  C   UNL     1      23.857  49.813  48.154  1.00  0.00     0.120 A 
HETATM   17  F   UNL     1      23.857  50.989  47.513  1.00  0.00    -0.206 F 
ENDBRANCH   5   7
ENDBRANCH   2   5
BRANCH   1  18
HETATM   18  C   UNL     1      28.299  44.908  54.065  1.00  0.00     0.110 A 
HETATM   19  C   UNL     1      28.033  46.079  54.928  1.00  0.00     0.304 A 
HETATM   20  O   UNL     1      28.780  46.197  56.098  1.00  0.00    -0.274 OA
HETATM   21  O   UNL     1      27.188  46.920  54.636  1.00  0.00    -0.259 OA
HETATM   22  C   UNL     1      29.759  45.250  56.444  1.00  0.00     0.089 A 
HETATM   23  C   UNL     1      30.007  44.155  55.625  1.00  0.00    -0.001 A 
HETATM   24  C   UNL     1      30.466  45.454  57.627  1.00  0.00     0.038 A 
HETATM   25  C   UNL     1      30.991  43.239  56.001  1.00  0.00     0.014 A 
HETATM   26  C   UNL     1      29.234  44.004  54.405  1.00  0.00     0.037 A 
HETATM   27  C   UNL     1      31.710  43.431  57.185  1.00  0.00     0.001 A 
HETATM   28  C   UNL     1      31.447  44.537  57.996  1.00  0.00     0.003 A 
ENDBRANCH   1  18
TORSDOF 3
ENDMDL
MODEL 2
REMARK VINA RESULT:     -10.1      1.784      2.753
REMARK  3 active torsions:
REMARK  status: ('A' for Active; 'I' for Inactive)
REMARK    1  A    between atoms: C_8  and  C_9 
REMARK       I    between atoms: C_9  and  N_10 
REMARK    2  A    between atoms: N_10  and  N_11 
REMARK    3  A    between atoms: N_11  and  C_12 
ROOT
HETATM    1  C   UNL     1      27.138  44.331  53.011  1.00  0.00     0.276 C 
HETATM    2  N   UNL     1      27.446  44.495  51.682  1.00  0.00    -0.264 N 
HETATM    3  O   UNL     1      25.971  44.329  53.409  1.00  0.00    -0.266 OA
HETATM    4  H   UNL     1      28.397  44.540  51.299  1.00  0.00     0.190 HD
ENDROOT
BRANCH   2   5
HETATM    5  N   UNL     1      26.383  44.646  50.786  1.00  0.00    -0.275 N 
HETATM    6  H   UNL     1      25.639  43.955  50.921  1.00  0.00     0.189 HD
BRANCH   5   7
HETATM    7  C   UNL     1      26.063  45.847  50.254  1.00  0.00     0.187 A 
HETATM    8  S   UNL     1      24.418  46.247  49.959  1.00  0.00    -0.048 SA
HETATM    9  C   UNL     1      24.891  47.776  49.330  1.00  0.00     0.043 A 
HETATM   10  C   UNL     1      26.283  47.880  49.389  1.00  0.00     0.115 A 
HETATM   11  C   UNL     1      24.086  48.808  48.818  1.00  0.00     0.063 A 
HETATM   12  N   UNL     1      26.931  46.776  49.926  1.00  0.00    -0.219 NA
HETATM   13  C   UNL     1      26.877  49.069  48.908  1.00  0.00     0.149 A 
HETATM   14  C   UNL     1      26.096  50.103  48.393  1.00  0.00     0.087 A 
HETATM   15  F   UNL     1      28.208  49.224  48.937  1.00  0.00    -0.203 F 
HETATM   16  C   UNL     1      24.720  49.959  48.356  1.00  0.00     0.120 A 
HETATM   17  F   UNL     1      23.973  50.955  47.862  1.00  0.00    -0.206 F 
ENDBRANCH   5   7
ENDBRANCH   2   5
BRANCH   1  18
HETATM   18  C   UNL     1      28.290  44.156  53.946  1.00  0.00     0.110 A 
HETATM   19  C   UNL     1      29.323  43.115  53.759  1.00  0.00     0.304 A 
HETATM   20  O   UNL     1      30.348  43.052  54.700  1.00  0.00    -0.274 OA
HETATM   21  O   UNL     1      29.290  42.332  52.814  1.00  0.00    -0.259 OA
HETATM   22  C   UNL     1      30.397  43.932  55.795  1.00  0.00     0.089 A 
HETATM   23  C   UNL     1      29.419  44.904  55.966  1.00  0.00    -0.001 A 
HETATM   24  C   UNL     1      31.452  43.789  56.692  1.00  0.00     0.038 A 
HETATM   25  C   UNL     1      29.500  45.757  57.069  1.00  0.00     0.014 A 
HETATM   26  C   UNL     1      28.346  44.997  54.993  1.00  0.00     0.037 A 
HETATM   27  C   UNL     1      30.553  45.625  57.980  1.00  0.00     0.001 A 
HETATM   28  C   UNL     1      31.528  44.642  57.791  1.00  0.00     0.003 A 
ENDBRANCH   1  18
TORSDOF 3
ENDMDL
MODEL 3
REMARK VINA RESULT:     -10.0      4.034      9.165
REMARK  3 active torsions:
REMARK  status: ('A' for Active; 'I' for Inactive)
REMARK    1  A    between atoms: C_8  and  C_9 
REMARK       I    between atoms: C_9  and  N_10 
REMARK    2  A    between atoms: N_10  and  N_11 
REMARK    3  A    between atoms: N_11  and  C_12 
ROOT
HETATM    1  C   UNL     1      26.452  45.871  50.219  1.00  0.00     0.276 C 
HETATM    2  N   UNL     1      26.138  45.530  51.513  1.00  0.00    -0.264 N 
HETATM    3  O   UNL     1      27.190  45.168  49.526  1.00  0.00    -0.266 OA
HETATM    4  H   UNL     1      25.559  46.092  52.146  1.00  0.00     0.190 HD
ENDROOT
BRANCH   2   5
HETATM    5  N   UNL     1      26.677  44.341  52.016  1.00  0.00    -0.275 N 
HETATM    6  H   UNL     1      26.658  43.571  51.343  1.00  0.00     0.189 HD
BRANCH   5   7
HETATM    7  C   UNL     1      27.631  44.342  52.975  1.00  0.00     0.187 A 
HETATM    8  S   UNL     1      28.861  43.141  52.965  1.00  0.00    -0.048 SA
HETATM    9  C   UNL     1      29.548  43.816  54.389  1.00  0.00     0.043 A 
HETATM   10  C   UNL     1      28.789  44.923  54.779  1.00  0.00     0.115 A 
HETATM   11  C   UNL     1      30.678  43.394  55.110  1.00  0.00     0.063 A 
HETATM   12  N   UNL     1      27.708  45.210  53.957  1.00  0.00    -0.219 NA
HETATM   13  C   UNL     1      29.187  45.620  55.941  1.00  0.00     0.149 A 
HETATM   14  C   UNL     1      30.303  45.215  56.673  1.00  0.00     0.087 A 
HETATM   15  F   UNL     1      28.495  46.687  56.365  1.00  0.00    -0.203 F 
HETATM   16  C   UNL     1      31.029  44.116  56.249  1.00  0.00     0.120 A 
HETATM   17  F   UNL     1      32.100  43.731  56.955  1.00  0.00    -0.206 F 
ENDBRANCH   5   7
ENDBRANCH   2   5
BRANCH   1  18
HETATM   18  C   UNL     1      25.851  47.135  49.698  1.00  0.00     0.110 A 
HETATM   19  C   UNL     1      26.666  48.284  49.247  1.00  0.00     0.304 A 
HETATM   20  O   UNL     1      25.989  49.409  48.783  1.00  0.00    -0.274 OA
HETATM   21  O   UNL     1      27.893  48.258  49.276  1.00  0.00    -0.259 OA
HETATM   22  C   UNL     1      24.584  49.462  48.754  1.00  0.00     0.089 A 
HETATM   23  C   UNL     1      23.825  48.380  49.184  1.00  0.00    -0.001 A 
HETATM   24  C   UNL     1      23.992  50.631  48.284  1.00  0.00     0.038 A 
HETATM   25  C   UNL     1      22.433  48.473  49.144  1.00  0.00     0.014 A 
HETATM   26  C   UNL     1      24.509  47.192  49.663  1.00  0.00     0.037 A 
HETATM   27  C   UNL     1      21.823  49.641  48.676  1.00  0.00     0.001 A 
HETATM   28  C   UNL     1      22.601  50.718  48.246  1.00  0.00     0.003 A 
ENDBRANCH   1  18
TORSDOF 3
ENDMDL
MODEL 4
REMARK VINA RESULT:     -10.0      2.084      3.051
REMARK  3 active torsions:
REMARK  status: ('A' for Active; 'I' for Inactive)
REMARK    1  A    between atoms: C_8  and  C_9 
REMARK       I    between atoms: C_9  and  N_10 
REMARK    2  A    between atoms: N_10  and  N_11 
REMARK    3  A    between atoms: N_11  and  C_12 
ROOT
HETATM    1  C   UNL     1      25.170  45.512  51.815  1.00  0.00     0.276 C 
HETATM    2  N   UNL     1      25.207  46.392  50.760  1.00  0.00    -0.264 N 
HETATM    3  O   UNL     1      24.339  44.603  51.870  1.00  0.00    -0.266 OA
HETATM    4  H   UNL     1      25.851  47.186  50.678  1.00  0.00     0.190 HD
ENDROOT
BRANCH   2   5
HETATM    5  N   UNL     1      24.272  46.212  49.735  1.00  0.00    -0.275 N 
HETATM    6  H   UNL     1      23.952  45.244  49.646  1.00  0.00     0.189 HD
BRANCH   5   7
HETATM    7  C   UNL     1      23.447  47.208  49.340  1.00  0.00     0.187 A 
HETATM    8  S   UNL     1      22.091  46.856  48.344  1.00  0.00    -0.048 SA
HETATM    9  C   UNL     1      21.665  48.522  48.317  1.00  0.00     0.043 A 
HETATM   10  C   UNL     1      22.592  49.240  49.077  1.00  0.00     0.115 A 
HETATM   11  C   UNL     1      20.588  49.147  47.667  1.00  0.00     0.063 A 
HETATM   12  N   UNL     1      23.593  48.473  49.658  1.00  0.00    -0.219 NA
HETATM   13  C   UNL     1      22.422  50.639  49.176  1.00  0.00     0.149 A 
HETATM   14  C   UNL     1      21.362  51.279  48.536  1.00  0.00     0.087 A 
HETATM   15  F   UNL     1      23.282  51.380  49.890  1.00  0.00    -0.203 F 
HETATM   16  C   UNL     1      20.464  50.529  47.796  1.00  0.00     0.120 A 
HETATM   17  F   UNL     1      19.447  51.148  47.183  1.00  0.00    -0.206 F 
ENDBRANCH   5   7
ENDBRANCH   2   5
BRANCH   1  18
HETATM   18  C   UNL     1      26.189  45.715  52.888  1.00  0.00     0.110 A 
HETATM   19  C   UNL     1      26.248  46.939  53.717  1.00  0.00     0.304 A 
HETATM   20  O   UNL     1      27.245  47.010  54.686  1.00  0.00    -0.274 OA
HETATM   21  O   UNL     1      25.454  47.863  53.564  1.00  0.00    -0.259 OA
HETATM   22  C   UNL     1      28.171  45.968  54.867  1.00  0.00     0.089 A 
HETATM   23  C   UNL     1      28.112  44.824  54.082  1.00  0.00    -0.001 A 
HETATM   24  C   UNL     1      29.141  46.130  55.853  1.00  0.00     0.038 A 
HETATM   25  C   UNL     1      29.052  43.812  54.289  1.00  0.00     0.014 A 
HETATM   26  C   UNL     1      27.074  44.721  53.071  1.00  0.00     0.037 A 
HETATM   27  C   UNL     1      30.033  43.960  55.274  1.00  0.00     0.001 A 
HETATM   28  C   UNL     1      30.077  45.118  56.055  1.00  0.00     0.003 A 
ENDBRANCH   1  18
TORSDOF 3
ENDMDL
MODEL 5
REMARK VINA RESULT:     -10.0      5.508      6.860
REMARK  3 active torsions:
REMARK  status: ('A' for Active; 'I' for Inactive)
REMARK    1  A    between atoms: C_8  and  C_9 
REMARK       I    between atoms: C_9  and  N_10 
REMARK    2  A    between atoms: N_10  and  N_11 
REMARK    3  A    between atoms: N_11  and  C_12 
ROOT
HETATM    1  C   UNL     1      27.766  43.801  52.693  1.00  0.00     0.276 C 
HETATM    2  N   UNL     1      26.925  42.721  52.818  1.00  0.00    -0.264 N 
HETATM    3  O   UNL     1      27.981  44.329  51.599  1.00  0.00    -0.266 OA
HETATM    4  H   UNL     1      26.736  42.220  53.693  1.00  0.00     0.190 HD
ENDROOT
BRANCH   2   5
HETATM    5  N   UNL     1      26.306  42.246  51.658  1.00  0.00    -0.275 N 
HETATM    6  H   UNL     1      25.668  42.924  51.233  1.00  0.00     0.189 HD
BRANCH   5   7
HETATM    7  C   UNL     1      26.892  41.321  50.864  1.00  0.00     0.187 A 
HETATM    8  S   UNL     1      26.368  41.126  49.238  1.00  0.00    -0.048 SA
HETATM    9  C   UNL     1      27.516  39.868  49.007  1.00  0.00     0.043 A 
HETATM   10  C   UNL     1      28.230  39.681  50.194  1.00  0.00     0.115 A 
HETATM   11  C   UNL     1      27.766  39.100  47.857  1.00  0.00     0.063 A 
HETATM   12  N   UNL     1      27.866  40.523  51.235  1.00  0.00    -0.219 NA
HETATM   13  C   UNL     1      29.226  38.678  50.214  1.00  0.00     0.149 A 
HETATM   14  C   UNL     1      29.486  37.903  49.085  1.00  0.00     0.087 A 
HETATM   15  F   UNL     1      29.940  38.451  51.326  1.00  0.00    -0.203 F 
HETATM   16  C   UNL     1      28.757  38.124  47.929  1.00  0.00     0.120 A 
HETATM   17  F   UNL     1      29.011  37.378  46.846  1.00  0.00    -0.206 F 
ENDBRANCH   5   7
ENDBRANCH   2   5
BRANCH   1  18
HETATM   18  C   UNL     1      28.403  44.300  53.948  1.00  0.00     0.110 A 
HETATM   19  C   UNL     1      27.986  45.552  54.615  1.00  0.00     0.304 A 
HETATM   20  O   UNL     1      28.658  45.913  55.780  1.00  0.00    -0.274 OA
HETATM   21  O   UNL     1      27.084  46.255  54.168  1.00  0.00    -0.259 OA
HETATM   22  C   UNL     1      29.701  45.127  56.301  1.00  0.00     0.089 A 
HETATM   23  C   UNL     1      30.090  43.954  55.665  1.00  0.00    -0.001 A 
HETATM   24  C   UNL     1      30.324  45.570  57.465  1.00  0.00     0.038 A 
HETATM   25  C   UNL     1      31.133  43.203  56.211  1.00  0.00     0.014 A 
HETATM   26  C   UNL     1      29.398  43.552  54.454  1.00  0.00     0.037 A 
HETATM   27  C   UNL     1      31.770  43.636  57.379  1.00  0.00     0.001 A 
HETATM   28  C   UNL     1      31.365  44.817  58.005  1.00  0.00     0.003 A 
ENDBRANCH   1  18
TORSDOF 3
ENDMDL
MODEL 6
REMARK VINA RESULT:      -9.7      4.057      9.163
REMARK  3 active torsions:
REMARK  status: ('A' for Active; 'I' for Inactive)
REMARK    1  A    between atoms: C_8  and  C_9 
REMARK       I    between atoms: C_9  and  N_10 
REMARK    2  A    between atoms: N_10  and  N_11 
REMARK    3  A    between atoms: N_11  and  C_12 
ROOT
HETATM    1  C   UNL     1      25.458  44.614  51.620  1.00  0.00     0.276 C 
HETATM    2  N   UNL     1      26.806  44.446  51.410  1.00  0.00    -0.264 N 
HETATM    3  O   UNL     1      24.821  43.865  52.364  1.00  0.00    -0.266 OA
HETATM    4  H   UNL     1      27.379  45.014  50.777  1.00  0.00     0.190 HD
ENDROOT
BRANCH   2   5
HETATM    5  N   UNL     1      27.439  43.398  52.086  1.00  0.00    -0.275 N 
HETATM    6  H   UNL     1      27.626  42.587  51.491  1.00  0.00     0.189 HD
BRANCH   5   7
HETATM    7  C   UNL     1      28.243  43.619  53.152  1.00  0.00     0.187 A 
HETATM    8  S   UNL     1      29.452  42.472  53.569  1.00  0.00    -0.048 SA
HETATM    9  C   UNL     1      29.928  43.444  54.905  1.00  0.00     0.043 A 
HETATM   10  C   UNL     1      29.128  44.588  54.943  1.00  0.00     0.115 A 
HETATM   11  C   UNL     1      30.938  43.207  55.854  1.00  0.00     0.063 A 
HETATM   12  N   UNL     1      28.181  44.673  53.931  1.00  0.00    -0.219 NA
HETATM   13  C   UNL     1      29.356  45.520  55.980  1.00  0.00     0.149 A 
HETATM   14  C   UNL     1      30.350  45.303  56.933  1.00  0.00     0.087 A 
HETATM   15  F   UNL     1      28.617  46.635  56.067  1.00  0.00    -0.203 F 
HETATM   16  C   UNL     1      31.123  44.157  56.857  1.00  0.00     0.120 A 
HETATM   17  F   UNL     1      32.077  43.952  57.774  1.00  0.00    -0.206 F 
ENDBRANCH   5   7
ENDBRANCH   2   5
BRANCH   1  18
HETATM   18  C   UNL     1      24.808  45.749  50.899  1.00  0.00     0.110 A 
HETATM   19  C   UNL     1      25.057  47.165  51.244  1.00  0.00     0.304 A 
HETATM   20  O   UNL     1      24.389  48.134  50.499  1.00  0.00    -0.274 OA
HETATM   21  O   UNL     1      25.820  47.486  52.150  1.00  0.00    -0.259 OA
HETATM   22  C   UNL     1      23.501  47.786  49.466  1.00  0.00     0.089 A 
HETATM   23  C   UNL     1      23.269  46.452  49.152  1.00  0.00    -0.001 A 
HETATM   24  C   UNL     1      22.869  48.821  48.781  1.00  0.00     0.038 A 
HETATM   25  C   UNL     1      22.377  46.146  48.122  1.00  0.00     0.014 A 
HETATM   26  C   UNL     1      23.961  45.423  49.907  1.00  0.00     0.037 A 
HETATM   27  C   UNL     1      21.733  47.174  47.426  1.00  0.00     0.001 A 
HETATM   28  C   UNL     1      21.980  48.509  47.755  1.00  0.00     0.003 A 
ENDBRANCH   1  18
TORSDOF 3
ENDMDL
MODEL 7
REMARK VINA RESULT:      -9.6      1.653      2.420
REMARK  3 active torsions:
REMARK  status: ('A' for Active; 'I' for Inactive)
REMARK    1  A    between atoms: C_8  and  C_9 
REMARK       I    between atoms: C_9  and  N_10 
REMARK    2  A    between atoms: N_10  and  N_11 
REMARK    3  A    between atoms: N_11  and  C_12 
ROOT
HETATM    1  C   UNL     1      25.719  44.164  52.290  1.00  0.00     0.276 C 
HETATM    2  N   UNL     1      25.827  44.443  50.949  1.00  0.00    -0.264 N 
HETATM    3  O   UNL     1      24.624  44.128  52.856  1.00  0.00    -0.266 OA
HETATM    4  H   UNL     1      26.711  44.521  50.433  1.00  0.00     0.190 HD
ENDROOT
BRANCH   2   5
HETATM    5  N   UNL     1      24.645  44.674  50.239  1.00  0.00    -0.275 N 
HETATM    6  H   UNL     1      23.887  44.036  50.497  1.00  0.00     0.189 HD
BRANCH   5   7
HETATM    7  C   UNL     1      24.328  45.898  49.760  1.00  0.00     0.187 A 
HETATM    8  S   UNL     1      25.405  47.217  49.992  1.00  0.00    -0.048 SA
HETATM    9  C   UNL     1      24.315  48.265  49.173  1.00  0.00     0.043 A 
HETATM   10  C   UNL     1      23.195  47.533  48.772  1.00  0.00     0.115 A 
HETATM   11  C   UNL     1      24.443  49.639  48.906  1.00  0.00     0.063 A 
HETATM   12  N   UNL     1      23.225  46.186  49.108  1.00  0.00    -0.219 NA
HETATM   13  C   UNL     1      22.169  48.219  48.083  1.00  0.00     0.149 A 
HETATM   14  C   UNL     1      22.276  49.582  47.812  1.00  0.00     0.087 A 
HETATM   15  F   UNL     1      21.070  47.568  47.678  1.00  0.00    -0.203 F 
HETATM   16  C   UNL     1      23.405  50.269  48.224  1.00  0.00     0.120 A 
HETATM   17  F   UNL     1      23.503  51.578  47.960  1.00  0.00    -0.206 F 
ENDBRANCH   5   7
ENDBRANCH   2   5
BRANCH   1  18
HETATM   18  C   UNL     1      26.994  43.905  53.023  1.00  0.00     0.110 A 
HETATM   19  C   UNL     1      27.779  42.663  52.854  1.00  0.00     0.304 A 
HETATM   20  O   UNL     1      28.951  42.539  53.594  1.00  0.00    -0.274 OA
HETATM   21  O   UNL     1      27.420  41.770  52.092  1.00  0.00    -0.259 OA
HETATM   22  C   UNL     1      29.372  43.546  54.480  1.00  0.00     0.089 A 
HETATM   23  C   UNL     1      28.627  44.708  54.638  1.00  0.00    -0.001 A 
HETATM   24  C   UNL     1      30.552  43.332  55.188  1.00  0.00     0.038 A 
HETATM   25  C   UNL     1      29.075  45.684  55.530  1.00  0.00     0.014 A 
HETATM   26  C   UNL     1      27.405  44.866  53.869  1.00  0.00     0.037 A 
HETATM   27  C   UNL     1      30.257  45.483  56.250  1.00  0.00     0.001 A 
HETATM   28  C   UNL     1      30.995  44.309  56.078  1.00  0.00     0.003 A 
ENDBRANCH   1  18
TORSDOF 3
ENDMDL
MODEL 8
REMARK VINA RESULT:      -9.3      4.605      9.928
REMARK  3 active torsions:
REMARK  status: ('A' for Active; 'I' for Inactive)
REMARK    1  A    between atoms: C_8  and  C_9 
REMARK       I    between atoms: C_9  and  N_10 
REMARK    2  A    between atoms: N_10  and  N_11 
REMARK    3  A    between atoms: N_11  and  C_12 
ROOT
HETATM    1  C   UNL     1      22.590  47.127  48.438  1.00  0.00     0.276 C 
HETATM    2  N   UNL     1      23.220  46.728  49.593  1.00  0.00    -0.264 N 
HETATM    3  O   UNL     1      22.600  46.428  47.422  1.00  0.00    -0.266 OA
HETATM    4  H   UNL     1      23.275  47.281  50.455  1.00  0.00     0.190 HD
ENDROOT
BRANCH   2   5
HETATM    5  N   UNL     1      23.865  45.487  49.582  1.00  0.00    -0.275 N 
HETATM    6  H   UNL     1      24.006  45.113  48.639  1.00  0.00     0.189 HD
BRANCH   5   7
HETATM    7  C   UNL     1      24.725  45.121  50.560  1.00  0.00     0.187 A 
HETATM    8  S   UNL     1      26.371  44.802  50.183  1.00  0.00    -0.048 SA
HETATM    9  C   UNL     1      26.687  44.430  51.831  1.00  0.00     0.043 A 
HETATM   10  C   UNL     1      25.507  44.577  52.565  1.00  0.00     0.115 A 
HETATM   11  C   UNL     1      27.895  44.033  52.431  1.00  0.00     0.063 A 
HETATM   12  N   UNL     1      24.404  44.980  51.825  1.00  0.00    -0.219 NA
HETATM   13  C   UNL     1      25.554  44.309  53.952  1.00  0.00     0.149 A 
HETATM   14  C   UNL     1      26.742  43.911  54.565  1.00  0.00     0.087 A 
HETATM   15  F   UNL     1      24.453  44.431  54.706  1.00  0.00    -0.203 F 
HETATM   16  C   UNL     1      27.889  43.780  53.801  1.00  0.00     0.120 A 
HETATM   17  F   UNL     1      29.027  43.399  54.395  1.00  0.00    -0.206 F 
ENDBRANCH   5   7
ENDBRANCH   2   5
BRANCH   1  18
HETATM   18  C   UNL     1      21.895  48.448  48.480  1.00  0.00     0.110 A 
HETATM   19  C   UNL     1      22.473  49.677  47.895  1.00  0.00     0.304 A 
HETATM   20  O   UNL     1      21.727  50.848  47.998  1.00  0.00    -0.274 OA
HETATM   21  O   UNL     1      23.566  49.676  47.337  1.00  0.00    -0.259 OA
HETATM   22  C   UNL     1      20.479  50.872  48.644  1.00  0.00     0.089 A 
HETATM   23  C   UNL     1      19.945  49.714  49.196  1.00  0.00    -0.001 A 
HETATM   24  C   UNL     1      19.808  52.091  48.710  1.00  0.00     0.038 A 
HETATM   25  C   UNL     1      18.704  49.778  49.833  1.00  0.00     0.014 A 
HETATM   26  C   UNL     1      20.698  48.476  49.092  1.00  0.00     0.037 A 
HETATM   27  C   UNL     1      18.019  50.994  49.909  1.00  0.00     0.001 A 
HETATM   28  C   UNL     1      18.571  52.149  49.347  1.00  0.00     0.003 A 
ENDBRANCH   1  18
TORSDOF 3
ENDMDL
MODEL 9
REMARK VINA RESULT:      -9.2      5.808      6.852
REMARK  3 active torsions:
REMARK  status: ('A' for Active; 'I' for Inactive)
REMARK    1  A    between atoms: C_8  and  C_9 
REMARK       I    between atoms: C_9  and  N_10 
REMARK    2  A    between atoms: N_10  and  N_11 
REMARK    3  A    between atoms: N_11  and  C_12 
ROOT
HETATM    1  C   UNL     1      27.974  41.179  52.330  1.00  0.00     0.276 C 
HETATM    2  N   UNL     1      26.672  41.020  51.921  1.00  0.00    -0.264 N 
HETATM    3  O   UNL     1      28.853  40.373  52.015  1.00  0.00    -0.266 OA
HETATM    4  H   UNL     1      25.894  41.637  52.181  1.00  0.00     0.190 HD
ENDROOT
BRANCH   2   5
HETATM    5  N   UNL     1      26.376  39.913  51.119  1.00  0.00    -0.275 N 
HETATM    6  H   UNL     1      25.522  39.426  51.402  1.00  0.00     0.189 HD
BRANCH   5   7
HETATM    7  C   UNL     1      26.763  39.847  49.825  1.00  0.00     0.187 A 
HETATM    8  S   UNL     1      26.709  41.253  48.838  1.00  0.00    -0.048 SA
HETATM    9  C   UNL     1      27.291  40.348  47.498  1.00  0.00     0.043 A 
HETATM   10  C   UNL     1      27.491  39.023  47.896  1.00  0.00     0.115 A 
HETATM   11  C   UNL     1      27.549  40.780  46.185  1.00  0.00     0.063 A 
HETATM   12  N   UNL     1      27.193  38.761  49.226  1.00  0.00    -0.219 NA
HETATM   13  C   UNL     1      27.964  38.108  46.929  1.00  0.00     0.149 A 
HETATM   14  C   UNL     1      28.223  38.516  45.621  1.00  0.00     0.087 A 
HETATM   15  F   UNL     1      28.171  36.823  47.253  1.00  0.00    -0.203 F 
HETATM   16  C   UNL     1      28.014  39.838  45.270  1.00  0.00     0.120 A 
HETATM   17  F   UNL     1      28.266  40.226  44.013  1.00  0.00    -0.206 F 
ENDBRANCH   5   7
ENDBRANCH   2   5
BRANCH   1  18
HETATM   18  C   UNL     1      28.268  42.377  53.172  1.00  0.00     0.110 A 
HETATM   19  C   UNL     1      27.467  43.618  53.107  1.00  0.00     0.304 A 
HETATM   20  O   UNL     1      27.842  44.668  53.942  1.00  0.00    -0.274 OA
HETATM   21  O   UNL     1      26.507  43.731  52.350  1.00  0.00    -0.259 OA
HETATM   22  C   UNL     1      28.945  44.562  54.807  1.00  0.00     0.089 A 
HETATM   23  C   UNL     1      29.696  43.394  54.858  1.00  0.00    -0.001 A 
HETATM   24  C   UNL     1      29.254  45.666  55.599  1.00  0.00     0.038 A 
HETATM   25  C   UNL     1      30.787  43.329  55.726  1.00  0.00     0.014 A 
HETATM   26  C   UNL     1      29.319  42.281  54.004  1.00  0.00     0.037 A 
HETATM   27  C   UNL     1      31.111  44.429  56.527  1.00  0.00     0.001 A 
HETATM   28  C   UNL     1      30.344  45.595  56.463  1.00  0.00     0.003 A 
ENDBRANCH   1  18
TORSDOF 3
ENDMDL
MODEL 10
REMARK VINA RESULT:      -9.2      4.896     10.568
REMARK  3 active torsions:
REMARK  status: ('A' for Active; 'I' for Inactive)
REMARK    1  A    between atoms: C_8  and  C_9 
REMARK       I    between atoms: C_9  and  N_10 
REMARK    2  A    between atoms: N_10  and  N_11 
REMARK    3  A    between atoms: N_11  and  C_12 
ROOT
HETATM    1  C   UNL     1      22.616  48.809  48.736  1.00  0.00     0.276 C 
HETATM    2  N   UNL     1      23.105  48.223  49.879  1.00  0.00    -0.264 N 
HETATM    3  O   UNL     1      23.335  49.007  47.753  1.00  0.00    -0.266 OA
HETATM    4  H   UNL     1      22.565  48.066  50.736  1.00  0.00     0.190 HD
ENDROOT
BRANCH   2   5
HETATM    5  N   UNL     1      24.451  47.842  49.886  1.00  0.00    -0.275 N 
HETATM    6  H   UNL     1      25.066  48.524  49.433  1.00  0.00     0.189 HD
BRANCH   5   7
HETATM    7  C   UNL     1      24.962  47.049  50.854  1.00  0.00     0.187 A 
HETATM    8  S   UNL     1      24.671  45.355  50.820  1.00  0.00    -0.048 SA
HETATM    9  C   UNL     1      25.573  45.160  52.271  1.00  0.00     0.043 A 
HETATM   10  C   UNL     1      26.041  46.410  52.686  1.00  0.00     0.115 A 
HETATM   11  C   UNL     1      25.844  43.984  52.992  1.00  0.00     0.063 A 
HETATM   12  N   UNL     1      25.690  47.470  51.862  1.00  0.00    -0.219 NA
HETATM   13  C   UNL     1      26.805  46.467  53.874  1.00  0.00     0.149 A 
HETATM   14  C   UNL     1      27.082  45.313  54.604  1.00  0.00     0.087 A 
HETATM   15  F   UNL     1      27.278  47.639  54.322  1.00  0.00    -0.203 F 
HETATM   16  C   UNL     1      26.601  44.095  54.156  1.00  0.00     0.120 A 
HETATM   17  F   UNL     1      26.871  42.988  54.860  1.00  0.00    -0.206 F 
ENDBRANCH   5   7
ENDBRANCH   2   5
BRANCH   1  18
HETATM   18  C   UNL     1      21.173  49.192  48.746  1.00  0.00     0.110 A 
HETATM   19  C   UNL     1      20.080  48.197  48.776  1.00  0.00     0.304 A 
HETATM   20  O   UNL     1      18.773  48.679  48.783  1.00  0.00    -0.274 OA
HETATM   21  O   UNL     1      20.303  46.990  48.795  1.00  0.00    -0.259 OA
HETATM   22  C   UNL     1      18.497  50.057  48.749  1.00  0.00     0.089 A 
HETATM   23  C   UNL     1      19.530  50.986  48.717  1.00  0.00    -0.001 A 
HETATM   24  C   UNL     1      17.160  50.448  48.748  1.00  0.00     0.038 A 
HETATM   25  C   UNL     1      19.216  52.346  48.680  1.00  0.00     0.014 A 
HETATM   26  C   UNL     1      20.902  50.509  48.720  1.00  0.00     0.037 A 
HETATM   27  C   UNL     1      17.878  52.755  48.676  1.00  0.00     0.001 A 
HETATM   28  C   UNL     1      16.853  51.807  48.710  1.00  0.00     0.003 A 
ENDBRANCH   1  18
TORSDOF 3
ENDMDL
