MODEL 1
REMARK VINA RESULT:      -9.9      0.000      0.000
REMARK  7 active torsions:
REMARK  status: ('A' for Active; 'I' for Inactive)
REMARK    1  A    between atoms: O_2  and  C_3 
REMARK    2  A    between atoms: C_7  and  C_8 
REMARK    3  A    between atoms: C_8  and  N_9 
REMARK       I    between atoms: N_9  and  C_10 
REMARK    4  A    between atoms: C_10  and  C_12 
REMARK    5  A    between atoms: C_17  and  C_26 
REMARK    6  A    between atoms: C_21  and  C_22 
REMARK    7  A    between atoms: C_22  and  N_23 
ROOT
HETATM    1  C   UNL     1      26.728  44.402  51.900  1.00  0.00     0.110 A 
HETATM    2  N   UNL     1      27.019  44.989  53.111  1.00  0.00    -0.351 N 
HETATM    3  H   UNL     1      26.472  45.743  53.506  1.00  0.00     0.166 HD
HETATM    4  C   UNL     1      28.136  44.435  53.680  1.00  0.00     0.044 A 
HETATM    5  C   UNL     1      28.787  44.749  54.882  1.00  0.00     0.042 A 
HETATM    6  C   UNL     1      29.922  44.005  55.240  1.00  0.00    -0.021 A 
HETATM    7  C   UNL     1      30.368  42.980  54.398  1.00  0.00     0.013 A 
HETATM    8  C   UNL     1      29.702  42.678  53.200  1.00  0.00     0.015 A 
HETATM    9  C   UNL     1      28.565  43.423  52.827  1.00  0.00     0.001 A 
HETATM   10  C   UNL     1      27.666  43.387  51.704  1.00  0.00     0.015 A 
ENDROOT
BRANCH   1  11
HETATM   11  C   UNL     1      25.595  44.858  51.123  1.00  0.00     0.269 C 
HETATM   12  N   UNL     1      25.506  46.215  50.959  1.00  0.00    -0.351 N 
HETATM   13  H   UNL     1      26.144  46.795  51.502  1.00  0.00     0.163 HD
HETATM   14  O   UNL     1      24.757  44.075  50.682  1.00  0.00    -0.266 OA
BRANCH  12  15
HETATM   15  C   UNL     1      24.404  46.848  50.286  1.00  0.00     0.161 C 
BRANCH  15  16
HETATM   16  C   UNL     1      24.842  48.028  49.457  1.00  0.00    -0.038 A 
HETATM   17  C   UNL     1      26.187  48.419  49.439  1.00  0.00     0.009 A 
HETATM   18  C   UNL     1      26.595  49.512  48.678  1.00  0.00     0.003 A 
HETATM   19  C   UNL     1      25.666  50.226  47.918  1.00  0.00     0.037 A 
HETATM   20  C   UNL     1      24.325  49.842  47.911  1.00  0.00     0.068 A 
HETATM   21  C   UNL     1      23.922  48.741  48.676  1.00  0.00     0.045 A 
BRANCH  20  22
HETATM   22  O   UNL     1      23.320  50.450  47.209  1.00  0.00    -0.356 OA
HETATM   23  C   UNL     1      22.066  50.579  47.867  1.00  0.00     0.210 C 
ENDBRANCH  20  22
ENDBRANCH  15  16
ENDBRANCH  12  15
ENDBRANCH   1  11
BRANCH  10  24
HETATM   24  C   UNL     1      27.722  42.390  50.582  1.00  0.00     0.313 C 
BRANCH  24  25
HETATM   25  N   UNL     1      27.304  41.051  51.046  1.00  0.00     0.084 N 
HETATM   26  C   UNL     1      26.033  40.648  50.427  1.00  0.00     0.309 C 
HETATM   27  C   UNL     1      28.342  40.072  50.695  1.00  0.00     0.309 C 
ENDBRANCH  24  25
ENDBRANCH  10  24
BRANCH   6  28
HETATM   28  C   UNL     1      30.642  44.293  56.471  1.00  0.00     0.010 A 
HETATM   29  C   UNL     1      31.716  43.616  57.094  1.00  0.00     0.152 A 
HETATM   30  N   UNL     1      32.097  44.189  58.239  1.00  0.00    -0.187 NA
HETATM   31  N   UNL     1      31.266  45.236  58.355  1.00  0.00    -0.289 N 
HETATM   32  H   UNL     1      31.359  45.836  59.168  1.00  0.00     0.188 HD
HETATM   33  C   UNL     1      30.377  45.343  57.325  1.00  0.00     0.123 A 
ENDBRANCH   6  28
TORSDOF 7
ENDMDL
MODEL 2
REMARK VINA RESULT:      -9.1      2.565      6.995
REMARK  7 active torsions:
REMARK  status: ('A' for Active; 'I' for Inactive)
REMARK    1  A    between atoms: O_2  and  C_3 
REMARK    2  A    between atoms: C_7  and  C_8 
REMARK    3  A    between atoms: C_8  and  N_9 
REMARK       I    between atoms: N_9  and  C_10 
REMARK    4  A    between atoms: C_10  and  C_12 
REMARK    5  A    between atoms: C_17  and  C_26 
REMARK    6  A    between atoms: C_21  and  C_22 
REMARK    7  A    between atoms: C_22  and  N_23 
ROOT
HETATM    1  C   UNL     1      27.312  43.312  51.653  1.00  0.00     0.110 A 
HETATM    2  N   UNL     1      28.387  42.911  52.415  1.00  0.00    -0.351 N 
HETATM    3  H   UNL     1      28.955  42.106  52.190  1.00  0.00     0.166 HD
HETATM    4  C   UNL     1      28.558  43.725  53.505  1.00  0.00     0.044 A 
HETATM    5  C   UNL     1      29.502  43.661  54.540  1.00  0.00     0.042 A 
HETATM    6  C   UNL     1      29.462  44.644  55.542  1.00  0.00    -0.021 A 
HETATM    7  C   UNL     1      28.493  45.651  55.480  1.00  0.00     0.013 A 
HETATM    8  C   UNL     1      27.558  45.701  54.434  1.00  0.00     0.015 A 
HETATM    9  C   UNL     1      27.584  44.716  53.426  1.00  0.00     0.001 A 
HETATM   10  C   UNL     1      26.802  44.468  52.245  1.00  0.00     0.015 A 
ENDROOT
BRANCH   1  11
HETATM   11  C   UNL     1      26.946  42.571  50.464  1.00  0.00     0.269 C 
HETATM   12  N   UNL     1      26.394  41.339  50.691  1.00  0.00    -0.351 N 
HETATM   13  H   UNL     1      26.414  40.984  51.646  1.00  0.00     0.163 HD
HETATM   14  O   UNL     1      27.159  43.011  49.337  1.00  0.00    -0.266 OA
BRANCH  12  15
HETATM   15  C   UNL     1      26.045  40.434  49.628  1.00  0.00     0.161 C 
BRANCH  15  16
HETATM   16  C   UNL     1      27.205  39.566  49.213  1.00  0.00    -0.038 A 
HETATM   17  C   UNL     1      27.344  39.162  47.879  1.00  0.00     0.009 A 
HETATM   18  C   UNL     1      28.413  38.356  47.493  1.00  0.00     0.003 A 
HETATM   19  C   UNL     1      29.362  37.948  48.433  1.00  0.00     0.037 A 
HETATM   20  C   UNL     1      29.248  38.352  49.763  1.00  0.00     0.068 A 
HETATM   21  C   UNL     1      28.173  39.164  50.144  1.00  0.00     0.045 A 
BRANCH  20  22
HETATM   22  O   UNL     1      30.108  38.027  50.777  1.00  0.00    -0.356 OA
HETATM   23  C   UNL     1      29.870  36.797  51.449  1.00  0.00     0.210 C 
ENDBRANCH  20  22
ENDBRANCH  15  16
ENDBRANCH  12  15
ENDBRANCH   1  11
BRANCH  10  24
HETATM   24  C   UNL     1      25.690  45.346  51.743  1.00  0.00     0.313 C 
BRANCH  24  25
HETATM   25  N   UNL     1      26.094  46.050  50.508  1.00  0.00     0.084 N 
HETATM   26  C   UNL     1      25.099  45.862  49.442  1.00  0.00     0.309 C 
HETATM   27  C   UNL     1      26.228  47.485  50.794  1.00  0.00     0.309 C 
ENDBRANCH  24  25
ENDBRANCH  10  24
BRANCH   6  28
HETATM   28  C   UNL     1      30.411  44.620  56.644  1.00  0.00     0.010 A 
HETATM   29  C   UNL     1      31.485  43.743  56.920  1.00  0.00     0.152 A 
HETATM   30  N   UNL     1      32.122  44.043  58.055  1.00  0.00    -0.187 NA
HETATM   31  N   UNL     1      31.456  45.114  58.513  1.00  0.00    -0.289 N 
HETATM   32  H   UNL     1      31.759  45.531  59.386  1.00  0.00     0.188 HD
HETATM   33  C   UNL     1      30.424  45.499  57.707  1.00  0.00     0.123 A 
ENDBRANCH   6  28
TORSDOF 7
ENDMDL
MODEL 3
REMARK VINA RESULT:      -8.9      1.377      2.256
REMARK  7 active torsions:
REMARK  status: ('A' for Active; 'I' for Inactive)
REMARK    1  A    between atoms: O_2  and  C_3 
REMARK    2  A    between atoms: C_7  and  C_8 
REMARK    3  A    between atoms: C_8  and  N_9 
REMARK       I    between atoms: N_9  and  C_10 
REMARK    4  A    between atoms: C_10  and  C_12 
REMARK    5  A    between atoms: C_17  and  C_26 
REMARK    6  A    between atoms: C_21  and  C_22 
REMARK    7  A    between atoms: C_22  and  N_23 
ROOT
HETATM    1  C   UNL     1      25.251  44.659  51.038  1.00  0.00     0.110 A 
HETATM    2  N   UNL     1      25.532  45.269  52.240  1.00  0.00    -0.351 N 
HETATM    3  H   UNL     1      24.930  45.964  52.661  1.00  0.00     0.166 HD
HETATM    4  C   UNL     1      26.720  44.827  52.759  1.00  0.00     0.044 A 
HETATM    5  C   UNL     1      27.386  45.201  53.936  1.00  0.00     0.042 A 
HETATM    6  C   UNL     1      28.603  44.571  54.243  1.00  0.00    -0.021 A 
HETATM    7  C   UNL     1      29.113  43.598  53.377  1.00  0.00     0.013 A 
HETATM    8  C   UNL     1      28.431  43.234  52.205  1.00  0.00     0.015 A 
HETATM    9  C   UNL     1      27.211  43.864  51.883  1.00  0.00     0.001 A 
HETATM   10  C   UNL     1      26.275  43.742  50.798  1.00  0.00     0.015 A 
ENDROOT
BRANCH   1  11
HETATM   11  C   UNL     1      24.047  45.003  50.310  1.00  0.00     0.269 C 
HETATM   12  N   UNL     1      23.943  46.317  49.941  1.00  0.00    -0.351 N 
HETATM   13  H   UNL     1      24.630  46.967  50.320  1.00  0.00     0.163 HD
HETATM   14  O   UNL     1      23.170  44.173  50.084  1.00  0.00    -0.266 OA
BRANCH  12  15
HETATM   15  C   UNL     1      22.780  46.852  49.284  1.00  0.00     0.161 C 
BRANCH  15  16
HETATM   16  C   UNL     1      22.978  48.278  48.842  1.00  0.00    -0.038 A 
HETATM   17  C   UNL     1      21.911  49.185  48.877  1.00  0.00     0.009 A 
HETATM   18  C   UNL     1      22.090  50.504  48.465  1.00  0.00     0.003 A 
HETATM   19  C   UNL     1      23.340  50.938  48.019  1.00  0.00     0.037 A 
HETATM   20  C   UNL     1      24.419  50.053  47.991  1.00  0.00     0.068 A 
HETATM   21  C   UNL     1      24.233  48.731  48.409  1.00  0.00     0.045 A 
BRANCH  20  22
HETATM   22  O   UNL     1      25.691  50.352  47.583  1.00  0.00    -0.356 OA
HETATM   23  C   UNL     1      26.755  49.805  48.350  1.00  0.00     0.210 C 
ENDBRANCH  20  22
ENDBRANCH  15  16
ENDBRANCH  12  15
ENDBRANCH   1  11
BRANCH  10  24
HETATM   24  C   UNL     1      26.383  42.758  49.668  1.00  0.00     0.313 C 
BRANCH  24  25
HETATM   25  N   UNL     1      25.481  41.608  49.884  1.00  0.00     0.084 N 
HETATM   26  C   UNL     1      24.788  41.238  48.641  1.00  0.00     0.309 C 
HETATM   27  C   UNL     1      26.267  40.460  50.357  1.00  0.00     0.309 C 
ENDBRANCH  24  25
ENDBRANCH  10  24
BRANCH   6  28
HETATM   28  C   UNL     1      29.341  44.927  55.445  1.00  0.00     0.010 A 
HETATM   29  C   UNL     1      30.496  44.352  56.024  1.00  0.00     0.152 A 
HETATM   30  N   UNL     1      30.867  44.959  57.155  1.00  0.00    -0.187 NA
HETATM   31  N   UNL     1      29.949  45.926  57.306  1.00  0.00    -0.289 N 
HETATM   32  H   UNL     1      30.018  46.533  58.115  1.00  0.00     0.188 HD
HETATM   33  C   UNL     1      29.014  45.949  56.311  1.00  0.00     0.123 A 
ENDBRANCH   6  28
TORSDOF 7
ENDMDL
MODEL 4
REMARK VINA RESULT:      -8.6      1.422      1.822
REMARK  7 active torsions:
REMARK  status: ('A' for Active; 'I' for Inactive)
REMARK    1  A    between atoms: O_2  and  C_3 
REMARK    2  A    between atoms: C_7  and  C_8 
REMARK    3  A    between atoms: C_8  and  N_9 
REMARK       I    between atoms: N_9  and  C_10 
REMARK    4  A    between atoms: C_10  and  C_12 
REMARK    5  A    between atoms: C_17  and  C_26 
REMARK    6  A    between atoms: C_21  and  C_22 
REMARK    7  A    between atoms: C_22  and  N_23 
ROOT
HETATM    1  C   UNL     1      26.423  43.476  51.821  1.00  0.00     0.110 A 
HETATM    2  N   UNL     1      26.552  44.129  53.027  1.00  0.00    -0.351 N 
HETATM    3  H   UNL     1      25.816  44.693  53.431  1.00  0.00     0.166 HD
HETATM    4  C   UNL     1      27.790  43.926  53.576  1.00  0.00     0.044 A 
HETATM    5  C   UNL     1      28.342  44.422  54.767  1.00  0.00     0.042 A 
HETATM    6  C   UNL     1      29.651  44.041  55.105  1.00  0.00    -0.021 A 
HETATM    7  C   UNL     1      30.361  43.185  54.255  1.00  0.00     0.013 A 
HETATM    8  C   UNL     1      29.791  42.697  53.069  1.00  0.00     0.015 A 
HETATM    9  C   UNL     1      28.480  43.077  52.716  1.00  0.00     0.001 A 
HETATM   10  C   UNL     1      27.612  42.776  51.610  1.00  0.00     0.015 A 
ENDROOT
BRANCH   1  11
HETATM   11  C   UNL     1      25.193  43.579  51.064  1.00  0.00     0.269 C 
HETATM   12  N   UNL     1      25.286  44.281  49.893  1.00  0.00    -0.351 N 
HETATM   13  H   UNL     1      26.152  44.787  49.716  1.00  0.00     0.163 HD
HETATM   14  O   UNL     1      24.139  43.101  51.477  1.00  0.00    -0.266 OA
BRANCH  12  15
HETATM   15  C   UNL     1      24.148  44.552  49.055  1.00  0.00     0.161 C 
BRANCH  15  16
HETATM   16  C   UNL     1      23.729  45.998  49.109  1.00  0.00    -0.038 A 
HETATM   17  C   UNL     1      24.590  46.964  49.647  1.00  0.00     0.009 A 
HETATM   18  C   UNL     1      24.204  48.302  49.703  1.00  0.00     0.003 A 
HETATM   19  C   UNL     1      22.956  48.694  49.216  1.00  0.00     0.037 A 
HETATM   20  C   UNL     1      22.091  47.749  48.663  1.00  0.00     0.068 A 
HETATM   21  C   UNL     1      22.486  46.408  48.607  1.00  0.00     0.045 A 
BRANCH  20  22
HETATM   22  O   UNL     1      20.848  48.003  48.149  1.00  0.00    -0.356 OA
HETATM   23  C   UNL     1      20.601  49.328  47.697  1.00  0.00     0.210 C 
ENDBRANCH  20  22
ENDBRANCH  15  16
ENDBRANCH  12  15
ENDBRANCH   1  11
BRANCH  10  24
HETATM   24  C   UNL     1      27.936  41.832  50.487  1.00  0.00     0.313 C 
BRANCH  24  25
HETATM   25  N   UNL     1      27.542  40.450  50.831  1.00  0.00     0.084 N 
HETATM   26  C   UNL     1      26.234  40.113  50.251  1.00  0.00     0.309 C 
HETATM   27  C   UNL     1      28.552  39.517  50.315  1.00  0.00     0.309 C 
ENDBRANCH  24  25
ENDBRANCH  10  24
BRANCH   6  28
HETATM   28  C   UNL     1      30.276  44.533  56.323  1.00  0.00     0.010 A 
HETATM   29  C   UNL     1      30.070  45.728  57.050  1.00  0.00     0.152 A 
HETATM   30  N   UNL     1      30.861  45.827  58.122  1.00  0.00    -0.187 NA
HETATM   31  N   UNL     1      31.580  44.694  58.085  1.00  0.00    -0.289 N 
HETATM   32  H   UNL     1      32.269  44.538  58.812  1.00  0.00     0.188 HD
HETATM   33  C   UNL     1      31.270  43.887  57.029  1.00  0.00     0.123 A 
ENDBRANCH   6  28
TORSDOF 7
ENDMDL
MODEL 5
REMARK VINA RESULT:      -8.4      1.535      2.174
REMARK  7 active torsions:
REMARK  status: ('A' for Active; 'I' for Inactive)
REMARK    1  A    between atoms: O_2  and  C_3 
REMARK    2  A    between atoms: C_7  and  C_8 
REMARK    3  A    between atoms: C_8  and  N_9 
REMARK       I    between atoms: N_9  and  C_10 
REMARK    4  A    between atoms: C_10  and  C_12 
REMARK    5  A    between atoms: C_17  and  C_26 
REMARK    6  A    between atoms: C_21  and  C_22 
REMARK    7  A    between atoms: C_22  and  N_23 
ROOT
HETATM    1  C   UNL     1      25.661  44.893  50.692  1.00  0.00     0.110 A 
HETATM    2  N   UNL     1      25.818  45.603  51.862  1.00  0.00    -0.351 N 
HETATM    3  H   UNL     1      25.234  46.390  52.113  1.00  0.00     0.166 HD
HETATM    4  C   UNL     1      26.861  45.117  52.605  1.00  0.00     0.044 A 
HETATM    5  C   UNL     1      27.375  45.557  53.834  1.00  0.00     0.042 A 
HETATM    6  C   UNL     1      28.459  44.861  54.391  1.00  0.00    -0.021 A 
HETATM    7  C   UNL     1      28.991  43.757  53.714  1.00  0.00     0.013 A 
HETATM    8  C   UNL     1      28.461  43.330  52.486  1.00  0.00     0.015 A 
HETATM    9  C   UNL     1      27.377  44.025  51.914  1.00  0.00     0.001 A 
HETATM   10  C   UNL     1      26.609  43.869  50.708  1.00  0.00     0.015 A 
ENDROOT
BRANCH   1  11
HETATM   11  C   UNL     1      24.623  45.260  49.751  1.00  0.00     0.269 C 
HETATM   12  N   UNL     1      24.016  46.463  49.990  1.00  0.00    -0.351 N 
HETATM   13  H   UNL     1      24.232  46.931  50.869  1.00  0.00     0.163 HD
HETATM   14  O   UNL     1      24.293  44.515  48.830  1.00  0.00    -0.266 OA
BRANCH  12  15
HETATM   15  C   UNL     1      22.913  46.949  49.205  1.00  0.00     0.161 C 
BRANCH  15  16
HETATM   16  C   UNL     1      23.014  48.427  48.929  1.00  0.00    -0.038 A 
HETATM   17  C   UNL     1      24.237  48.993  48.550  1.00  0.00     0.009 A 
HETATM   18  C   UNL     1      24.336  50.360  48.299  1.00  0.00     0.003 A 
HETATM   19  C   UNL     1      23.212  51.179  48.416  1.00  0.00     0.037 A 
HETATM   20  C   UNL     1      21.980  50.631  48.777  1.00  0.00     0.068 A 
HETATM   21  C   UNL     1      21.888  49.257  49.026  1.00  0.00     0.045 A 
BRANCH  20  22
HETATM   22  O   UNL     1      20.807  51.320  48.921  1.00  0.00    -0.356 OA
HETATM   23  C   UNL     1      20.034  51.033  50.079  1.00  0.00     0.210 C 
ENDBRANCH  20  22
ENDBRANCH  15  16
ENDBRANCH  12  15
ENDBRANCH   1  11
BRANCH  10  24
HETATM   24  C   UNL     1      26.784  42.762  49.707  1.00  0.00     0.313 C 
BRANCH  24  25
HETATM   25  N   UNL     1      25.847  41.652  49.980  1.00  0.00     0.084 N 
HETATM   26  C   UNL     1      25.285  41.115  48.733  1.00  0.00     0.309 C 
HETATM   27  C   UNL     1      26.561  40.581  50.687  1.00  0.00     0.309 C 
ENDBRANCH  24  25
ENDBRANCH  10  24
BRANCH   6  28
HETATM   28  C   UNL     1      29.039  45.278  55.658  1.00  0.00     0.010 A 
HETATM   29  C   UNL     1      28.506  46.072  56.701  1.00  0.00     0.152 A 
HETATM   30  N   UNL     1      29.365  46.249  57.709  1.00  0.00    -0.187 NA
HETATM   31  N   UNL     1      30.453  45.570  57.315  1.00  0.00    -0.289 N 
HETATM   32  H   UNL     1      31.261  45.559  57.928  1.00  0.00     0.188 HD
HETATM   33  C   UNL     1      30.310  44.972  56.096  1.00  0.00     0.123 A 
ENDBRANCH   6  28
TORSDOF 7
ENDMDL
MODEL 6
REMARK VINA RESULT:      -8.4      3.752      6.567
REMARK  7 active torsions:
REMARK  status: ('A' for Active; 'I' for Inactive)
REMARK    1  A    between atoms: O_2  and  C_3 
REMARK    2  A    between atoms: C_7  and  C_8 
REMARK    3  A    between atoms: C_8  and  N_9 
REMARK       I    between atoms: N_9  and  C_10 
REMARK    4  A    between atoms: C_10  and  C_12 
REMARK    5  A    between atoms: C_17  and  C_26 
REMARK    6  A    between atoms: C_21  and  C_22 
REMARK    7  A    between atoms: C_22  and  N_23 
ROOT
HETATM    1  C   UNL     1      27.941  41.392  51.740  1.00  0.00     0.110 A 
HETATM    2  N   UNL     1      28.860  41.236  52.753  1.00  0.00    -0.351 N 
HETATM    3  H   UNL     1      29.367  40.375  52.912  1.00  0.00     0.166 HD
HETATM    4  C   UNL     1      28.972  42.375  53.506  1.00  0.00     0.044 A 
HETATM    5  C   UNL     1      29.763  42.636  54.635  1.00  0.00     0.042 A 
HETATM    6  C   UNL     1      29.696  43.913  55.215  1.00  0.00    -0.021 A 
HETATM    7  C   UNL     1      28.853  44.880  54.657  1.00  0.00     0.013 A 
HETATM    8  C   UNL     1      28.071  44.601  53.525  1.00  0.00     0.015 A 
HETATM    9  C   UNL     1      28.125  43.321  52.938  1.00  0.00     0.001 A 
HETATM   10  C   UNL     1      27.480  42.708  51.808  1.00  0.00     0.015 A 
ENDROOT
BRANCH   1  11
HETATM   11  C   UNL     1      27.656  40.295  50.838  1.00  0.00     0.269 C 
HETATM   12  N   UNL     1      28.750  39.743  50.227  1.00  0.00    -0.351 N 
HETATM   13  H   UNL     1      29.641  40.224  50.336  1.00  0.00     0.163 HD
HETATM   14  O   UNL     1      26.506  39.923  50.616  1.00  0.00    -0.266 OA
BRANCH  12  15
HETATM   15  C   UNL     1      28.647  38.700  49.241  1.00  0.00     0.161 C 
BRANCH  15  16
HETATM   16  C   UNL     1      28.429  39.244  47.854  1.00  0.00    -0.038 A 
HETATM   17  C   UNL     1      28.433  40.626  47.627  1.00  0.00     0.009 A 
HETATM   18  C   UNL     1      28.227  41.133  46.345  1.00  0.00     0.003 A 
HETATM   19  C   UNL     1      28.022  40.265  45.271  1.00  0.00     0.037 A 
HETATM   20  C   UNL     1      28.030  38.885  45.474  1.00  0.00     0.068 A 
HETATM   21  C   UNL     1      28.240  38.382  46.763  1.00  0.00     0.045 A 
BRANCH  20  22
HETATM   22  O   UNL     1      27.848  37.931  44.509  1.00  0.00    -0.356 OA
HETATM   23  C   UNL     1      26.900  38.224  43.491  1.00  0.00     0.210 C 
ENDBRANCH  20  22
ENDBRANCH  15  16
ENDBRANCH  12  15
ENDBRANCH   1  11
BRANCH  10  24
HETATM   24  C   UNL     1      26.540  43.404  50.864  1.00  0.00     0.313 C 
BRANCH  24  25
HETATM   25  N   UNL     1      25.167  43.426  51.411  1.00  0.00     0.084 N 
HETATM   26  C   UNL     1      24.700  44.805  51.611  1.00  0.00     0.309 C 
HETATM   27  C   UNL     1      24.264  42.743  50.475  1.00  0.00     0.309 C 
ENDBRANCH  24  25
ENDBRANCH  10  24
BRANCH   6  28
HETATM   28  C   UNL     1      30.487  44.236  56.393  1.00  0.00     0.010 A 
HETATM   29  C   UNL     1      31.509  43.510  57.048  1.00  0.00     0.152 A 
HETATM   30  N   UNL     1      31.988  44.142  58.122  1.00  0.00    -0.187 NA
HETATM   31  N   UNL     1      31.273  45.277  58.161  1.00  0.00    -0.289 N 
HETATM   32  H   UNL     1      31.458  45.936  58.910  1.00  0.00     0.188 HD
HETATM   33  C   UNL     1      30.362  45.382  57.150  1.00  0.00     0.123 A 
ENDBRANCH   6  28
TORSDOF 7
ENDMDL
MODEL 7
REMARK VINA RESULT:      -8.4     11.334     16.955
REMARK  7 active torsions:
REMARK  status: ('A' for Active; 'I' for Inactive)
REMARK    1  A    between atoms: O_2  and  C_3 
REMARK    2  A    between atoms: C_7  and  C_8 
REMARK    3  A    between atoms: C_8  and  N_9 
REMARK       I    between atoms: N_9  and  C_10 
REMARK    4  A    between atoms: C_10  and  C_12 
REMARK    5  A    between atoms: C_17  and  C_26 
REMARK    6  A    between atoms: C_21  and  C_22 
REMARK    7  A    between atoms: C_22  and  N_23 
ROOT
HETATM    1  C   UNL     1      14.890  55.337  51.587  1.00  0.00     0.110 A 
HETATM    2  N   UNL     1      15.253  55.562  52.896  1.00  0.00    -0.351 N 
HETATM    3  H   UNL     1      15.483  54.819  53.542  1.00  0.00     0.166 HD
HETATM    4  C   UNL     1      15.239  56.899  53.196  1.00  0.00     0.044 A 
HETATM    5  C   UNL     1      15.513  57.556  54.404  1.00  0.00     0.042 A 
HETATM    6  C   UNL     1      15.437  58.958  54.434  1.00  0.00    -0.021 A 
HETATM    7  C   UNL     1      15.095  59.654  53.269  1.00  0.00     0.013 A 
HETATM    8  C   UNL     1      14.827  58.979  52.068  1.00  0.00     0.015 A 
HETATM    9  C   UNL     1      14.894  57.572  52.028  1.00  0.00     0.001 A 
HETATM   10  C   UNL     1      14.687  56.587  51.001  1.00  0.00     0.015 A 
ENDROOT
BRANCH   1  11
HETATM   11  C   UNL     1      14.821  53.985  51.073  1.00  0.00     0.269 C 
HETATM   12  N   UNL     1      15.928  53.564  50.386  1.00  0.00    -0.351 N 
HETATM   13  H   UNL     1      16.639  54.261  50.168  1.00  0.00     0.163 HD
HETATM   14  O   UNL     1      13.817  53.290  51.215  1.00  0.00    -0.266 OA
BRANCH  12  15
HETATM   15  C   UNL     1      16.001  52.281  49.738  1.00  0.00     0.161 C 
BRANCH  15  16
HETATM   16  C   UNL     1      17.422  51.859  49.468  1.00  0.00    -0.038 A 
HETATM   17  C   UNL     1      18.276  52.682  48.723  1.00  0.00     0.009 A 
HETATM   18  C   UNL     1      19.589  52.291  48.467  1.00  0.00     0.003 A 
HETATM   19  C   UNL     1      20.070  51.077  48.959  1.00  0.00     0.037 A 
HETATM   20  C   UNL     1      19.239  50.250  49.716  1.00  0.00     0.068 A 
HETATM   21  C   UNL     1      17.922  50.649  49.971  1.00  0.00     0.045 A 
BRANCH  20  22
HETATM   22  O   UNL     1      19.587  49.042  50.258  1.00  0.00    -0.356 OA
HETATM   23  C   UNL     1      18.653  48.447  51.149  1.00  0.00     0.210 C 
ENDBRANCH  20  22
ENDBRANCH  15  16
ENDBRANCH  12  15
ENDBRANCH   1  11
BRANCH  10  24
HETATM   24  C   UNL     1      14.373  56.888  49.562  1.00  0.00     0.313 C 
BRANCH  24  25
HETATM   25  N   UNL     1      12.918  57.056  49.365  1.00  0.00     0.084 N 
HETATM   26  C   UNL     1      12.633  58.151  48.428  1.00  0.00     0.309 C 
HETATM   27  C   UNL     1      12.356  55.808  48.832  1.00  0.00     0.309 C 
ENDBRANCH  24  25
ENDBRANCH  10  24
BRANCH   6  28
HETATM   28  C   UNL     1      15.702  59.691  55.662  1.00  0.00     0.010 A 
HETATM   29  C   UNL     1      16.895  60.271  56.154  1.00  0.00     0.152 A 
HETATM   30  N   UNL     1      16.737  60.852  57.346  1.00  0.00    -0.187 NA
HETATM   31  N   UNL     1      15.440  60.645  57.625  1.00  0.00    -0.289 N 
HETATM   32  H   UNL     1      15.074  61.000  58.502  1.00  0.00     0.188 HD
HETATM   33  C   UNL     1      14.777  59.955  56.651  1.00  0.00     0.123 A 
ENDBRANCH   6  28
TORSDOF 7
ENDMDL
MODEL 8
REMARK VINA RESULT:      -8.3      3.566     10.071
REMARK  7 active torsions:
REMARK  status: ('A' for Active; 'I' for Inactive)
REMARK    1  A    between atoms: O_2  and  C_3 
REMARK    2  A    between atoms: C_7  and  C_8 
REMARK    3  A    between atoms: C_8  and  N_9 
REMARK       I    between atoms: N_9  and  C_10 
REMARK    4  A    between atoms: C_10  and  C_12 
REMARK    5  A    between atoms: C_17  and  C_26 
REMARK    6  A    between atoms: C_21  and  C_22 
REMARK    7  A    between atoms: C_22  and  N_23 
ROOT
HETATM    1  C   UNL     1      23.957  46.667  49.604  1.00  0.00     0.110 A 
HETATM    2  N   UNL     1      22.643  46.864  49.241  1.00  0.00    -0.351 N 
HETATM    3  H   UNL     1      21.967  46.114  49.182  1.00  0.00     0.166 HD
HETATM    4  C   UNL     1      22.394  48.181  48.960  1.00  0.00     0.044 A 
HETATM    5  C   UNL     1      21.213  48.806  48.533  1.00  0.00     0.042 A 
HETATM    6  C   UNL     1      21.228  50.195  48.328  1.00  0.00    -0.021 A 
HETATM    7  C   UNL     1      22.409  50.911  48.554  1.00  0.00     0.013 A 
HETATM    8  C   UNL     1      23.581  50.269  48.985  1.00  0.00     0.015 A 
HETATM    9  C   UNL     1      23.579  48.875  49.188  1.00  0.00     0.001 A 
HETATM   10  C   UNL     1      24.569  47.921  49.611  1.00  0.00     0.015 A 
ENDROOT
BRANCH   1  11
HETATM   11  C   UNL     1      24.433  45.337  49.922  1.00  0.00     0.269 C 
HETATM   12  N   UNL     1      24.578  45.072  51.257  1.00  0.00    -0.351 N 
HETATM   13  H   UNL     1      24.482  45.854  51.904  1.00  0.00     0.163 HD
HETATM   14  O   UNL     1      24.722  44.527  49.044  1.00  0.00    -0.266 OA
BRANCH  12  15
HETATM   15  C   UNL     1      25.116  43.833  51.752  1.00  0.00     0.161 C 
BRANCH  15  16
HETATM   16  C   UNL     1      26.236  44.048  52.737  1.00  0.00    -0.038 A 
HETATM   17  C   UNL     1      27.173  43.035  52.975  1.00  0.00     0.009 A 
HETATM   18  C   UNL     1      28.207  43.229  53.889  1.00  0.00     0.003 A 
HETATM   19  C   UNL     1      28.323  44.441  54.572  1.00  0.00     0.037 A 
HETATM   20  C   UNL     1      27.408  45.468  54.337  1.00  0.00     0.068 A 
HETATM   21  C   UNL     1      26.373  45.267  53.416  1.00  0.00     0.045 A 
BRANCH  20  22
HETATM   22  O   UNL     1      27.413  46.699  54.934  1.00  0.00    -0.356 OA
HETATM   23  C   UNL     1      26.339  47.572  54.611  1.00  0.00     0.210 C 
ENDBRANCH  20  22
ENDBRANCH  15  16
ENDBRANCH  12  15
ENDBRANCH   1  11
BRANCH  10  24
HETATM   24  C   UNL     1      25.971  48.258  50.034  1.00  0.00     0.313 C 
BRANCH  24  25
HETATM   25  N   UNL     1      26.841  48.458  48.857  1.00  0.00     0.084 N 
HETATM   26  C   UNL     1      27.321  49.846  48.783  1.00  0.00     0.309 C 
HETATM   27  C   UNL     1      27.996  47.554  48.951  1.00  0.00     0.309 C 
ENDBRANCH  24  25
ENDBRANCH  10  24
BRANCH   6  28
HETATM   28  C   UNL     1      20.035  50.893  47.876  1.00  0.00     0.010 A 
HETATM   29  C   UNL     1      19.395  52.050  48.378  1.00  0.00     0.152 A 
HETATM   30  N   UNL     1      18.296  52.375  47.691  1.00  0.00    -0.187 NA
HETATM   31  N   UNL     1      18.228  51.426  46.745  1.00  0.00    -0.289 N 
HETATM   32  H   UNL     1      17.457  51.459  46.086  1.00  0.00     0.188 HD
HETATM   33  C   UNL     1      19.243  50.515  46.812  1.00  0.00     0.123 A 
ENDBRANCH   6  28
TORSDOF 7
ENDMDL
MODEL 9
REMARK VINA RESULT:      -8.3      3.086      8.452
REMARK  7 active torsions:
REMARK  status: ('A' for Active; 'I' for Inactive)
REMARK    1  A    between atoms: O_2  and  C_3 
REMARK    2  A    between atoms: C_7  and  C_8 
REMARK    3  A    between atoms: C_8  and  N_9 
REMARK       I    between atoms: N_9  and  C_10 
REMARK    4  A    between atoms: C_10  and  C_12 
REMARK    5  A    between atoms: C_17  and  C_26 
REMARK    6  A    between atoms: C_21  and  C_22 
REMARK    7  A    between atoms: C_22  and  N_23 
ROOT
HETATM    1  C   UNL     1      25.841  43.995  50.807  1.00  0.00     0.110 A 
HETATM    2  N   UNL     1      25.978  45.366  50.822  1.00  0.00    -0.351 N 
HETATM    3  H   UNL     1      26.745  45.839  51.281  1.00  0.00     0.166 HD
HETATM    4  C   UNL     1      24.945  45.979  50.164  1.00  0.00     0.044 A 
HETATM    5  C   UNL     1      24.683  47.342  49.967  1.00  0.00     0.042 A 
HETATM    6  C   UNL     1      23.542  47.704  49.231  1.00  0.00    -0.021 A 
HETATM    7  C   UNL     1      22.708  46.704  48.719  1.00  0.00     0.013 A 
HETATM    8  C   UNL     1      22.988  45.344  48.924  1.00  0.00     0.015 A 
HETATM    9  C   UNL     1      24.126  44.969  49.666  1.00  0.00     0.001 A 
HETATM   10  C   UNL     1      24.699  43.709  50.058  1.00  0.00     0.015 A 
ENDROOT
BRANCH   1  11
HETATM   11  C   UNL     1      26.820  43.158  51.469  1.00  0.00     0.269 C 
HETATM   12  N   UNL     1      26.775  43.176  52.837  1.00  0.00    -0.351 N 
HETATM   13  H   UNL     1      26.169  43.868  53.277  1.00  0.00     0.163 HD
HETATM   14  O   UNL     1      27.653  42.514  50.835  1.00  0.00    -0.266 OA
BRANCH  12  15
HETATM   15  C   UNL     1      27.722  42.469  53.657  1.00  0.00     0.161 C 
BRANCH  15  16
HETATM   16  C   UNL     1      28.599  43.402  54.450  1.00  0.00    -0.038 A 
HETATM   17  C   UNL     1      29.890  43.010  54.826  1.00  0.00     0.009 A 
HETATM   18  C   UNL     1      30.703  43.869  55.563  1.00  0.00     0.003 A 
HETATM   19  C   UNL     1      30.240  45.133  55.930  1.00  0.00     0.037 A 
HETATM   20  C   UNL     1      28.962  45.548  55.552  1.00  0.00     0.068 A 
HETATM   21  C   UNL     1      28.152  44.681  54.808  1.00  0.00     0.045 A 
BRANCH  20  22
HETATM   22  O   UNL     1      28.393  46.758  55.841  1.00  0.00    -0.356 OA
HETATM   23  C   UNL     1      27.299  47.161  55.028  1.00  0.00     0.210 C 
ENDBRANCH  20  22
ENDBRANCH  15  16
ENDBRANCH  12  15
ENDBRANCH   1  11
BRANCH  10  24
HETATM   24  C   UNL     1      24.172  42.359  49.663  1.00  0.00     0.313 C 
BRANCH  24  25
HETATM   25  N   UNL     1      24.780  41.907  48.394  1.00  0.00     0.084 N 
HETATM   26  C   UNL     1      25.523  40.652  48.580  1.00  0.00     0.309 C 
HETATM   27  C   UNL     1      23.720  41.696  47.399  1.00  0.00     0.309 C 
ENDBRANCH  24  25
ENDBRANCH  10  24
BRANCH   6  28
HETATM   28  C   UNL     1      23.217  49.103  49.005  1.00  0.00     0.010 A 
HETATM   29  C   UNL     1      22.009  49.814  49.198  1.00  0.00     0.152 A 
HETATM   30  N   UNL     1      22.104  51.101  48.854  1.00  0.00    -0.187 NA
HETATM   31  N   UNL     1      23.374  51.220  48.437  1.00  0.00    -0.289 N 
HETATM   32  H   UNL     1      23.691  52.128  48.113  1.00  0.00     0.188 HD
HETATM   33  C   UNL     1      24.081  50.054  48.506  1.00  0.00     0.123 A 
ENDBRANCH   6  28
TORSDOF 7
ENDMDL
MODEL 10
REMARK VINA RESULT:      -8.3      2.767      4.175
REMARK  7 active torsions:
REMARK  status: ('A' for Active; 'I' for Inactive)
REMARK    1  A    between atoms: O_2  and  C_3 
REMARK    2  A    between atoms: C_7  and  C_8 
REMARK    3  A    between atoms: C_8  and  N_9 
REMARK       I    between atoms: N_9  and  C_10 
REMARK    4  A    between atoms: C_10  and  C_12 
REMARK    5  A    between atoms: C_17  and  C_26 
REMARK    6  A    between atoms: C_21  and  C_22 
REMARK    7  A    between atoms: C_22  and  N_23 
ROOT
HETATM    1  C   UNL     1      25.039  46.934  51.037  1.00  0.00     0.110 A 
HETATM    2  N   UNL     1      25.916  47.474  51.952  1.00  0.00    -0.351 N 
HETATM    3  H   UNL     1      26.172  48.452  51.962  1.00  0.00     0.166 HD
HETATM    4  C   UNL     1      26.393  46.519  52.811  1.00  0.00     0.044 A 
HETATM    5  C   UNL     1      27.314  46.630  53.863  1.00  0.00     0.042 A 
HETATM    6  C   UNL     1      27.623  45.478  54.604  1.00  0.00    -0.021 A 
HETATM    7  C   UNL     1      27.009  44.264  54.278  1.00  0.00     0.013 A 
HETATM    8  C   UNL     1      26.088  44.172  53.223  1.00  0.00     0.015 A 
HETATM    9  C   UNL     1      25.774  45.320  52.468  1.00  0.00     0.001 A 
HETATM   10  C   UNL     1      24.903  45.582  51.354  1.00  0.00     0.015 A 
ENDROOT
BRANCH   1  11
HETATM   11  C   UNL     1      24.436  47.773  50.023  1.00  0.00     0.269 C 
HETATM   12  N   UNL     1      23.138  47.469  49.709  1.00  0.00    -0.351 N 
HETATM   13  H   UNL     1      22.752  46.608  50.095  1.00  0.00     0.163 HD
HETATM   14  O   UNL     1      25.067  48.667  49.464  1.00  0.00    -0.266 OA
BRANCH  12  15
HETATM   15  C   UNL     1      22.409  48.145  48.670  1.00  0.00     0.161 C 
BRANCH  15  16
HETATM   16  C   UNL     1      21.188  48.853  49.196  1.00  0.00    -0.038 A 
HETATM   17  C   UNL     1      21.247  50.210  49.534  1.00  0.00     0.009 A 
HETATM   18  C   UNL     1      20.121  50.867  50.026  1.00  0.00     0.003 A 
HETATM   19  C   UNL     1      18.917  50.178  50.181  1.00  0.00     0.037 A 
HETATM   20  C   UNL     1      18.833  48.828  49.835  1.00  0.00     0.068 A 
HETATM   21  C   UNL     1      19.968  48.176  49.339  1.00  0.00     0.045 A 
BRANCH  20  22
HETATM   22  O   UNL     1      17.717  48.043  49.933  1.00  0.00    -0.356 OA
HETATM   23  C   UNL     1      17.009  47.783  48.727  1.00  0.00     0.210 C 
ENDBRANCH  20  22
ENDBRANCH  15  16
ENDBRANCH  12  15
ENDBRANCH   1  11
BRANCH  10  24
HETATM   24  C   UNL     1      23.987  44.575  50.717  1.00  0.00     0.313 C 
BRANCH  24  25
HETATM   25  N   UNL     1      24.658  43.889  49.593  1.00  0.00     0.084 N 
HETATM   26  C   UNL     1      24.707  42.437  49.813  1.00  0.00     0.309 C 
HETATM   27  C   UNL     1      23.922  44.163  48.352  1.00  0.00     0.309 C 
ENDBRANCH  24  25
ENDBRANCH  10  24
BRANCH   6  28
HETATM   28  C   UNL     1      28.578  45.534  55.699  1.00  0.00     0.010 A 
HETATM   29  C   UNL     1      29.839  44.912  55.859  1.00  0.00     0.152 A 
HETATM   30  N   UNL     1      30.415  45.199  57.030  1.00  0.00    -0.187 NA
HETATM   31  N   UNL     1      29.524  46.006  57.626  1.00  0.00    -0.289 N 
HETATM   32  H   UNL     1      29.740  46.361  58.552  1.00  0.00     0.188 HD
HETATM   33  C   UNL     1      28.408  46.237  56.874  1.00  0.00     0.123 A 
ENDBRANCH   6  28
TORSDOF 7
ENDMDL
