MODEL 1
REMARK VINA RESULT:      -9.2      0.000      0.000
REMARK  9 active torsions:
REMARK  status: ('A' for Active; 'I' for Inactive)
REMARK    1  A    between atoms: C_2  and  O_3 
REMARK    2  A    between atoms: O_3  and  C_4 
REMARK    3  A    between atoms: C_7  and  C_8 
REMARK       I    between atoms: C_8  and  N_9 
REMARK    4  A    between atoms: N_9  and  C_10 
REMARK    5  A    between atoms: C_10  and  N_11 
REMARK    6  A    between atoms: N_11  and  C_12 
REMARK    7  A    between atoms: C_15  and  N_16 
REMARK    8  A    between atoms: N_19  and  C_21 
REMARK    9  A    between atoms: C_21  and  C_22 
ROOT
HETATM    1  C   UNL     1      24.152  45.826  49.712  1.00  0.00     0.034 C 
HETATM    2  C   UNL     1      24.074  44.592  50.351  1.00  0.00     0.032 C 
HETATM    3  C   UNL     1      24.469  44.453  51.685  1.00  0.00     0.031 C 
HETATM    4  C   UNL     1      24.906  45.551  52.437  1.00  0.00     0.030 C 
HETATM    5  C   UNL     1      25.114  46.747  51.725  1.00  0.00     0.031 C 
HETATM    6  C   UNL     1      24.754  46.886  50.375  1.00  0.00     0.032 C 
ENDROOT
BRANCH   1   7
HETATM    7  N   UNL     1      23.657  46.020  48.409  1.00  0.00    -0.333 N 
HETATM    8  H   UNL     1      24.339  46.082  47.660  1.00  0.00     0.168 HD
BRANCH   7   9
HETATM    9  C   UNL     1      22.350  46.073  48.024  1.00  0.00     0.179 C 
HETATM   10  S   UNL     1      21.707  44.873  47.061  1.00  0.00    -0.040 SA
BRANCH   9  11
HETATM   11  N   UNL     1      21.561  47.129  48.399  1.00  0.00    -0.299 N 
HETATM   12  C   UNL     1      21.895  48.470  48.278  1.00  0.00     0.257 C 
HETATM   13  O   UNL     1      22.873  48.943  47.710  1.00  0.00    -0.267 OA
HETATM   14  H   UNL     1      20.570  46.923  48.414  1.00  0.00     0.171 HD
BRANCH  12  15
HETATM   15  C   UNL     1      20.929  49.419  48.858  1.00  0.00     0.032 A 
HETATM   16  C   UNL     1      20.812  50.708  48.335  1.00  0.00     0.020 A 
HETATM   17  C   UNL     1      19.753  51.518  48.751  1.00  0.00     0.038 A 
HETATM   18  C   UNL     1      18.819  51.054  49.685  1.00  0.00     0.069 A 
HETATM   19  C   UNL     1      18.984  49.788  50.248  1.00  0.00     0.038 A 
HETATM   20  C   UNL     1      20.026  48.960  49.820  1.00  0.00     0.020 A 
BRANCH  18  21
HETATM   21  O   UNL     1      17.786  51.916  49.923  1.00  0.00    -0.347 OA
BRANCH  21  22
HETATM   22  C   UNL     1      16.915  52.286  48.845  1.00  0.00     0.120 C 
HETATM   23  C   UNL     1      15.990  53.429  49.262  1.00  0.00     0.040 C 
HETATM   24  C   UNL     1      16.077  51.051  48.519  1.00  0.00     0.040 C 
ENDBRANCH  21  22
ENDBRANCH  18  21
ENDBRANCH  12  15
ENDBRANCH   9  11
ENDBRANCH   7   9
ENDBRANCH   1   7
BRANCH   4  25
HETATM   25  N   UNL     1      25.131  45.495  53.823  1.00  0.00    -0.378 N 
HETATM   26  C   UNL     1      26.035  46.481  54.454  1.00  0.00     0.150 C 
HETATM   27  C   UNL     1      27.523  46.101  54.269  1.00  0.00     0.255 C 
HETATM   28  N   UNL     1      27.800  44.660  54.707  1.00  0.00    -0.064 N 
HETATM   29  H   UNL     1      27.679  44.632  55.726  1.00  0.00     0.280 HD
HETATM   30  C   UNL     1      26.800  43.673  54.094  1.00  0.00     0.255 C 
HETATM   31  C   UNL     1      25.349  44.130  54.362  1.00  0.00     0.150 C 
BRANCH  28  32
HETATM   32  C   UNL     1      29.221  44.231  54.412  1.00  0.00     0.273 C 
BRANCH  32  33
HETATM   33  C   UNL     1      30.104  44.237  55.629  1.00  0.00    -0.033 A 
HETATM   34  C   UNL     1      31.024  43.199  55.847  1.00  0.00     0.009 A 
HETATM   35  C   UNL     1      31.818  43.190  56.996  1.00  0.00     0.001 A 
HETATM   36  C   UNL     1      31.700  44.211  57.936  1.00  0.00     0.000 A 
HETATM   37  C   UNL     1      30.794  45.248  57.729  1.00  0.00     0.001 A 
HETATM   38  C   UNL     1      30.002  45.265  56.579  1.00  0.00     0.009 A 
ENDBRANCH  32  33
ENDBRANCH  28  32
ENDBRANCH   4  25
TORSDOF 9
ENDMDL
MODEL 2
REMARK VINA RESULT:      -9.2      2.980     11.874
REMARK  9 active torsions:
REMARK  status: ('A' for Active; 'I' for Inactive)
REMARK    1  A    between atoms: C_2  and  O_3 
REMARK    2  A    between atoms: O_3  and  C_4 
REMARK    3  A    between atoms: C_7  and  C_8 
REMARK       I    between atoms: C_8  and  N_9 
REMARK    4  A    between atoms: N_9  and  C_10 
REMARK    5  A    between atoms: C_10  and  N_11 
REMARK    6  A    between atoms: N_11  and  C_12 
REMARK    7  A    between atoms: C_15  and  N_16 
REMARK    8  A    between atoms: N_19  and  C_21 
REMARK    9  A    between atoms: C_21  and  C_22 
ROOT
HETATM    1  C   UNL     1      23.887  45.287  50.136  1.00  0.00     0.034 C 
HETATM    2  C   UNL     1      24.568  46.450  50.483  1.00  0.00     0.032 C 
HETATM    3  C   UNL     1      24.311  47.653  49.817  1.00  0.00     0.031 C 
HETATM    4  C   UNL     1      23.331  47.743  48.821  1.00  0.00     0.030 C 
HETATM    5  C   UNL     1      22.769  46.525  48.392  1.00  0.00     0.031 C 
HETATM    6  C   UNL     1      23.048  45.307  49.030  1.00  0.00     0.032 C 
ENDROOT
BRANCH   1   7
HETATM    7  N   UNL     1      24.043  44.091  50.862  1.00  0.00    -0.333 N 
HETATM    8  H   UNL     1      23.247  43.774  51.406  1.00  0.00     0.168 HD
BRANCH   7   9
HETATM    9  C   UNL     1      25.131  43.269  50.870  1.00  0.00     0.179 C 
HETATM   10  S   UNL     1      25.165  41.909  49.907  1.00  0.00    -0.040 SA
BRANCH   9  11
HETATM   11  N   UNL     1      26.193  43.537  51.694  1.00  0.00    -0.299 N 
HETATM   12  C   UNL     1      26.108  44.021  52.991  1.00  0.00     0.257 C 
HETATM   13  O   UNL     1      25.093  44.171  53.662  1.00  0.00    -0.267 OA
HETATM   14  H   UNL     1      27.031  43.012  51.476  1.00  0.00     0.171 HD
BRANCH  12  15
HETATM   15  C   UNL     1      27.394  44.338  53.635  1.00  0.00     0.032 A 
HETATM   16  C   UNL     1      27.527  45.499  54.400  1.00  0.00     0.020 A 
HETATM   17  C   UNL     1      28.677  45.676  55.173  1.00  0.00     0.038 A 
HETATM   18  C   UNL     1      29.691  44.710  55.182  1.00  0.00     0.069 A 
HETATM   19  C   UNL     1      29.575  43.587  54.364  1.00  0.00     0.038 A 
HETATM   20  C   UNL     1      28.417  43.388  53.606  1.00  0.00     0.020 A 
BRANCH  18  21
HETATM   21  O   UNL     1      30.707  44.971  56.057  1.00  0.00    -0.347 OA
BRANCH  21  22
HETATM   22  C   UNL     1      30.752  44.278  57.312  1.00  0.00     0.120 C 
HETATM   23  C   UNL     1      30.978  45.256  58.465  1.00  0.00     0.040 C 
HETATM   24  C   UNL     1      31.932  43.310  57.232  1.00  0.00     0.040 C 
ENDBRANCH  21  22
ENDBRANCH  18  21
ENDBRANCH  12  15
ENDBRANCH   9  11
ENDBRANCH   7   9
ENDBRANCH   1   7
BRANCH   4  25
HETATM   25  N   UNL     1      22.909  48.961  48.261  1.00  0.00    -0.378 N 
HETATM   26  C   UNL     1      22.969  50.195  49.074  1.00  0.00     0.150 C 
HETATM   27  C   UNL     1      21.767  50.306  50.043  1.00  0.00     0.255 C 
HETATM   28  N   UNL     1      20.431  50.125  49.315  1.00  0.00    -0.064 N 
HETATM   29  H   UNL     1      20.314  50.942  48.705  1.00  0.00     0.280 HD
HETATM   30  C   UNL     1      20.430  48.877  48.424  1.00  0.00     0.255 C 
HETATM   31  C   UNL     1      21.651  48.881  47.478  1.00  0.00     0.150 C 
BRANCH  28  32
HETATM   32  C   UNL     1      19.256  50.101  50.268  1.00  0.00     0.273 C 
BRANCH  32  33
HETATM   33  C   UNL     1      18.069  50.873  49.760  1.00  0.00    -0.033 A 
HETATM   34  C   UNL     1      17.067  50.232  49.015  1.00  0.00     0.009 A 
HETATM   35  C   UNL     1      15.985  50.959  48.515  1.00  0.00     0.001 A 
HETATM   36  C   UNL     1      15.894  52.329  48.750  1.00  0.00     0.000 A 
HETATM   37  C   UNL     1      16.880  52.976  49.491  1.00  0.00     0.001 A 
HETATM   38  C   UNL     1      17.962  52.253  49.998  1.00  0.00     0.009 A 
ENDBRANCH  32  33
ENDBRANCH  28  32
ENDBRANCH   4  25
TORSDOF 9
ENDMDL
MODEL 3
REMARK VINA RESULT:      -9.2      1.837      2.604
REMARK  9 active torsions:
REMARK  status: ('A' for Active; 'I' for Inactive)
REMARK    1  A    between atoms: C_2  and  O_3 
REMARK    2  A    between atoms: O_3  and  C_4 
REMARK    3  A    between atoms: C_7  and  C_8 
REMARK       I    between atoms: C_8  and  N_9 
REMARK    4  A    between atoms: N_9  and  C_10 
REMARK    5  A    between atoms: C_10  and  N_11 
REMARK    6  A    between atoms: N_11  and  C_12 
REMARK    7  A    between atoms: C_15  and  N_16 
REMARK    8  A    between atoms: N_19  and  C_21 
REMARK    9  A    between atoms: C_21  and  C_22 
ROOT
HETATM    1  C   UNL     1      22.632  44.464  49.364  1.00  0.00     0.034 C 
HETATM    2  C   UNL     1      22.999  43.122  49.415  1.00  0.00     0.032 C 
HETATM    3  C   UNL     1      24.347  42.750  49.397  1.00  0.00     0.031 C 
HETATM    4  C   UNL     1      25.370  43.707  49.380  1.00  0.00     0.030 C 
HETATM    5  C   UNL     1      24.968  45.041  49.180  1.00  0.00     0.031 C 
HETATM    6  C   UNL     1      23.617  45.420  49.159  1.00  0.00     0.032 C 
ENDROOT
BRANCH   1   7
HETATM    7  N   UNL     1      21.291  44.871  49.494  1.00  0.00    -0.333 N 
HETATM    8  H   UNL     1      20.843  44.707  50.390  1.00  0.00     0.168 HD
BRANCH   7   9
HETATM    9  C   UNL     1      20.535  45.523  48.565  1.00  0.00     0.179 C 
HETATM   10  S   UNL     1      20.190  44.799  47.104  1.00  0.00    -0.040 SA
BRANCH   9  11
HETATM   11  N   UNL     1      20.079  46.792  48.812  1.00  0.00    -0.299 N 
HETATM   12  C   UNL     1      20.765  47.965  48.536  1.00  0.00     0.257 C 
HETATM   13  O   UNL     1      21.819  48.082  47.922  1.00  0.00    -0.267 OA
HETATM   14  H   UNL     1      19.070  46.872  48.847  1.00  0.00     0.171 HD
BRANCH  12  15
HETATM   15  C   UNL     1      20.114  49.204  48.998  1.00  0.00     0.032 A 
HETATM   16  C   UNL     1      20.343  50.407  48.329  1.00  0.00     0.020 A 
HETATM   17  C   UNL     1      19.561  51.521  48.644  1.00  0.00     0.038 A 
HETATM   18  C   UNL     1      18.561  51.442  49.621  1.00  0.00     0.069 A 
HETATM   19  C   UNL     1      18.386  50.252  50.327  1.00  0.00     0.038 A 
HETATM   20  C   UNL     1      19.147  49.125  50.003  1.00  0.00     0.020 A 
BRANCH  18  21
HETATM   21  O   UNL     1      17.813  52.577  49.752  1.00  0.00    -0.347 OA
BRANCH  21  22
HETATM   22  C   UNL     1      16.387  52.472  49.868  1.00  0.00     0.120 C 
HETATM   23  C   UNL     1      15.763  52.056  48.536  1.00  0.00     0.040 C 
HETATM   24  C   UNL     1      15.878  53.861  50.252  1.00  0.00     0.040 C 
ENDBRANCH  21  22
ENDBRANCH  18  21
ENDBRANCH  12  15
ENDBRANCH   9  11
ENDBRANCH   7   9
ENDBRANCH   1   7
BRANCH   4  25
HETATM   25  N   UNL     1      26.728  43.387  49.552  1.00  0.00    -0.378 N 
HETATM   26  C   UNL     1      27.103  42.051  50.062  1.00  0.00     0.150 C 
HETATM   27  C   UNL     1      26.961  41.960  51.600  1.00  0.00     0.255 C 
HETATM   28  N   UNL     1      27.693  43.105  52.307  1.00  0.00    -0.064 N 
HETATM   29  H   UNL     1      28.697  42.952  52.157  1.00  0.00     0.280 HD
HETATM   30  C   UNL     1      27.338  44.469  51.704  1.00  0.00     0.255 C 
HETATM   31  C   UNL     1      27.543  44.460  50.174  1.00  0.00     0.150 C 
BRANCH  28  32
HETATM   32  C   UNL     1      27.456  43.105  53.802  1.00  0.00     0.273 C 
BRANCH  32  33
HETATM   33  C   UNL     1      28.608  43.673  54.582  1.00  0.00    -0.033 A 
HETATM   34  C   UNL     1      29.811  42.959  54.701  1.00  0.00     0.009 A 
HETATM   35  C   UNL     1      30.867  43.475  55.455  1.00  0.00     0.001 A 
HETATM   36  C   UNL     1      30.732  44.702  56.100  1.00  0.00     0.000 A 
HETATM   37  C   UNL     1      29.545  45.423  55.986  1.00  0.00     0.001 A 
HETATM   38  C   UNL     1      28.488  44.914  55.228  1.00  0.00     0.009 A 
ENDBRANCH  32  33
ENDBRANCH  28  32
ENDBRANCH   4  25
TORSDOF 9
ENDMDL
MODEL 4
REMARK VINA RESULT:      -8.6      3.269     11.643
REMARK  9 active torsions:
REMARK  status: ('A' for Active; 'I' for Inactive)
REMARK    1  A    between atoms: C_2  and  O_3 
REMARK    2  A    between atoms: O_3  and  C_4 
REMARK    3  A    between atoms: C_7  and  C_8 
REMARK       I    between atoms: C_8  and  N_9 
REMARK    4  A    between atoms: N_9  and  C_10 
REMARK    5  A    between atoms: C_10  and  N_11 
REMARK    6  A    between atoms: N_11  and  C_12 
REMARK    7  A    between atoms: C_15  and  N_16 
REMARK    8  A    between atoms: N_19  and  C_21 
REMARK    9  A    between atoms: C_21  and  C_22 
ROOT
HETATM    1  C   UNL     1      23.716  42.644  49.925  1.00  0.00     0.034 C 
HETATM    2  C   UNL     1      23.211  42.066  48.764  1.00  0.00     0.032 C 
HETATM    3  C   UNL     1      22.409  42.806  47.890  1.00  0.00     0.031 C 
HETATM    4  C   UNL     1      22.128  44.158  48.121  1.00  0.00     0.030 C 
HETATM    5  C   UNL     1      22.527  44.669  49.371  1.00  0.00     0.031 C 
HETATM    6  C   UNL     1      23.301  43.922  50.272  1.00  0.00     0.032 C 
ENDROOT
BRANCH   1   7
HETATM    7  N   UNL     1      24.615  41.960  50.764  1.00  0.00    -0.333 N 
HETATM    8  H   UNL     1      24.216  41.356  51.476  1.00  0.00     0.168 HD
BRANCH   7   9
HETATM    9  C   UNL     1      25.977  41.968  50.693  1.00  0.00     0.179 C 
HETATM   10  S   UNL     1      26.748  41.493  49.293  1.00  0.00    -0.040 SA
BRANCH   9  11
HETATM   11  N   UNL     1      26.724  42.337  51.780  1.00  0.00    -0.299 N 
HETATM   12  C   UNL     1      26.681  43.573  52.408  1.00  0.00     0.257 C 
HETATM   13  O   UNL     1      25.896  44.490  52.190  1.00  0.00    -0.267 OA
HETATM   14  H   UNL     1      27.031  41.563  52.357  1.00  0.00     0.171 HD
BRANCH  12  15
HETATM   15  C   UNL     1      27.663  43.771  53.488  1.00  0.00     0.032 A 
HETATM   16  C   UNL     1      28.793  42.954  53.566  1.00  0.00     0.020 A 
HETATM   17  C   UNL     1      29.813  43.287  54.460  1.00  0.00     0.038 A 
HETATM   18  C   UNL     1      29.711  44.422  55.275  1.00  0.00     0.069 A 
HETATM   19  C   UNL     1      28.549  45.192  55.233  1.00  0.00     0.038 A 
HETATM   20  C   UNL     1      27.533  44.881  54.326  1.00  0.00     0.020 A 
BRANCH  18  21
HETATM   21  O   UNL     1      30.824  44.676  56.025  1.00  0.00    -0.347 OA
BRANCH  21  22
HETATM   22  C   UNL     1      30.930  44.116  57.341  1.00  0.00     0.120 C 
HETATM   23  C   UNL     1      30.993  45.218  58.398  1.00  0.00     0.040 C 
HETATM   24  C   UNL     1      32.231  43.314  57.369  1.00  0.00     0.040 C 
ENDBRANCH  21  22
ENDBRANCH  18  21
ENDBRANCH  12  15
ENDBRANCH   9  11
ENDBRANCH   7   9
ENDBRANCH   1   7
BRANCH   4  25
HETATM   25  N   UNL     1      21.490  44.985  47.181  1.00  0.00    -0.378 N 
HETATM   26  C   UNL     1      21.937  46.385  47.020  1.00  0.00     0.150 C 
HETATM   27  C   UNL     1      21.357  47.307  48.119  1.00  0.00     0.255 C 
HETATM   28  N   UNL     1      19.835  47.168  48.232  1.00  0.00    -0.064 N 
HETATM   29  H   UNL     1      19.438  47.556  47.370  1.00  0.00     0.280 HD
HETATM   30  C   UNL     1      19.401  45.700  48.323  1.00  0.00     0.255 C 
HETATM   31  C   UNL     1      20.009  44.878  47.166  1.00  0.00     0.150 C 
BRANCH  28  32
HETATM   32  C   UNL     1      19.269  47.964  49.388  1.00  0.00     0.273 C 
BRANCH  32  33
HETATM   33  C   UNL     1      19.173  49.436  49.099  1.00  0.00    -0.033 A 
HETATM   34  C   UNL     1      19.062  49.898  47.778  1.00  0.00     0.009 A 
HETATM   35  C   UNL     1      19.008  51.268  47.511  1.00  0.00     0.001 A 
HETATM   36  C   UNL     1      19.069  52.187  48.556  1.00  0.00     0.000 A 
HETATM   37  C   UNL     1      19.175  51.741  49.871  1.00  0.00     0.001 A 
HETATM   38  C   UNL     1      19.223  50.373  50.144  1.00  0.00     0.009 A 
ENDBRANCH  32  33
ENDBRANCH  28  32
ENDBRANCH   4  25
TORSDOF 9
ENDMDL
MODEL 5
REMARK VINA RESULT:      -8.4      1.759      2.525
REMARK  9 active torsions:
REMARK  status: ('A' for Active; 'I' for Inactive)
REMARK    1  A    between atoms: C_2  and  O_3 
REMARK    2  A    between atoms: O_3  and  C_4 
REMARK    3  A    between atoms: C_7  and  C_8 
REMARK       I    between atoms: C_8  and  N_9 
REMARK    4  A    between atoms: N_9  and  C_10 
REMARK    5  A    between atoms: C_10  and  N_11 
REMARK    6  A    between atoms: N_11  and  C_12 
REMARK    7  A    between atoms: C_15  and  N_16 
REMARK    8  A    between atoms: N_19  and  C_21 
REMARK    9  A    between atoms: C_21  and  C_22 
ROOT
HETATM    1  C   UNL     1      24.616  43.609  49.023  1.00  0.00     0.034 C 
HETATM    2  C   UNL     1      24.354  42.794  50.120  1.00  0.00     0.032 C 
HETATM    3  C   UNL     1      24.579  43.255  51.422  1.00  0.00     0.031 C 
HETATM    4  C   UNL     1      25.024  44.559  51.669  1.00  0.00     0.030 C 
HETATM    5  C   UNL     1      25.420  45.304  50.541  1.00  0.00     0.031 C 
HETATM    6  C   UNL     1      25.232  44.835  49.232  1.00  0.00     0.032 C 
ENDROOT
BRANCH   1   7
HETATM    7  N   UNL     1      24.294  43.214  47.711  1.00  0.00    -0.333 N 
HETATM    8  H   UNL     1      24.705  42.349  47.375  1.00  0.00     0.168 HD
BRANCH   7   9
HETATM    9  C   UNL     1      23.435  43.834  46.852  1.00  0.00     0.179 C 
HETATM   10  S   UNL     1      23.226  43.249  45.305  1.00  0.00    -0.040 SA
BRANCH   9  11
HETATM   11  N   UNL     1      22.760  44.960  47.242  1.00  0.00    -0.299 N 
HETATM   12  C   UNL     1      21.593  44.984  47.992  1.00  0.00     0.257 C 
HETATM   13  O   UNL     1      21.040  44.034  48.534  1.00  0.00    -0.267 OA
HETATM   14  H   UNL     1      23.336  45.791  47.302  1.00  0.00     0.171 HD
BRANCH  12  15
HETATM   15  C   UNL     1      20.992  46.315  48.188  1.00  0.00     0.032 A 
HETATM   16  C   UNL     1      21.711  47.464  47.855  1.00  0.00     0.020 A 
HETATM   17  C   UNL     1      21.056  48.698  47.846  1.00  0.00     0.038 A 
HETATM   18  C   UNL     1      19.697  48.791  48.171  1.00  0.00     0.069 A 
HETATM   19  C   UNL     1      19.007  47.644  48.564  1.00  0.00     0.038 A 
HETATM   20  C   UNL     1      19.647  46.402  48.553  1.00  0.00     0.020 A 
BRANCH  18  21
HETATM   21  O   UNL     1      19.169  50.042  48.024  1.00  0.00    -0.347 OA
BRANCH  21  22
HETATM   22  C   UNL     1      19.342  51.007  49.071  1.00  0.00     0.120 C 
HETATM   23  C   UNL     1      18.199  50.922  50.083  1.00  0.00     0.040 C 
HETATM   24  C   UNL     1      19.324  52.381  48.403  1.00  0.00     0.040 C 
ENDBRANCH  21  22
ENDBRANCH  18  21
ENDBRANCH  12  15
ENDBRANCH   9  11
ENDBRANCH   7   9
ENDBRANCH   1   7
BRANCH   4  25
HETATM   25  N   UNL     1      25.083  45.123  52.955  1.00  0.00    -0.378 N 
HETATM   26  C   UNL     1      25.849  46.370  53.169  1.00  0.00     0.150 C 
HETATM   27  C   UNL     1      27.367  46.101  53.295  1.00  0.00     0.255 C 
HETATM   28  N   UNL     1      27.668  45.020  54.338  1.00  0.00    -0.064 N 
HETATM   29  H   UNL     1      27.426  45.417  55.253  1.00  0.00     0.280 HD
HETATM   30  C   UNL     1      26.804  43.771  54.132  1.00  0.00     0.255 C 
HETATM   31  C   UNL     1      25.309  44.147  54.050  1.00  0.00     0.150 C 
BRANCH  28  32
HETATM   32  C   UNL     1      29.135  44.654  54.381  1.00  0.00     0.273 C 
BRANCH  32  33
HETATM   33  C   UNL     1      29.733  44.768  55.756  1.00  0.00    -0.033 A 
HETATM   34  C   UNL     1      29.298  45.767  56.641  1.00  0.00     0.009 A 
HETATM   35  C   UNL     1      29.879  45.893  57.905  1.00  0.00     0.001 A 
HETATM   36  C   UNL     1      30.899  45.027  58.294  1.00  0.00     0.000 A 
HETATM   37  C   UNL     1      31.336  44.028  57.427  1.00  0.00     0.001 A 
HETATM   38  C   UNL     1      30.754  43.895  56.165  1.00  0.00     0.009 A 
ENDBRANCH  32  33
ENDBRANCH  28  32
ENDBRANCH   4  25
TORSDOF 9
ENDMDL
MODEL 6
REMARK VINA RESULT:      -8.3      1.843      3.098
REMARK  9 active torsions:
REMARK  status: ('A' for Active; 'I' for Inactive)
REMARK    1  A    between atoms: C_2  and  O_3 
REMARK    2  A    between atoms: O_3  and  C_4 
REMARK    3  A    between atoms: C_7  and  C_8 
REMARK       I    between atoms: C_8  and  N_9 
REMARK    4  A    between atoms: N_9  and  C_10 
REMARK    5  A    between atoms: C_10  and  N_11 
REMARK    6  A    between atoms: N_11  and  C_12 
REMARK    7  A    between atoms: C_15  and  N_16 
REMARK    8  A    between atoms: N_19  and  C_21 
REMARK    9  A    between atoms: C_21  and  C_22 
ROOT
HETATM    1  C   UNL     1      24.412  45.195  50.054  1.00  0.00     0.034 C 
HETATM    2  C   UNL     1      24.023  44.075  50.782  1.00  0.00     0.032 C 
HETATM    3  C   UNL     1      24.946  43.073  51.099  1.00  0.00     0.031 C 
HETATM    4  C   UNL     1      26.296  43.184  50.743  1.00  0.00     0.030 C 
HETATM    5  C   UNL     1      26.626  44.249  49.883  1.00  0.00     0.031 C 
HETATM    6  C   UNL     1      25.697  45.240  49.530  1.00  0.00     0.032 C 
ENDROOT
BRANCH   1   7
HETATM    7  N   UNL     1      23.534  46.269  49.818  1.00  0.00    -0.333 N 
HETATM    8  H   UNL     1      23.631  47.085  50.414  1.00  0.00     0.168 HD
BRANCH   7   9
HETATM    9  C   UNL     1      22.597  46.365  48.832  1.00  0.00     0.179 C 
HETATM   10  S   UNL     1      22.525  45.218  47.625  1.00  0.00    -0.040 SA
BRANCH   9  11
HETATM   11  N   UNL     1      21.725  47.423  48.808  1.00  0.00    -0.299 N 
HETATM   12  C   UNL     1      22.011  48.715  49.222  1.00  0.00     0.257 C 
HETATM   13  O   UNL     1      23.102  49.164  49.556  1.00  0.00    -0.267 OA
HETATM   14  H   UNL     1      20.985  47.336  48.122  1.00  0.00     0.171 HD
BRANCH  12  15
HETATM   15  C   UNL     1      20.875  49.652  49.206  1.00  0.00     0.032 A 
HETATM   16  C   UNL     1      19.748  49.401  49.991  1.00  0.00     0.020 A 
HETATM   17  C   UNL     1      18.778  50.397  50.129  1.00  0.00     0.038 A 
HETATM   18  C   UNL     1      18.923  51.633  49.486  1.00  0.00     0.069 A 
HETATM   19  C   UNL     1      20.021  51.847  48.653  1.00  0.00     0.038 A 
HETATM   20  C   UNL     1      21.009  50.866  48.528  1.00  0.00     0.020 A 
BRANCH  18  21
HETATM   21  O   UNL     1      17.949  52.541  49.789  1.00  0.00    -0.347 OA
BRANCH  21  22
HETATM   22  C   UNL     1      16.571  52.159  49.682  1.00  0.00     0.120 C 
HETATM   23  C   UNL     1      16.160  52.010  48.217  1.00  0.00     0.040 C 
HETATM   24  C   UNL     1      15.757  53.282  50.323  1.00  0.00     0.040 C 
ENDBRANCH  21  22
ENDBRANCH  18  21
ENDBRANCH  12  15
ENDBRANCH   9  11
ENDBRANCH   7   9
ENDBRANCH   1   7
BRANCH   4  25
HETATM   25  N   UNL     1      27.289  42.301  51.200  1.00  0.00    -0.378 N 
HETATM   26  C   UNL     1      27.036  41.481  52.405  1.00  0.00     0.150 C 
HETATM   27  C   UNL     1      27.254  42.288  53.707  1.00  0.00     0.255 C 
HETATM   28  N   UNL     1      28.619  42.983  53.724  1.00  0.00    -0.064 N 
HETATM   29  H   UNL     1      29.327  42.242  53.788  1.00  0.00     0.280 HD
HETATM   30  C   UNL     1      28.880  43.762  52.430  1.00  0.00     0.255 C 
HETATM   31  C   UNL     1      28.664  42.859  51.196  1.00  0.00     0.150 C 
BRANCH  28  32
HETATM   32  C   UNL     1      28.795  43.879  54.931  1.00  0.00     0.273 C 
BRANCH  32  33
HETATM   33  C   UNL     1      28.060  45.185  54.807  1.00  0.00    -0.033 A 
HETATM   34  C   UNL     1      28.722  46.401  55.042  1.00  0.00     0.009 A 
HETATM   35  C   UNL     1      28.029  47.610  54.960  1.00  0.00     0.001 A 
HETATM   36  C   UNL     1      26.671  47.617  54.647  1.00  0.00     0.000 A 
HETATM   37  C   UNL     1      26.004  46.419  54.407  1.00  0.00     0.001 A 
HETATM   38  C   UNL     1      26.694  45.207  54.482  1.00  0.00     0.009 A 
ENDBRANCH  32  33
ENDBRANCH  28  32
ENDBRANCH   4  25
TORSDOF 9
ENDMDL
MODEL 7
REMARK VINA RESULT:      -8.1      1.834      2.488
REMARK  9 active torsions:
REMARK  status: ('A' for Active; 'I' for Inactive)
REMARK    1  A    between atoms: C_2  and  O_3 
REMARK    2  A    between atoms: O_3  and  C_4 
REMARK    3  A    between atoms: C_7  and  C_8 
REMARK       I    between atoms: C_8  and  N_9 
REMARK    4  A    between atoms: N_9  and  C_10 
REMARK    5  A    between atoms: C_10  and  N_11 
REMARK    6  A    between atoms: N_11  and  C_12 
REMARK    7  A    between atoms: C_15  and  N_16 
REMARK    8  A    between atoms: N_19  and  C_21 
REMARK    9  A    between atoms: C_21  and  C_22 
ROOT
HETATM    1  C   UNL     1      25.027  44.076  49.524  1.00  0.00     0.034 C 
HETATM    2  C   UNL     1      24.750  44.143  50.886  1.00  0.00     0.032 C 
HETATM    3  C   UNL     1      25.473  43.369  51.800  1.00  0.00     0.031 C 
HETATM    4  C   UNL     1      26.527  42.544  51.387  1.00  0.00     0.030 C 
HETATM    5  C   UNL     1      26.683  42.386  49.997  1.00  0.00     0.031 C 
HETATM    6  C   UNL     1      25.937  43.131  49.071  1.00  0.00     0.032 C 
ENDROOT
BRANCH   1   7
HETATM    7  N   UNL     1      24.394  44.924  48.596  1.00  0.00    -0.333 N 
HETATM    8  H   UNL     1      24.973  45.620  48.136  1.00  0.00     0.168 HD
BRANCH   7   9
HETATM    9  C   UNL     1      23.092  44.879  48.194  1.00  0.00     0.179 C 
HETATM   10  S   UNL     1      22.400  43.430  47.746  1.00  0.00    -0.040 SA
BRANCH   9  11
HETATM   11  N   UNL     1      22.350  46.029  48.125  1.00  0.00    -0.299 N 
HETATM   12  C   UNL     1      22.719  47.261  48.645  1.00  0.00     0.257 C 
HETATM   13  O   UNL     1      23.801  47.567  49.133  1.00  0.00    -0.267 OA
HETATM   14  H   UNL     1      21.697  46.058  47.351  1.00  0.00     0.171 HD
BRANCH  12  15
HETATM   15  C   UNL     1      21.701  48.322  48.546  1.00  0.00     0.032 A 
HETATM   16  C   UNL     1      21.896  49.542  49.195  1.00  0.00     0.020 A 
HETATM   17  C   UNL     1      21.032  50.605  48.920  1.00  0.00     0.038 A 
HETATM   18  C   UNL     1      19.979  50.456  48.009  1.00  0.00     0.069 A 
HETATM   19  C   UNL     1      19.757  49.213  47.416  1.00  0.00     0.038 A 
HETATM   20  C   UNL     1      20.630  48.150  47.667  1.00  0.00     0.020 A 
BRANCH  18  21
HETATM   21  O   UNL     1      19.279  51.604  47.767  1.00  0.00    -0.347 OA
BRANCH  21  22
HETATM   22  C   UNL     1      17.873  51.528  47.496  1.00  0.00     0.120 C 
HETATM   23  C   UNL     1      17.507  52.380  46.280  1.00  0.00     0.040 C 
HETATM   24  C   UNL     1      17.161  52.078  48.731  1.00  0.00     0.040 C 
ENDBRANCH  21  22
ENDBRANCH  18  21
ENDBRANCH  12  15
ENDBRANCH   9  11
ENDBRANCH   7   9
ENDBRANCH   1   7
BRANCH   4  25
HETATM   25  N   UNL     1      27.397  41.899  52.283  1.00  0.00    -0.378 N 
HETATM   26  C   UNL     1      27.079  41.887  53.727  1.00  0.00     0.150 C 
HETATM   27  C   UNL     1      27.472  43.217  54.415  1.00  0.00     0.255 C 
HETATM   28  N   UNL     1      28.924  43.603  54.119  1.00  0.00    -0.064 N 
HETATM   29  H   UNL     1      29.516  42.912  54.593  1.00  0.00     0.280 HD
HETATM   30  C   UNL     1      29.240  43.532  52.620  1.00  0.00     0.255 C 
HETATM   31  C   UNL     1      28.838  42.158  52.041  1.00  0.00     0.150 C 
BRANCH  28  32
HETATM   32  C   UNL     1      29.283  44.963  54.676  1.00  0.00     0.273 C 
BRANCH  32  33
HETATM   33  C   UNL     1      30.037  44.888  55.975  1.00  0.00    -0.033 A 
HETATM   34  C   UNL     1      30.942  43.842  56.215  1.00  0.00     0.009 A 
HETATM   35  C   UNL     1      31.614  43.756  57.436  1.00  0.00     0.001 A 
HETATM   36  C   UNL     1      31.387  44.708  58.427  1.00  0.00     0.000 A 
HETATM   37  C   UNL     1      30.495  45.753  58.200  1.00  0.00     0.001 A 
HETATM   38  C   UNL     1      29.825  45.847  56.979  1.00  0.00     0.009 A 
ENDBRANCH  32  33
ENDBRANCH  28  32
ENDBRANCH   4  25
TORSDOF 9
ENDMDL
MODEL 8
REMARK VINA RESULT:      -8.1      3.145     11.669
REMARK  9 active torsions:
REMARK  status: ('A' for Active; 'I' for Inactive)
REMARK    1  A    between atoms: C_2  and  O_3 
REMARK    2  A    between atoms: O_3  and  C_4 
REMARK    3  A    between atoms: C_7  and  C_8 
REMARK       I    between atoms: C_8  and  N_9 
REMARK    4  A    between atoms: N_9  and  C_10 
REMARK    5  A    between atoms: C_10  and  N_11 
REMARK    6  A    between atoms: N_11  and  C_12 
REMARK    7  A    between atoms: C_15  and  N_16 
REMARK    8  A    between atoms: N_19  and  C_21 
REMARK    9  A    between atoms: C_21  and  C_22 
ROOT
HETATM    1  C   UNL     1      23.356  46.952  49.525  1.00  0.00     0.034 C 
HETATM    2  C   UNL     1      22.545  47.979  49.049  1.00  0.00     0.032 C 
HETATM    3  C   UNL     1      21.571  47.727  48.078  1.00  0.00     0.031 C 
HETATM    4  C   UNL     1      21.343  46.435  47.589  1.00  0.00     0.030 C 
HETATM    5  C   UNL     1      22.272  45.451  47.977  1.00  0.00     0.031 C 
HETATM    6  C   UNL     1      23.277  45.704  48.924  1.00  0.00     0.032 C 
ENDROOT
BRANCH   1   7
HETATM    7  N   UNL     1      24.265  47.154  50.580  1.00  0.00    -0.333 N 
HETATM    8  H   UNL     1      23.882  47.187  51.520  1.00  0.00     0.168 HD
BRANCH   7   9
HETATM    9  C   UNL     1      25.622  47.250  50.491  1.00  0.00     0.179 C 
HETATM   10  S   UNL     1      26.321  48.311  49.411  1.00  0.00    -0.040 SA
BRANCH   9  11
HETATM   11  N   UNL     1      26.424  46.454  51.266  1.00  0.00    -0.299 N 
HETATM   12  C   UNL     1      26.218  45.107  51.525  1.00  0.00     0.257 C 
HETATM   13  O   UNL     1      25.376  44.374  51.017  1.00  0.00    -0.267 OA
HETATM   14  H   UNL     1      27.383  46.772  51.336  1.00  0.00     0.171 HD
BRANCH  12  15
HETATM   15  C   UNL     1      27.155  44.493  52.481  1.00  0.00     0.032 A 
HETATM   16  C   UNL     1      28.289  43.823  52.020  1.00  0.00     0.020 A 
HETATM   17  C   UNL     1      29.271  43.436  52.934  1.00  0.00     0.038 A 
HETATM   18  C   UNL     1      29.125  43.707  54.301  1.00  0.00     0.069 A 
HETATM   19  C   UNL     1      27.959  44.320  54.756  1.00  0.00     0.038 A 
HETATM   20  C   UNL     1      26.981  44.733  53.846  1.00  0.00     0.020 A 
BRANCH  18  21
HETATM   21  O   UNL     1      30.206  43.359  55.061  1.00  0.00    -0.347 OA
BRANCH  21  22
HETATM   22  C   UNL     1      30.408  43.994  56.330  1.00  0.00     0.120 C 
HETATM   23  C   UNL     1      30.729  45.478  56.151  1.00  0.00     0.040 C 
HETATM   24  C   UNL     1      31.600  43.295  56.982  1.00  0.00     0.040 C 
ENDBRANCH  21  22
ENDBRANCH  18  21
ENDBRANCH  12  15
ENDBRANCH   9  11
ENDBRANCH   7   9
ENDBRANCH   1   7
BRANCH   4  25
HETATM   25  N   UNL     1      20.257  46.105  46.760  1.00  0.00    -0.378 N 
HETATM   26  C   UNL     1      19.844  47.042  45.693  1.00  0.00     0.150 C 
HETATM   27  C   UNL     1      18.978  48.199  46.245  1.00  0.00     0.255 C 
HETATM   28  N   UNL     1      17.805  47.681  47.083  1.00  0.00    -0.064 N 
HETATM   29  H   UNL     1      17.168  47.203  46.436  1.00  0.00     0.280 HD
HETATM   30  C   UNL     1      18.257  46.657  48.129  1.00  0.00     0.255 C 
HETATM   31  C   UNL     1      19.086  45.532  47.470  1.00  0.00     0.150 C 
BRANCH  28  32
HETATM   32  C   UNL     1      17.025  48.802  47.736  1.00  0.00     0.273 C 
BRANCH  32  33
HETATM   33  C   UNL     1      17.907  49.847  48.363  1.00  0.00    -0.033 A 
HETATM   34  C   UNL     1      18.516  49.613  49.606  1.00  0.00     0.009 A 
HETATM   35  C   UNL     1      19.306  50.599  50.201  1.00  0.00     0.001 A 
HETATM   36  C   UNL     1      19.492  51.824  49.565  1.00  0.00     0.000 A 
HETATM   37  C   UNL     1      18.896  52.067  48.330  1.00  0.00     0.001 A 
HETATM   38  C   UNL     1      18.110  51.082  47.728  1.00  0.00     0.009 A 
ENDBRANCH  32  33
ENDBRANCH  28  32
ENDBRANCH   4  25
TORSDOF 9
ENDMDL
MODEL 9
REMARK VINA RESULT:      -8.0      2.416      3.453
REMARK  9 active torsions:
REMARK  status: ('A' for Active; 'I' for Inactive)
REMARK    1  A    between atoms: C_2  and  O_3 
REMARK    2  A    between atoms: O_3  and  C_4 
REMARK    3  A    between atoms: C_7  and  C_8 
REMARK       I    between atoms: C_8  and  N_9 
REMARK    4  A    between atoms: N_9  and  C_10 
REMARK    5  A    between atoms: C_10  and  N_11 
REMARK    6  A    between atoms: N_11  and  C_12 
REMARK    7  A    between atoms: C_15  and  N_16 
REMARK    8  A    between atoms: N_19  and  C_21 
REMARK    9  A    between atoms: C_21  and  C_22 
ROOT
HETATM    1  C   UNL     1      22.641  44.019  48.080  1.00  0.00     0.034 C 
HETATM    2  C   UNL     1      22.494  45.251  48.709  1.00  0.00     0.032 C 
HETATM    3  C   UNL     1      23.575  45.854  49.360  1.00  0.00     0.031 C 
HETATM    4  C   UNL     1      24.848  45.269  49.359  1.00  0.00     0.030 C 
HETATM    5  C   UNL     1      24.929  43.960  48.847  1.00  0.00     0.031 C 
HETATM    6  C   UNL     1      23.839  43.332  48.224  1.00  0.00     0.032 C 
ENDROOT
BRANCH   1   7
HETATM    7  N   UNL     1      21.604  43.443  47.323  1.00  0.00    -0.333 N 
HETATM    8  H   UNL     1      21.372  42.474  47.517  1.00  0.00     0.168 HD
BRANCH   7   9
HETATM    9  C   UNL     1      20.824  44.061  46.390  1.00  0.00     0.179 C 
HETATM   10  S   UNL     1      20.651  43.403  44.869  1.00  0.00    -0.040 SA
BRANCH   9  11
HETATM   11  N   UNL     1      20.201  45.245  46.686  1.00  0.00    -0.299 N 
HETATM   12  C   UNL     1      19.106  45.395  47.524  1.00  0.00     0.257 C 
HETATM   13  O   UNL     1      18.592  44.538  48.234  1.00  0.00    -0.267 OA
HETATM   14  H   UNL     1      20.790  46.063  46.584  1.00  0.00     0.171 HD
BRANCH  12  15
HETATM   15  C   UNL     1      18.542  46.754  47.595  1.00  0.00     0.032 A 
HETATM   16  C   UNL     1      17.449  47.017  48.423  1.00  0.00     0.020 A 
HETATM   17  C   UNL     1      17.063  48.342  48.640  1.00  0.00     0.038 A 
HETATM   18  C   UNL     1      17.755  49.399  48.035  1.00  0.00     0.069 A 
HETATM   19  C   UNL     1      18.804  49.119  47.160  1.00  0.00     0.038 A 
HETATM   20  C   UNL     1      19.213  47.798  46.955  1.00  0.00     0.020 A 
BRANCH  18  21
HETATM   21  O   UNL     1      17.329  50.640  48.416  1.00  0.00    -0.347 OA
BRANCH  21  22
HETATM   22  C   UNL     1      18.122  51.407  49.332  1.00  0.00     0.120 C 
HETATM   23  C   UNL     1      19.169  52.234  48.584  1.00  0.00     0.040 C 
HETATM   24  C   UNL     1      18.828  50.404  50.243  1.00  0.00     0.040 C 
ENDBRANCH  21  22
ENDBRANCH  18  21
ENDBRANCH  12  15
ENDBRANCH   9  11
ENDBRANCH   7   9
ENDBRANCH   1   7
BRANCH   4  25
HETATM   25  N   UNL     1      25.997  45.923  49.834  1.00  0.00    -0.378 N 
HETATM   26  C   UNL     1      27.275  45.184  49.914  1.00  0.00     0.150 C 
HETATM   27  C   UNL     1      27.348  44.293  51.178  1.00  0.00     0.255 C 
HETATM   28  N   UNL     1      27.026  45.083  52.450  1.00  0.00    -0.064 N 
HETATM   29  H   UNL     1      27.796  45.747  52.589  1.00  0.00     0.280 HD
HETATM   30  C   UNL     1      25.734  45.897  52.306  1.00  0.00     0.255 C 
HETATM   31  C   UNL     1      25.778  46.770  51.033  1.00  0.00     0.150 C 
BRANCH  28  32
HETATM   32  C   UNL     1      26.965  44.200  53.677  1.00  0.00     0.273 C 
BRANCH  32  33
HETATM   33  C   UNL     1      28.260  44.161  54.440  1.00  0.00    -0.033 A 
HETATM   34  C   UNL     1      28.631  45.230  55.270  1.00  0.00     0.009 A 
HETATM   35  C   UNL     1      29.850  45.206  55.950  1.00  0.00     0.001 A 
HETATM   36  C   UNL     1      30.710  44.119  55.806  1.00  0.00     0.000 A 
HETATM   37  C   UNL     1      30.351  43.050  54.989  1.00  0.00     0.001 A 
HETATM   38  C   UNL     1      29.131  43.066  54.311  1.00  0.00     0.009 A 
ENDBRANCH  32  33
ENDBRANCH  28  32
ENDBRANCH   4  25
TORSDOF 9
ENDMDL
MODEL 10
REMARK VINA RESULT:      -7.9     13.755     17.731
REMARK  9 active torsions:
REMARK  status: ('A' for Active; 'I' for Inactive)
REMARK    1  A    between atoms: C_2  and  O_3 
REMARK    2  A    between atoms: O_3  and  C_4 
REMARK    3  A    between atoms: C_7  and  C_8 
REMARK       I    between atoms: C_8  and  N_9 
REMARK    4  A    between atoms: N_9  and  C_10 
REMARK    5  A    between atoms: C_10  and  N_11 
REMARK    6  A    between atoms: N_11  and  C_12 
REMARK    7  A    between atoms: C_15  and  N_16 
REMARK    8  A    between atoms: N_19  and  C_21 
REMARK    9  A    between atoms: C_21  and  C_22 
ROOT
HETATM    1  C   UNL     1      32.914  51.379  42.158  1.00  0.00     0.034 C 
HETATM    2  C   UNL     1      31.903  51.654  43.075  1.00  0.00     0.032 C 
HETATM    3  C   UNL     1      30.746  52.333  42.679  1.00  0.00     0.031 C 
HETATM    4  C   UNL     1      30.541  52.713  41.347  1.00  0.00     0.030 C 
HETATM    5  C   UNL     1      31.639  52.555  40.480  1.00  0.00     0.031 C 
HETATM    6  C   UNL     1      32.819  51.908  40.878  1.00  0.00     0.032 C 
ENDROOT
BRANCH   1   7
HETATM    7  N   UNL     1      34.035  50.601  42.502  1.00  0.00    -0.333 N 
HETATM    8  H   UNL     1      33.859  49.658  42.834  1.00  0.00     0.168 HD
BRANCH   7   9
HETATM    9  C   UNL     1      35.348  50.949  42.381  1.00  0.00     0.179 C 
HETATM   10  S   UNL     1      36.200  50.554  41.004  1.00  0.00    -0.040 SA
BRANCH   9  11
HETATM   11  N   UNL     1      35.986  51.601  43.404  1.00  0.00    -0.299 N 
HETATM   12  C   UNL     1      36.581  52.851  43.319  1.00  0.00     0.257 C 
HETATM   13  O   UNL     1      36.532  53.634  42.377  1.00  0.00    -0.267 OA
HETATM   14  H   UNL     1      35.683  51.322  44.329  1.00  0.00     0.171 HD
BRANCH  12  15
HETATM   15  C   UNL     1      37.305  53.292  44.524  1.00  0.00     0.032 A 
HETATM   16  C   UNL     1      38.061  52.378  45.260  1.00  0.00     0.020 A 
HETATM   17  C   UNL     1      38.907  52.849  46.267  1.00  0.00     0.038 A 
HETATM   18  C   UNL     1      38.998  54.219  46.545  1.00  0.00     0.069 A 
HETATM   19  C   UNL     1      38.190  55.115  45.845  1.00  0.00     0.038 A 
HETATM   20  C   UNL     1      37.358  54.656  44.819  1.00  0.00     0.020 A 
BRANCH  18  21
HETATM   21  O   UNL     1      39.935  54.541  47.485  1.00  0.00    -0.347 OA
BRANCH  21  22
HETATM   22  C   UNL     1      41.325  54.516  47.131  1.00  0.00     0.120 C 
HETATM   23  C   UNL     1      42.177  54.037  48.306  1.00  0.00     0.040 C 
HETATM   24  C   UNL     1      41.710  55.953  46.781  1.00  0.00     0.040 C 
ENDBRANCH  21  22
ENDBRANCH  18  21
ENDBRANCH  12  15
ENDBRANCH   9  11
ENDBRANCH   7   9
ENDBRANCH   1   7
BRANCH   4  25
HETATM   25  N   UNL     1      29.322  53.225  40.870  1.00  0.00    -0.378 N 
HETATM   26  C   UNL     1      28.050  52.668  41.377  1.00  0.00     0.150 C 
HETATM   27  C   UNL     1      27.683  51.337  40.677  1.00  0.00     0.255 C 
HETATM   28  N   UNL     1      27.720  51.468  39.152  1.00  0.00    -0.064 N 
HETATM   29  H   UNL     1      26.947  52.089  38.889  1.00  0.00     0.280 HD
HETATM   30  C   UNL     1      29.021  52.118  38.665  1.00  0.00     0.255 C 
HETATM   31  C   UNL     1      29.276  53.450  39.403  1.00  0.00     0.150 C 
BRANCH  28  32
HETATM   32  C   UNL     1      27.492  50.144  38.454  1.00  0.00     0.273 C 
BRANCH  32  33
HETATM   33  C   UNL     1      28.382  49.046  38.967  1.00  0.00    -0.033 A 
HETATM   34  C   UNL     1      29.759  49.059  38.696  1.00  0.00     0.009 A 
HETATM   35  C   UNL     1      30.576  48.020  39.144  1.00  0.00     0.001 A 
HETATM   36  C   UNL     1      30.028  46.959  39.861  1.00  0.00     0.000 A 
HETATM   37  C   UNL     1      28.664  46.936  40.140  1.00  0.00     0.001 A 
HETATM   38  C   UNL     1      27.843  47.976  39.700  1.00  0.00     0.009 A 
ENDBRANCH  32  33
ENDBRANCH  28  32
ENDBRANCH   4  25
TORSDOF 9
ENDMDL
