MODEL 1
REMARK VINA RESULT:      -9.9      0.000      0.000
REMARK  9 active torsions:
REMARK  status: ('A' for Active; 'I' for Inactive)
REMARK    1  A    between atoms: C_4  and  S_5 
REMARK    2  A    between atoms: S_5  and  C_6 
REMARK    3  A    between atoms: C_6  and  C_7 
REMARK       I    between atoms: C_7  and  N_8 
REMARK    4  A    between atoms: N_8  and  C_9 
REMARK    5  A    between atoms: C_10  and  O_11 
REMARK    6  A    between atoms: C_16  and  O_17 
REMARK    7  A    between atoms: C_24  and  C_25 
REMARK    8  A    between atoms: C_31  and  C_32 
REMARK       I    between atoms: C_32  and  N_33 
REMARK    9  A    between atoms: N_33  and  C_34 
ROOT
HETATM    1  C   UNL     1      25.688  47.563  54.400  1.00  0.00     0.069 C 
HETATM    2  C   UNL     1      26.033  46.487  53.397  1.00  0.00     0.019 A 
HETATM    3  N   UNL     1      25.002  46.122  52.550  1.00  0.00    -0.353 N 
HETATM    4  C   UNL     1      25.089  45.191  51.534  1.00  0.00     0.087 A 
HETATM    5  C   UNL     1      26.281  44.604  51.278  1.00  0.00     0.055 A 
HETATM    6  C   UNL     1      26.458  43.638  50.119  1.00  0.00     0.019 C 
HETATM    7  N   UNL     1      26.606  42.836  49.157  1.00  0.00    -0.096 N 
HETATM    8  C   UNL     1      27.500  44.865  52.169  1.00  0.00     0.104 A 
HETATM    9  C   UNL     1      27.249  45.894  53.283  1.00  0.00     0.046 A 
HETATM   10  H   UNL     1      24.180  46.718  52.523  1.00  0.00     0.166 HD
ENDROOT
BRANCH   4  11
HETATM   11  S   UNL     1      23.677  44.789  50.580  1.00  0.00    -0.102 SA
BRANCH  11  12
HETATM   12  C   UNL     1      24.080  45.564  48.991  1.00  0.00     0.184 C 
BRANCH  12  13
HETATM   13  C   UNL     1      23.001  46.519  48.486  1.00  0.00     0.231 C 
HETATM   14  N   UNL     1      22.944  47.696  49.225  1.00  0.00    -0.324 N 
HETATM   15  H   UNL     1      23.672  47.820  49.917  1.00  0.00     0.169 HD
HETATM   16  O   UNL     1      22.373  46.261  47.463  1.00  0.00    -0.272 OA
BRANCH  14  17
HETATM   17  C   UNL     1      22.164  48.853  48.971  1.00  0.00     0.071 A 
HETATM   18  C   UNL     1      22.538  49.943  48.163  1.00  0.00     0.096 A 
HETATM   19  C   UNL     1      21.666  51.034  48.025  1.00  0.00     0.065 A 
HETATM   20  C   UNL     1      20.432  51.047  48.677  1.00  0.00     0.070 A 
HETATM   21 CL   UNL     1      19.402  52.419  48.470  1.00  0.00    -0.081 Cl
HETATM   22  C   UNL     1      20.049  49.967  49.468  1.00  0.00     0.092 A 
HETATM   23  C   UNL     1      20.897  48.862  49.582  1.00  0.00     0.071 A 
BRANCH  18  24
HETATM   24  O   UNL     1      23.671  49.821  47.407  1.00  0.00    -0.354 OA
HETATM   25  C   UNL     1      24.887  50.285  47.981  1.00  0.00     0.210 C 
ENDBRANCH  18  24
BRANCH  22  26
HETATM   26  O   UNL     1      18.813  49.964  50.061  1.00  0.00    -0.354 OA
HETATM   27  C   UNL     1      18.644  48.858  50.946  1.00  0.00     0.210 C 
ENDBRANCH  22  26
ENDBRANCH  14  17
ENDBRANCH  12  13
ENDBRANCH  11  12
ENDBRANCH   4  11
BRANCH   8  28
HETATM   28  C   UNL     1      28.080  43.549  52.694  1.00  0.00    -0.044 A 
HETATM   29  C   UNL     1      29.440  43.251  52.495  1.00  0.00     0.008 A 
HETATM   30  C   UNL     1      29.981  42.050  52.958  1.00  0.00     0.001 A 
HETATM   31  C   UNL     1      29.175  41.133  53.626  1.00  0.00     0.000 A 
HETATM   32  C   UNL     1      27.826  41.409  53.824  1.00  0.00     0.001 A 
HETATM   33  C   UNL     1      27.278  42.604  53.351  1.00  0.00     0.008 A 
ENDBRANCH   8  28
BRANCH   9  34
HETATM   34  C   UNL     1      28.315  46.164  54.318  1.00  0.00     0.255 C 
HETATM   35  N   UNL     1      28.690  45.075  55.078  1.00  0.00    -0.323 N 
HETATM   36  H   UNL     1      28.233  44.193  54.909  1.00  0.00     0.169 HD
HETATM   37  O   UNL     1      28.743  47.306  54.460  1.00  0.00    -0.268 OA
BRANCH  35  38
HETATM   38  C   UNL     1      29.575  45.069  56.181  1.00  0.00     0.035 A 
HETATM   39  C   UNL     1      29.471  45.926  57.279  1.00  0.00     0.029 A 
HETATM   40  C   UNL     1      30.384  45.841  58.336  1.00  0.00     0.002 A 
HETATM   41  C   UNL     1      31.408  44.898  58.307  1.00  0.00     0.000 A 
HETATM   42  C   UNL     1      31.523  44.041  57.217  1.00  0.00     0.002 A 
HETATM   43  C   UNL     1      30.614  44.129  56.159  1.00  0.00     0.029 A 
ENDBRANCH  35  38
ENDBRANCH   9  34
TORSDOF 9
ENDMDL
MODEL 2
REMARK VINA RESULT:      -9.9      3.628     10.754
REMARK  9 active torsions:
REMARK  status: ('A' for Active; 'I' for Inactive)
REMARK    1  A    between atoms: C_4  and  S_5 
REMARK    2  A    between atoms: S_5  and  C_6 
REMARK    3  A    between atoms: C_6  and  C_7 
REMARK       I    between atoms: C_7  and  N_8 
REMARK    4  A    between atoms: N_8  and  C_9 
REMARK    5  A    between atoms: C_10  and  O_11 
REMARK    6  A    between atoms: C_16  and  O_17 
REMARK    7  A    between atoms: C_24  and  C_25 
REMARK    8  A    between atoms: C_31  and  C_32 
REMARK       I    between atoms: C_32  and  N_33 
REMARK    9  A    between atoms: N_33  and  C_34 
ROOT
HETATM    1  C   UNL     1      24.864  49.388  48.917  1.00  0.00     0.069 C 
HETATM    2  C   UNL     1      24.249  48.012  49.028  1.00  0.00     0.019 A 
HETATM    3  N   UNL     1      25.149  46.984  49.244  1.00  0.00    -0.353 N 
HETATM    4  C   UNL     1      24.821  45.653  49.412  1.00  0.00     0.087 A 
HETATM    5  C   UNL     1      23.518  45.292  49.429  1.00  0.00     0.055 A 
HETATM    6  C   UNL     1      23.094  43.859  49.698  1.00  0.00     0.019 C 
HETATM    7  N   UNL     1      22.741  42.668  49.921  1.00  0.00    -0.096 N 
HETATM    8  C   UNL     1      22.410  46.313  49.146  1.00  0.00     0.104 A 
HETATM    9  C   UNL     1      22.921  47.747  48.939  1.00  0.00     0.046 A 
HETATM   10  H   UNL     1      26.098  47.234  49.507  1.00  0.00     0.166 HD
ENDROOT
BRANCH   4  11
HETATM   11  S   UNL     1      26.079  44.452  49.619  1.00  0.00    -0.102 SA
BRANCH  11  12
HETATM   12  C   UNL     1      26.131  44.288  51.423  1.00  0.00     0.184 C 
BRANCH  12  13
HETATM   13  C   UNL     1      27.548  44.226  51.991  1.00  0.00     0.231 C 
HETATM   14  N   UNL     1      27.562  44.183  53.381  1.00  0.00    -0.324 N 
HETATM   15  H   UNL     1      26.660  44.092  53.830  1.00  0.00     0.169 HD
HETATM   16  O   UNL     1      28.512  44.110  51.241  1.00  0.00    -0.272 OA
BRANCH  14  17
HETATM   17  C   UNL     1      28.674  43.994  54.240  1.00  0.00     0.071 A 
HETATM   18  C   UNL     1      29.506  42.858  54.279  1.00  0.00     0.096 A 
HETATM   19  C   UNL     1      30.560  42.804  55.205  1.00  0.00     0.065 A 
HETATM   20  C   UNL     1      30.793  43.864  56.082  1.00  0.00     0.070 A 
HETATM   21 CL   UNL     1      32.104  43.739  57.201  1.00  0.00    -0.081 Cl
HETATM   22  C   UNL     1      29.983  44.996  56.040  1.00  0.00     0.092 A 
HETATM   23  C   UNL     1      28.954  45.072  55.098  1.00  0.00     0.071 A 
BRANCH  18  24
HETATM   24  O   UNL     1      29.357  41.919  53.297  1.00  0.00    -0.354 OA
HETATM   25  C   UNL     1      28.346  40.937  53.487  1.00  0.00     0.210 C 
ENDBRANCH  18  24
BRANCH  22  26
HETATM   26  O   UNL     1      30.252  46.055  56.868  1.00  0.00    -0.354 OA
HETATM   27  C   UNL     1      29.459  46.026  58.054  1.00  0.00     0.210 C 
ENDBRANCH  22  26
ENDBRANCH  14  17
ENDBRANCH  12  13
ENDBRANCH  11  12
ENDBRANCH   4  11
BRANCH   8  28
HETATM   28  C   UNL     1      21.508  45.831  48.006  1.00  0.00    -0.044 A 
HETATM   29  C   UNL     1      20.161  45.519  48.259  1.00  0.00     0.008 A 
HETATM   30  C   UNL     1      19.329  45.069  47.232  1.00  0.00     0.001 A 
HETATM   31  C   UNL     1      19.829  44.926  45.941  1.00  0.00     0.000 A 
HETATM   32  C   UNL     1      21.161  45.223  45.676  1.00  0.00     0.001 A 
HETATM   33  C   UNL     1      22.000  45.662  46.703  1.00  0.00     0.008 A 
ENDBRANCH   8  28
BRANCH   9  34
HETATM   34  C   UNL     1      21.963  48.840  48.528  1.00  0.00     0.255 C 
HETATM   35  N   UNL     1      21.194  49.365  49.546  1.00  0.00    -0.323 N 
HETATM   36  H   UNL     1      21.306  48.989  50.474  1.00  0.00     0.169 HD
HETATM   37  O   UNL     1      21.885  49.160  47.345  1.00  0.00    -0.268 OA
BRANCH  35  38
HETATM   38  C   UNL     1      20.149  50.310  49.424  1.00  0.00     0.035 A 
HETATM   39  C   UNL     1      18.914  50.206  50.069  1.00  0.00     0.029 A 
HETATM   40  C   UNL     1      17.940  51.197  49.903  1.00  0.00     0.002 A 
HETATM   41  C   UNL     1      18.191  52.301  49.094  1.00  0.00     0.000 A 
HETATM   42  C   UNL     1      19.416  52.414  48.445  1.00  0.00     0.002 A 
HETATM   43  C   UNL     1      20.388  51.422  48.606  1.00  0.00     0.029 A 
ENDBRANCH  35  38
ENDBRANCH   9  34
TORSDOF 9
ENDMDL
MODEL 3
REMARK VINA RESULT:      -9.8      3.463     10.161
REMARK  9 active torsions:
REMARK  status: ('A' for Active; 'I' for Inactive)
REMARK    1  A    between atoms: C_4  and  S_5 
REMARK    2  A    between atoms: S_5  and  C_6 
REMARK    3  A    between atoms: C_6  and  C_7 
REMARK       I    between atoms: C_7  and  N_8 
REMARK    4  A    between atoms: N_8  and  C_9 
REMARK    5  A    between atoms: C_10  and  O_11 
REMARK    6  A    between atoms: C_16  and  O_17 
REMARK    7  A    between atoms: C_24  and  C_25 
REMARK    8  A    between atoms: C_31  and  C_32 
REMARK       I    between atoms: C_32  and  N_33 
REMARK    9  A    between atoms: N_33  and  C_34 
ROOT
HETATM    1  C   UNL     1      25.005  48.037  49.601  1.00  0.00     0.069 C 
HETATM    2  C   UNL     1      24.371  46.709  49.258  1.00  0.00     0.019 A 
HETATM    3  N   UNL     1      25.202  45.611  49.397  1.00  0.00    -0.353 N 
HETATM    4  C   UNL     1      24.838  44.297  49.176  1.00  0.00     0.087 A 
HETATM    5  C   UNL     1      23.556  44.014  48.849  1.00  0.00     0.055 A 
HETATM    6  C   UNL     1      23.077  42.582  48.681  1.00  0.00     0.019 C 
HETATM    7  N   UNL     1      22.679  41.393  48.540  1.00  0.00    -0.096 N 
HETATM    8  C   UNL     1      22.536  45.131  48.604  1.00  0.00     0.104 A 
HETATM    9  C   UNL     1      23.088  46.544  48.848  1.00  0.00     0.046 A 
HETATM   10  H   UNL     1      26.078  45.741  49.894  1.00  0.00     0.166 HD
ENDROOT
BRANCH   4  11
HETATM   11  S   UNL     1      26.019  43.014  49.335  1.00  0.00    -0.102 SA
BRANCH  11  12
HETATM   12  C   UNL     1      26.068  42.787  51.134  1.00  0.00     0.184 C 
BRANCH  12  13
HETATM   13  C   UNL     1      26.914  43.832  51.858  1.00  0.00     0.231 C 
HETATM   14  N   UNL     1      26.978  43.607  53.229  1.00  0.00    -0.324 N 
HETATM   15  H   UNL     1      26.560  42.745  53.556  1.00  0.00     0.169 HD
HETATM   16  O   UNL     1      27.535  44.679  51.221  1.00  0.00    -0.272 OA
BRANCH  14  17
HETATM   17  C   UNL     1      27.765  44.287  54.193  1.00  0.00     0.071 A 
HETATM   18  C   UNL     1      27.413  45.477  54.859  1.00  0.00     0.096 A 
HETATM   19  C   UNL     1      28.311  46.049  55.774  1.00  0.00     0.065 A 
HETATM   20  C   UNL     1      29.545  45.451  56.031  1.00  0.00     0.070 A 
HETATM   21 CL   UNL     1      30.609  46.204  57.166  1.00  0.00    -0.081 Cl
HETATM   22  C   UNL     1      29.895  44.268  55.385  1.00  0.00     0.092 A 
HETATM   23  C   UNL     1      28.993  43.673  54.500  1.00  0.00     0.071 A 
BRANCH  18  24
HETATM   24  O   UNL     1      26.134  45.939  54.713  1.00  0.00    -0.354 OA
HETATM   25  C   UNL     1      25.939  47.040  53.835  1.00  0.00     0.210 C 
ENDBRANCH  18  24
BRANCH  22  26
HETATM   26  O   UNL     1      31.086  43.658  55.684  1.00  0.00    -0.354 OA
HETATM   27  C   UNL     1      31.046  42.986  56.941  1.00  0.00     0.210 C 
ENDBRANCH  22  26
ENDBRANCH  14  17
ENDBRANCH  12  13
ENDBRANCH  11  12
ENDBRANCH   4  11
BRANCH   8  28
HETATM   28  C   UNL     1      21.884  44.976  47.227  1.00  0.00    -0.044 A 
HETATM   29  C   UNL     1      20.493  44.800  47.123  1.00  0.00     0.008 A 
HETATM   30  C   UNL     1      19.885  44.647  45.876  1.00  0.00     0.001 A 
HETATM   31  C   UNL     1      20.655  44.669  44.717  1.00  0.00     0.000 A 
HETATM   32  C   UNL     1      22.034  44.835  44.803  1.00  0.00     0.001 A 
HETATM   33  C   UNL     1      22.647  44.976  46.049  1.00  0.00     0.008 A 
ENDBRANCH   8  28
BRANCH   9  34
HETATM   34  C   UNL     1      22.242  47.753  48.528  1.00  0.00     0.255 C 
HETATM   35  N   UNL     1      21.489  48.241  49.576  1.00  0.00    -0.323 N 
HETATM   36  H   UNL     1      21.538  47.767  50.464  1.00  0.00     0.169 HD
HETATM   37  O   UNL     1      22.228  48.194  47.382  1.00  0.00    -0.268 OA
BRANCH  35  38
HETATM   38  C   UNL     1      20.533  49.283  49.527  1.00  0.00     0.035 A 
HETATM   39  C   UNL     1      19.189  49.136  49.876  1.00  0.00     0.029 A 
HETATM   40  C   UNL     1      18.314  50.226  49.812  1.00  0.00     0.002 A 
HETATM   41  C   UNL     1      18.774  51.473  49.398  1.00  0.00     0.000 A 
HETATM   42  C   UNL     1      20.111  51.631  49.045  1.00  0.00     0.002 A 
HETATM   43  C   UNL     1      20.984  50.541  49.105  1.00  0.00     0.029 A 
ENDBRANCH  35  38
ENDBRANCH   9  34
TORSDOF 9
ENDMDL
MODEL 4
REMARK VINA RESULT:      -9.6      3.719     11.120
REMARK  9 active torsions:
REMARK  status: ('A' for Active; 'I' for Inactive)
REMARK    1  A    between atoms: C_4  and  S_5 
REMARK    2  A    between atoms: S_5  and  C_6 
REMARK    3  A    between atoms: C_6  and  C_7 
REMARK       I    between atoms: C_7  and  N_8 
REMARK    4  A    between atoms: N_8  and  C_9 
REMARK    5  A    between atoms: C_10  and  O_11 
REMARK    6  A    between atoms: C_16  and  O_17 
REMARK    7  A    between atoms: C_24  and  C_25 
REMARK    8  A    between atoms: C_31  and  C_32 
REMARK       I    between atoms: C_32  and  N_33 
REMARK    9  A    between atoms: N_33  and  C_34 
ROOT
HETATM    1  C   UNL     1      22.659  50.862  49.228  1.00  0.00     0.069 C 
HETATM    2  C   UNL     1      22.392  49.385  49.052  1.00  0.00     0.019 A 
HETATM    3  N   UNL     1      23.483  48.563  49.266  1.00  0.00    -0.353 N 
HETATM    4  C   UNL     1      23.474  47.184  49.197  1.00  0.00     0.087 A 
HETATM    5  C   UNL     1      22.307  46.543  48.957  1.00  0.00     0.055 A 
HETATM    6  C   UNL     1      22.218  45.026  48.958  1.00  0.00     0.019 C 
HETATM    7  N   UNL     1      22.144  43.767  48.958  1.00  0.00    -0.096 N 
HETATM    8  C   UNL     1      21.026  47.323  48.644  1.00  0.00     0.104 A 
HETATM    9  C   UNL     1      21.190  48.849  48.718  1.00  0.00     0.046 A 
HETATM   10  H   UNL     1      24.302  48.970  49.708  1.00  0.00     0.166 HD
ENDROOT
BRANCH   4  11
HETATM   11  S   UNL     1      24.953  46.276  49.435  1.00  0.00    -0.102 SA
BRANCH  11  12
HETATM   12  C   UNL     1      24.759  45.709  51.146  1.00  0.00     0.184 C 
BRANCH  12  13
HETATM   13  C   UNL     1      25.771  46.321  52.112  1.00  0.00     0.231 C 
HETATM   14  N   UNL     1      26.123  45.449  53.136  1.00  0.00    -0.324 N 
HETATM   15  H   UNL     1      25.761  44.507  53.060  1.00  0.00     0.169 HD
HETATM   16  O   UNL     1      26.264  47.422  51.880  1.00  0.00    -0.272 OA
BRANCH  14  17
HETATM   17  C   UNL     1      27.119  45.623  54.131  1.00  0.00     0.071 A 
HETATM   18  C   UNL     1      27.154  46.647  55.098  1.00  0.00     0.096 A 
HETATM   19  C   UNL     1      28.223  46.704  56.005  1.00  0.00     0.065 A 
HETATM   20  C   UNL     1      29.247  45.757  55.962  1.00  0.00     0.070 A 
HETATM   21 CL   UNL     1      30.537  45.881  57.106  1.00  0.00    -0.081 Cl
HETATM   22  C   UNL     1      29.213  44.735  55.017  1.00  0.00     0.092 A 
HETATM   23  C   UNL     1      28.135  44.650  54.133  1.00  0.00     0.071 A 
BRANCH  18  24
HETATM   24  O   UNL     1      26.055  47.449  55.221  1.00  0.00    -0.354 OA
HETATM   25  C   UNL     1      26.231  48.691  55.892  1.00  0.00     0.210 C 
ENDBRANCH  18  24
BRANCH  22  26
HETATM   26  O   UNL     1      30.195  43.777  55.016  1.00  0.00    -0.354 OA
HETATM   27  C   UNL     1      30.088  42.899  53.897  1.00  0.00     0.210 C 
ENDBRANCH  22  26
ENDBRANCH  14  17
ENDBRANCH  12  13
ENDBRANCH  11  12
ENDBRANCH   4  11
BRANCH   8  28
HETATM   28  C   UNL     1      20.416  46.853  47.320  1.00  0.00    -0.044 A 
HETATM   29  C   UNL     1      19.041  46.567  47.241  1.00  0.00     0.008 A 
HETATM   30  C   UNL     1      18.473  46.128  46.043  1.00  0.00     0.001 A 
HETATM   31  C   UNL     1      19.266  45.970  44.911  1.00  0.00     0.000 A 
HETATM   32  C   UNL     1      20.629  46.242  44.975  1.00  0.00     0.001 A 
HETATM   33  C   UNL     1      21.204  46.669  46.173  1.00  0.00     0.008 A 
ENDBRANCH   8  28
BRANCH   9  34
HETATM   34  C   UNL     1      20.052  49.754  48.312  1.00  0.00     0.255 C 
HETATM   35  N   UNL     1      19.131  50.025  49.304  1.00  0.00    -0.323 N 
HETATM   36  H   UNL     1      19.265  49.604  50.210  1.00  0.00     0.169 HD
HETATM   37  O   UNL     1      19.978  50.148  47.152  1.00  0.00    -0.268 OA
BRANCH  35  38
HETATM   38  C   UNL     1      17.921  50.744  49.170  1.00  0.00     0.035 A 
HETATM   39  C   UNL     1      16.812  50.293  48.450  1.00  0.00     0.029 A 
HETATM   40  C   UNL     1      15.646  51.064  48.382  1.00  0.00     0.002 A 
HETATM   41  C   UNL     1      15.577  52.292  49.034  1.00  0.00     0.000 A 
HETATM   42  C   UNL     1      16.676  52.753  49.752  1.00  0.00     0.002 A 
HETATM   43  C   UNL     1      17.842  51.985  49.816  1.00  0.00     0.029 A 
ENDBRANCH  35  38
ENDBRANCH   9  34
TORSDOF 9
ENDMDL
MODEL 5
REMARK VINA RESULT:      -9.5      5.500      8.490
REMARK  9 active torsions:
REMARK  status: ('A' for Active; 'I' for Inactive)
REMARK    1  A    between atoms: C_4  and  S_5 
REMARK    2  A    between atoms: S_5  and  C_6 
REMARK    3  A    between atoms: C_6  and  C_7 
REMARK       I    between atoms: C_7  and  N_8 
REMARK    4  A    between atoms: N_8  and  C_9 
REMARK    5  A    between atoms: C_10  and  O_11 
REMARK    6  A    between atoms: C_16  and  O_17 
REMARK    7  A    between atoms: C_24  and  C_25 
REMARK    8  A    between atoms: C_31  and  C_32 
REMARK       I    between atoms: C_32  and  N_33 
REMARK    9  A    between atoms: N_33  and  C_34 
ROOT
HETATM    1  C   UNL     1      28.392  40.439  50.704  1.00  0.00     0.069 C 
HETATM    2  C   UNL     1      27.192  41.355  50.645  1.00  0.00     0.019 A 
HETATM    3  N   UNL     1      26.193  40.958  49.773  1.00  0.00    -0.353 N 
HETATM    4  C   UNL     1      24.994  41.612  49.576  1.00  0.00     0.087 A 
HETATM    5  C   UNL     1      24.709  42.707  50.317  1.00  0.00     0.055 A 
HETATM    6  C   UNL     1      23.370  43.416  50.206  1.00  0.00     0.019 C 
HETATM    7  N   UNL     1      22.259  44.005  50.115  1.00  0.00    -0.096 N 
HETATM    8  C   UNL     1      25.742  43.299  51.283  1.00  0.00     0.104 A 
HETATM    9  C   UNL     1      27.045  42.491  51.374  1.00  0.00     0.046 A 
HETATM   10  H   UNL     1      26.239  40.013  49.402  1.00  0.00     0.166 HD
ENDROOT
BRANCH   4  11
HETATM   11  S   UNL     1      23.848  41.020  48.391  1.00  0.00    -0.102 SA
BRANCH  11  12
HETATM   12  C   UNL     1      24.245  42.052  46.955  1.00  0.00     0.184 C 
BRANCH  12  13
HETATM   13  C   UNL     1      24.929  41.288  45.822  1.00  0.00     0.231 C 
HETATM   14  N   UNL     1      26.311  41.243  45.971  1.00  0.00    -0.324 N 
HETATM   15  H   UNL     1      26.676  41.616  46.837  1.00  0.00     0.169 HD
HETATM   16  O   UNL     1      24.260  40.705  44.974  1.00  0.00    -0.272 OA
BRANCH  14  17
HETATM   17  C   UNL     1      27.252  40.521  45.192  1.00  0.00     0.071 A 
HETATM   18  C   UNL     1      27.665  39.194  45.415  1.00  0.00     0.096 A 
HETATM   19  C   UNL     1      28.628  38.619  44.570  1.00  0.00     0.065 A 
HETATM   20  C   UNL     1      29.175  39.346  43.513  1.00  0.00     0.070 A 
HETATM   21 CL   UNL     1      30.357  38.584  42.508  1.00  0.00    -0.081 Cl
HETATM   22  C   UNL     1      28.762  40.655  43.279  1.00  0.00     0.092 A 
HETATM   23  C   UNL     1      27.779  41.223  44.093  1.00  0.00     0.071 A 
BRANCH  18  24
HETATM   24  O   UNL     1      26.988  38.459  46.347  1.00  0.00    -0.354 OA
HETATM   25  C   UNL     1      27.746  37.915  47.420  1.00  0.00     0.210 C 
ENDBRANCH  18  24
BRANCH  22  26
HETATM   26  O   UNL     1      29.264  41.345  42.206  1.00  0.00    -0.354 OA
HETATM   27  C   UNL     1      28.346  41.384  41.114  1.00  0.00     0.210 C 
ENDBRANCH  22  26
ENDBRANCH  14  17
ENDBRANCH  12  13
ENDBRANCH  11  12
ENDBRANCH   4  11
BRANCH   8  28
HETATM   28  C   UNL     1      25.979  44.781  50.979  1.00  0.00    -0.044 A 
HETATM   29  C   UNL     1      25.579  45.762  51.904  1.00  0.00     0.008 A 
HETATM   30  C   UNL     1      25.779  47.117  51.637  1.00  0.00     0.001 A 
HETATM   31  C   UNL     1      26.383  47.512  50.446  1.00  0.00     0.000 A 
HETATM   32  C   UNL     1      26.778  46.555  49.518  1.00  0.00     0.001 A 
HETATM   33  C   UNL     1      26.568  45.198  49.776  1.00  0.00     0.008 A 
ENDBRANCH   8  28
BRANCH   9  34
HETATM   34  C   UNL     1      28.205  43.015  52.187  1.00  0.00     0.255 C 
HETATM   35  N   UNL     1      27.976  43.122  53.543  1.00  0.00    -0.323 N 
HETATM   36  H   UNL     1      27.069  42.862  53.898  1.00  0.00     0.169 HD
HETATM   37  O   UNL     1      29.238  43.354  51.615  1.00  0.00    -0.268 OA
BRANCH  35  38
HETATM   38  C   UNL     1      28.840  43.682  54.512  1.00  0.00     0.035 A 
HETATM   39  C   UNL     1      30.012  43.075  54.968  1.00  0.00     0.029 A 
HETATM   40  C   UNL     1      30.818  43.709  55.921  1.00  0.00     0.002 A 
HETATM   41  C   UNL     1      30.460  44.956  56.426  1.00  0.00     0.000 A 
HETATM   42  C   UNL     1      29.293  45.569  55.982  1.00  0.00     0.002 A 
HETATM   43  C   UNL     1      28.486  44.934  55.034  1.00  0.00     0.029 A 
ENDBRANCH  35  38
ENDBRANCH   9  34
TORSDOF 9
ENDMDL
MODEL 6
REMARK VINA RESULT:      -9.5      4.815     12.095
REMARK  9 active torsions:
REMARK  status: ('A' for Active; 'I' for Inactive)
REMARK    1  A    between atoms: C_4  and  S_5 
REMARK    2  A    between atoms: S_5  and  C_6 
REMARK    3  A    between atoms: C_6  and  C_7 
REMARK       I    between atoms: C_7  and  N_8 
REMARK    4  A    between atoms: N_8  and  C_9 
REMARK    5  A    between atoms: C_10  and  O_11 
REMARK    6  A    between atoms: C_16  and  O_17 
REMARK    7  A    between atoms: C_24  and  C_25 
REMARK    8  A    between atoms: C_31  and  C_32 
REMARK       I    between atoms: C_32  and  N_33 
REMARK    9  A    between atoms: N_33  and  C_34 
ROOT
HETATM    1  C   UNL     1      18.755  49.570  50.803  1.00  0.00     0.069 C 
HETATM    2  C   UNL     1      18.190  49.073  49.492  1.00  0.00     0.019 A 
HETATM    3  N   UNL     1      18.528  47.773  49.163  1.00  0.00    -0.353 N 
HETATM    4  C   UNL     1      18.104  47.093  48.039  1.00  0.00     0.087 A 
HETATM    5  C   UNL     1      17.240  47.696  47.190  1.00  0.00     0.055 A 
HETATM    6  C   UNL     1      16.672  46.968  45.985  1.00  0.00     0.019 C 
HETATM    7  N   UNL     1      16.199  46.364  44.983  1.00  0.00    -0.096 N 
HETATM    8  C   UNL     1      16.821  49.156  47.393  1.00  0.00     0.104 A 
HETATM    9  C   UNL     1      17.398  49.800  48.663  1.00  0.00     0.046 A 
HETATM   10  H   UNL     1      18.944  47.195  49.888  1.00  0.00     0.166 HD
ENDROOT
BRANCH   4  11
HETATM   11  S   UNL     1      18.666  45.464  47.725  1.00  0.00    -0.102 SA
BRANCH  11  12
HETATM   12  C   UNL     1      20.171  45.399  48.734  1.00  0.00     0.184 C 
BRANCH  12  13
HETATM   13  C   UNL     1      21.333  46.200  48.151  1.00  0.00     0.231 C 
HETATM   14  N   UNL     1      21.854  47.117  49.057  1.00  0.00    -0.324 N 
HETATM   15  H   UNL     1      21.484  47.070  49.997  1.00  0.00     0.169 HD
HETATM   16  O   UNL     1      21.780  45.927  47.040  1.00  0.00    -0.272 OA
BRANCH  14  17
HETATM   17  C   UNL     1      23.005  47.933  48.913  1.00  0.00     0.071 A 
HETATM   18  C   UNL     1      23.089  49.122  48.162  1.00  0.00     0.096 A 
HETATM   19  C   UNL     1      24.309  49.812  48.093  1.00  0.00     0.065 A 
HETATM   20  C   UNL     1      25.437  49.334  48.762  1.00  0.00     0.070 A 
HETATM   21 CL   UNL     1      26.912  50.227  48.637  1.00  0.00    -0.081 Cl
HETATM   22  C   UNL     1      25.359  48.166  49.516  1.00  0.00     0.092 A 
HETATM   23  C   UNL     1      24.139  47.493  49.619  1.00  0.00     0.071 A 
BRANCH  18  24
HETATM   24  O   UNL     1      21.929  49.649  47.665  1.00  0.00    -0.354 OA
HETATM   25  C   UNL     1      21.464  50.860  48.250  1.00  0.00     0.210 C 
ENDBRANCH  18  24
BRANCH  22  26
HETATM   26  O   UNL     1      26.457  47.733  50.214  1.00  0.00    -0.354 OA
HETATM   27  C   UNL     1      26.098  47.071  51.425  1.00  0.00     0.210 C 
ENDBRANCH  22  26
ENDBRANCH  14  17
ENDBRANCH  12  13
ENDBRANCH  11  12
ENDBRANCH   4  11
BRANCH   8  28
HETATM   28  C   UNL     1      17.096  49.979  46.131  1.00  0.00    -0.044 A 
HETATM   29  C   UNL     1      16.038  50.630  45.471  1.00  0.00     0.008 A 
HETATM   30  C   UNL     1      16.270  51.375  44.313  1.00  0.00     0.001 A 
HETATM   31  C   UNL     1      17.560  51.482  43.800  1.00  0.00     0.000 A 
HETATM   32  C   UNL     1      18.616  50.838  44.437  1.00  0.00     0.001 A 
HETATM   33  C   UNL     1      18.385  50.081  45.587  1.00  0.00     0.008 A 
ENDBRANCH   8  28
BRANCH   9  34
HETATM   34  C   UNL     1      17.177  51.269  48.934  1.00  0.00     0.255 C 
HETATM   35  N   UNL     1      15.877  51.628  49.224  1.00  0.00    -0.323 N 
HETATM   36  H   UNL     1      15.170  50.909  49.225  1.00  0.00     0.169 HD
HETATM   37  O   UNL     1      18.121  52.049  48.838  1.00  0.00    -0.268 OA
BRANCH  35  38
HETATM   38  C   UNL     1      15.374  52.937  49.406  1.00  0.00     0.035 A 
HETATM   39  C   UNL     1      15.525  53.684  50.576  1.00  0.00     0.029 A 
HETATM   40  C   UNL     1      15.007  54.981  50.664  1.00  0.00     0.002 A 
HETATM   41  C   UNL     1      14.333  55.543  49.584  1.00  0.00     0.000 A 
HETATM   42  C   UNL     1      14.173  54.808  48.414  1.00  0.00     0.002 A 
HETATM   43  C   UNL     1      14.687  53.511  48.327  1.00  0.00     0.029 A 
ENDBRANCH  35  38
ENDBRANCH   9  34
TORSDOF 9
ENDMDL
MODEL 7
REMARK VINA RESULT:      -9.5      4.215     11.936
REMARK  9 active torsions:
REMARK  status: ('A' for Active; 'I' for Inactive)
REMARK    1  A    between atoms: C_4  and  S_5 
REMARK    2  A    between atoms: S_5  and  C_6 
REMARK    3  A    between atoms: C_6  and  C_7 
REMARK       I    between atoms: C_7  and  N_8 
REMARK    4  A    between atoms: N_8  and  C_9 
REMARK    5  A    between atoms: C_10  and  O_11 
REMARK    6  A    between atoms: C_16  and  O_17 
REMARK    7  A    between atoms: C_24  and  C_25 
REMARK    8  A    between atoms: C_31  and  C_32 
REMARK       I    between atoms: C_32  and  N_33 
REMARK    9  A    between atoms: N_33  and  C_34 
ROOT
HETATM    1  C   UNL     1      20.438  44.861  48.552  1.00  0.00     0.069 C 
HETATM    2  C   UNL     1      21.105  46.216  48.508  1.00  0.00     0.019 A 
HETATM    3  N   UNL     1      22.355  46.273  49.099  1.00  0.00    -0.353 N 
HETATM    4  C   UNL     1      23.168  47.389  49.151  1.00  0.00     0.087 A 
HETATM    5  C   UNL     1      22.767  48.526  48.536  1.00  0.00     0.055 A 
HETATM    6  C   UNL     1      23.656  49.756  48.485  1.00  0.00     0.019 C 
HETATM    7  N   UNL     1      24.394  50.779  48.442  1.00  0.00    -0.096 N 
HETATM    8  C   UNL     1      21.382  48.630  47.890  1.00  0.00     0.104 A 
HETATM    9  C   UNL     1      20.570  47.326  47.939  1.00  0.00     0.046 A 
HETATM   10  H   UNL     1      22.810  45.394  49.329  1.00  0.00     0.166 HD
ENDROOT
BRANCH   4  11
HETATM   11  S   UNL     1      24.705  47.325  49.988  1.00  0.00    -0.102 SA
BRANCH  11  12
HETATM   12  C   UNL     1      24.887  45.545  50.276  1.00  0.00     0.184 C 
BRANCH  12  13
HETATM   13  C   UNL     1      26.256  45.152  50.829  1.00  0.00     0.231 C 
HETATM   14  N   UNL     1      26.226  44.909  52.198  1.00  0.00    -0.324 N 
HETATM   15  H   UNL     1      25.311  44.917  52.629  1.00  0.00     0.169 HD
HETATM   16  O   UNL     1      27.204  44.975  50.070  1.00  0.00    -0.272 OA
BRANCH  14  17
HETATM   17  C   UNL     1      27.266  44.405  53.020  1.00  0.00     0.071 A 
HETATM   18  C   UNL     1      27.727  43.075  53.050  1.00  0.00     0.096 A 
HETATM   19  C   UNL     1      28.753  42.718  53.939  1.00  0.00     0.065 A 
HETATM   20  C   UNL     1      29.321  43.668  54.790  1.00  0.00     0.070 A 
HETATM   21 CL   UNL     1      30.580  43.167  55.864  1.00  0.00    -0.081 Cl
HETATM   22  C   UNL     1      28.879  44.987  54.758  1.00  0.00     0.092 A 
HETATM   23  C   UNL     1      27.883  45.358  53.851  1.00  0.00     0.071 A 
BRANCH  18  24
HETATM   24  O   UNL     1      27.271  42.217  52.089  1.00  0.00    -0.354 OA
HETATM   25  C   UNL     1      28.243  41.446  51.393  1.00  0.00     0.210 C 
ENDBRANCH  18  24
BRANCH  22  26
HETATM   26  O   UNL     1      29.479  45.925  55.558  1.00  0.00    -0.354 OA
HETATM   27  C   UNL     1      28.851  46.024  56.835  1.00  0.00     0.210 C 
ENDBRANCH  22  26
ENDBRANCH  14  17
ENDBRANCH  12  13
ENDBRANCH  11  12
ENDBRANCH   4  11
BRANCH   8  28
HETATM   28  C   UNL     1      20.613  49.831  48.448  1.00  0.00    -0.044 A 
HETATM   29  C   UNL     1      20.283  49.881  49.814  1.00  0.00     0.008 A 
HETATM   30  C   UNL     1      19.573  50.965  50.337  1.00  0.00     0.001 A 
HETATM   31  C   UNL     1      19.186  52.011  49.505  1.00  0.00     0.000 A 
HETATM   32  C   UNL     1      19.499  51.973  48.150  1.00  0.00     0.001 A 
HETATM   33  C   UNL     1      20.197  50.886  47.621  1.00  0.00     0.008 A 
ENDBRANCH   8  28
BRANCH   9  34
HETATM   34  C   UNL     1      19.140  47.306  47.456  1.00  0.00     0.255 C 
HETATM   35  N   UNL     1      18.979  47.294  46.086  1.00  0.00    -0.323 N 
HETATM   36  H   UNL     1      19.804  47.312  45.506  1.00  0.00     0.169 HD
HETATM   37  O   UNL     1      18.226  47.350  48.275  1.00  0.00    -0.268 OA
BRANCH  35  38
HETATM   38  C   UNL     1      17.763  47.386  45.369  1.00  0.00     0.035 A 
HETATM   39  C   UNL     1      16.975  46.291  45.011  1.00  0.00     0.029 A 
HETATM   40  C   UNL     1      15.776  46.475  44.312  1.00  0.00     0.002 A 
HETATM   41  C   UNL     1      15.354  47.756  43.967  1.00  0.00     0.000 A 
HETATM   42  C   UNL     1      16.132  48.855  44.317  1.00  0.00     0.002 A 
HETATM   43  C   UNL     1      17.332  48.671  45.010  1.00  0.00     0.029 A 
ENDBRANCH  35  38
ENDBRANCH   9  34
TORSDOF 9
ENDMDL
MODEL 8
REMARK VINA RESULT:      -9.3      3.241      4.598
REMARK  9 active torsions:
REMARK  status: ('A' for Active; 'I' for Inactive)
REMARK    1  A    between atoms: C_4  and  S_5 
REMARK    2  A    between atoms: S_5  and  C_6 
REMARK    3  A    between atoms: C_6  and  C_7 
REMARK       I    between atoms: C_7  and  N_8 
REMARK    4  A    between atoms: N_8  and  C_9 
REMARK    5  A    between atoms: C_10  and  O_11 
REMARK    6  A    between atoms: C_16  and  O_17 
REMARK    7  A    between atoms: C_24  and  C_25 
REMARK    8  A    between atoms: C_31  and  C_32 
REMARK       I    between atoms: C_32  and  N_33 
REMARK    9  A    between atoms: N_33  and  C_34 
ROOT
HETATM    1  C   UNL     1      24.598  43.456  51.298  1.00  0.00     0.069 C 
HETATM    2  C   UNL     1      25.223  42.670  50.169  1.00  0.00     0.019 A 
HETATM    3  N   UNL     1      24.451  42.575  49.024  1.00  0.00    -0.353 N 
HETATM    4  C   UNL     1      24.824  41.941  47.856  1.00  0.00     0.087 A 
HETATM    5  C   UNL     1      26.061  41.401  47.764  1.00  0.00     0.055 A 
HETATM    6  C   UNL     1      26.558  40.768  46.476  1.00  0.00     0.019 C 
HETATM    7  N   UNL     1      26.972  40.242  45.406  1.00  0.00    -0.096 N 
HETATM    8  C   UNL     1      27.007  41.379  48.970  1.00  0.00     0.104 A 
HETATM    9  C   UNL     1      26.448  42.087  50.214  1.00  0.00     0.046 A 
HETATM   10  H   UNL     1      23.642  43.185  48.947  1.00  0.00     0.166 HD
ENDROOT
BRANCH   4  11
HETATM   11  S   UNL     1      23.713  41.851  46.505  1.00  0.00    -0.102 SA
BRANCH  11  12
HETATM   12  C   UNL     1      22.297  42.789  47.137  1.00  0.00     0.184 C 
BRANCH  12  13
HETATM   13  C   UNL     1      22.391  44.291  46.874  1.00  0.00     0.231 C 
HETATM   14  N   UNL     1      22.156  45.046  48.018  1.00  0.00    -0.324 N 
HETATM   15  H   UNL     1      22.060  44.526  48.880  1.00  0.00     0.169 HD
HETATM   16  O   UNL     1      22.756  44.708  45.779  1.00  0.00    -0.272 OA
BRANCH  14  17
HETATM   17  C   UNL     1      22.284  46.449  48.182  1.00  0.00     0.071 A 
HETATM   18  C   UNL     1      21.423  47.427  47.648  1.00  0.00     0.096 A 
HETATM   19  C   UNL     1      21.694  48.786  47.877  1.00  0.00     0.065 A 
HETATM   20  C   UNL     1      22.802  49.175  48.630  1.00  0.00     0.070 A 
HETATM   21 CL   UNL     1      23.084  50.863  48.875  1.00  0.00    -0.081 Cl
HETATM   22  C   UNL     1      23.651  48.213  49.171  1.00  0.00     0.092 A 
HETATM   23  C   UNL     1      23.369  46.859  48.978  1.00  0.00     0.071 A 
BRANCH  18  24
HETATM   24  O   UNL     1      20.259  47.009  47.066  1.00  0.00    -0.354 OA
HETATM   25  C   UNL     1      19.400  48.012  46.539  1.00  0.00     0.210 C 
ENDBRANCH  18  24
BRANCH  22  26
HETATM   26  O   UNL     1      24.707  48.602  49.954  1.00  0.00    -0.354 OA
HETATM   27  C   UNL     1      25.716  47.597  50.034  1.00  0.00     0.210 C 
ENDBRANCH  22  26
ENDBRANCH  14  17
ENDBRANCH  12  13
ENDBRANCH  11  12
ENDBRANCH   4  11
BRANCH   8  28
HETATM   28  C   UNL     1      27.481  39.952  49.259  1.00  0.00    -0.044 A 
HETATM   29  C   UNL     1      28.855  39.653  49.255  1.00  0.00     0.008 A 
HETATM   30  C   UNL     1      29.303  38.355  49.507  1.00  0.00     0.001 A 
HETATM   31  C   UNL     1      28.388  37.339  49.768  1.00  0.00     0.000 A 
HETATM   32  C   UNL     1      27.025  37.617  49.769  1.00  0.00     0.001 A 
HETATM   33  C   UNL     1      26.572  38.912  49.504  1.00  0.00     0.008 A 
ENDBRANCH   8  28
BRANCH   9  34
HETATM   34  C   UNL     1      27.208  42.040  51.517  1.00  0.00     0.255 C 
HETATM   35  N   UNL     1      27.829  43.217  51.882  1.00  0.00    -0.323 N 
HETATM   36  H   UNL     1      27.749  44.011  51.267  1.00  0.00     0.169 HD
HETATM   37  O   UNL     1      27.275  40.983  52.139  1.00  0.00    -0.268 OA
BRANCH  35  38
HETATM   38  C   UNL     1      28.691  43.420  52.985  1.00  0.00     0.035 A 
HETATM   39  C   UNL     1      29.899  42.747  53.174  1.00  0.00     0.029 A 
HETATM   40  C   UNL     1      30.699  43.022  54.290  1.00  0.00     0.002 A 
HETATM   41  C   UNL     1      30.299  43.973  55.225  1.00  0.00     0.000 A 
HETATM   42  C   UNL     1      29.095  44.648  55.047  1.00  0.00     0.002 A 
HETATM   43  C   UNL     1      28.294  44.370  53.936  1.00  0.00     0.029 A 
ENDBRANCH  35  38
ENDBRANCH   9  34
TORSDOF 9
ENDMDL
MODEL 9
REMARK VINA RESULT:      -9.3      4.229     11.962
REMARK  9 active torsions:
REMARK  status: ('A' for Active; 'I' for Inactive)
REMARK    1  A    between atoms: C_4  and  S_5 
REMARK    2  A    between atoms: S_5  and  C_6 
REMARK    3  A    between atoms: C_6  and  C_7 
REMARK       I    between atoms: C_7  and  N_8 
REMARK    4  A    between atoms: N_8  and  C_9 
REMARK    5  A    between atoms: C_10  and  O_11 
REMARK    6  A    between atoms: C_16  and  O_17 
REMARK    7  A    between atoms: C_24  and  C_25 
REMARK    8  A    between atoms: C_31  and  C_32 
REMARK       I    between atoms: C_32  and  N_33 
REMARK    9  A    between atoms: N_33  and  C_34 
ROOT
HETATM    1  C   UNL     1      19.664  44.835  47.410  1.00  0.00     0.069 C 
HETATM    2  C   UNL     1      20.508  46.056  47.691  1.00  0.00     0.019 A 
HETATM    3  N   UNL     1      21.700  45.806  48.349  1.00  0.00    -0.353 N 
HETATM    4  C   UNL     1      22.647  46.754  48.681  1.00  0.00     0.087 A 
HETATM    5  C   UNL     1      22.456  48.039  48.300  1.00  0.00     0.055 A 
HETATM    6  C   UNL     1      23.503  49.108  48.560  1.00  0.00     0.019 C 
HETATM    7  N   UNL     1      24.372  49.996  48.776  1.00  0.00    -0.096 N 
HETATM    8  C   UNL     1      21.157  48.477  47.615  1.00  0.00     0.104 A 
HETATM    9  C   UNL     1      20.177  47.326  47.342  1.00  0.00     0.046 A 
HETATM   10  H   UNL     1      22.011  44.841  48.412  1.00  0.00     0.166 HD
ENDROOT
BRANCH   4  11
HETATM   11  S   UNL     1      24.084  46.295  49.569  1.00  0.00    -0.102 SA
BRANCH  11  12
HETATM   12  C   UNL     1      23.625  44.650  50.177  1.00  0.00     0.184 C 
BRANCH  12  13
HETATM   13  C   UNL     1      24.670  44.025  51.098  1.00  0.00     0.231 C 
HETATM   14  N   UNL     1      25.617  44.947  51.530  1.00  0.00    -0.324 N 
HETATM   15  H   UNL     1      25.444  45.911  51.277  1.00  0.00     0.169 HD
HETATM   16  O   UNL     1      24.554  42.860  51.468  1.00  0.00    -0.272 OA
BRANCH  14  17
HETATM   17  C   UNL     1      26.649  44.760  52.485  1.00  0.00     0.071 A 
HETATM   18  C   UNL     1      26.788  45.455  53.702  1.00  0.00     0.096 A 
HETATM   19  C   UNL     1      27.881  45.177  54.537  1.00  0.00     0.065 A 
HETATM   20  C   UNL     1      28.828  44.218  54.175  1.00  0.00     0.070 A 
HETATM   21 CL   UNL     1      30.154  43.921  55.244  1.00  0.00    -0.081 Cl
HETATM   22  C   UNL     1      28.692  43.518  52.979  1.00  0.00     0.092 A 
HETATM   23  C   UNL     1      27.588  43.764  52.159  1.00  0.00     0.071 A 
BRANCH  18  24
HETATM   24  O   UNL     1      25.756  46.257  54.102  1.00  0.00    -0.354 OA
HETATM   25  C   UNL     1      26.059  47.623  54.361  1.00  0.00     0.210 C 
ENDBRANCH  18  24
BRANCH  22  26
HETATM   26  O   UNL     1      29.597  42.540  52.657  1.00  0.00    -0.354 OA
HETATM   27  C   UNL     1      28.962  41.353  52.186  1.00  0.00     0.210 C 
ENDBRANCH  22  26
ENDBRANCH  14  17
ENDBRANCH  12  13
ENDBRANCH  11  12
ENDBRANCH   4  11
BRANCH   8  28
HETATM   28  C   UNL     1      20.512  49.641  48.372  1.00  0.00    -0.044 A 
HETATM   29  C   UNL     1      20.043  49.452  49.684  1.00  0.00     0.008 A 
HETATM   30  C   UNL     1      19.442  50.501  50.384  1.00  0.00     0.001 A 
HETATM   31  C   UNL     1      19.304  51.751  49.786  1.00  0.00     0.000 A 
HETATM   32  C   UNL     1      19.757  51.951  48.486  1.00  0.00     0.001 A 
HETATM   33  C   UNL     1      20.347  50.901  47.778  1.00  0.00     0.008 A 
ENDBRANCH   8  28
BRANCH   9  34
HETATM   34  C   UNL     1      18.803  47.617  46.787  1.00  0.00     0.255 C 
HETATM   35  N   UNL     1      18.751  47.842  45.427  1.00  0.00    -0.323 N 
HETATM   36  H   UNL     1      19.611  47.812  44.903  1.00  0.00     0.169 HD
HETATM   37  O   UNL     1      17.845  47.684  47.552  1.00  0.00    -0.268 OA
BRANCH  35  38
HETATM   38  C   UNL     1      17.624  48.243  44.672  1.00  0.00     0.035 A 
HETATM   39  C   UNL     1      17.307  49.570  44.374  1.00  0.00     0.029 A 
HETATM   40  C   UNL     1      16.178  49.877  43.606  1.00  0.00     0.002 A 
HETATM   41  C   UNL     1      15.356  48.860  43.127  1.00  0.00     0.000 A 
HETATM   42  C   UNL     1      15.661  47.534  43.419  1.00  0.00     0.002 A 
HETATM   43  C   UNL     1      16.786  47.228  44.190  1.00  0.00     0.029 A 
ENDBRANCH  35  38
ENDBRANCH   9  34
TORSDOF 9
ENDMDL
MODEL 10
REMARK VINA RESULT:      -9.3      3.619     10.115
REMARK  9 active torsions:
REMARK  status: ('A' for Active; 'I' for Inactive)
REMARK    1  A    between atoms: C_4  and  S_5 
REMARK    2  A    between atoms: S_5  and  C_6 
REMARK    3  A    between atoms: C_6  and  C_7 
REMARK       I    between atoms: C_7  and  N_8 
REMARK    4  A    between atoms: N_8  and  C_9 
REMARK    5  A    between atoms: C_10  and  O_11 
REMARK    6  A    between atoms: C_16  and  O_17 
REMARK    7  A    between atoms: C_24  and  C_25 
REMARK    8  A    between atoms: C_31  and  C_32 
REMARK       I    between atoms: C_32  and  N_33 
REMARK    9  A    between atoms: N_33  and  C_34 
ROOT
HETATM    1  C   UNL     1      24.319  47.365  49.922  1.00  0.00     0.069 C 
HETATM    2  C   UNL     1      23.641  46.263  49.141  1.00  0.00     0.019 A 
HETATM    3  N   UNL     1      24.324  45.060  49.112  1.00  0.00    -0.353 N 
HETATM    4  C   UNL     1      23.888  43.905  48.494  1.00  0.00     0.087 A 
HETATM    5  C   UNL     1      22.670  43.891  47.905  1.00  0.00     0.055 A 
HETATM    6  C   UNL     1      22.101  42.626  47.287  1.00  0.00     0.019 C 
HETATM    7  N   UNL     1      21.627  41.575  46.773  1.00  0.00    -0.096 N 
HETATM    8  C   UNL     1      21.823  45.165  47.808  1.00  0.00     0.104 A 
HETATM    9  C   UNL     1      22.448  46.383  48.505  1.00  0.00     0.046 A 
HETATM   10  H   UNL     1      25.099  44.941  49.758  1.00  0.00     0.166 HD
ENDROOT
BRANCH   4  11
HETATM   11  S   UNL     1      24.893  42.470  48.490  1.00  0.00    -0.102 SA
BRANCH  11  12
HETATM   12  C   UNL     1      25.054  42.135  50.264  1.00  0.00     0.184 C 
BRANCH  12  13
HETATM   13  C   UNL     1      26.232  42.856  50.918  1.00  0.00     0.231 C 
HETATM   14  N   UNL     1      25.963  43.232  52.230  1.00  0.00    -0.324 N 
HETATM   15  H   UNL     1      25.089  42.898  52.615  1.00  0.00     0.169 HD
HETATM   16  O   UNL     1      27.305  42.951  50.330  1.00  0.00    -0.272 OA
BRANCH  14  17
HETATM   17  C   UNL     1      26.852  43.798  53.178  1.00  0.00     0.071 A 
HETATM   18  C   UNL     1      27.777  43.092  53.971  1.00  0.00     0.096 A 
HETATM   19  C   UNL     1      28.578  43.791  54.888  1.00  0.00     0.065 A 
HETATM   20  C   UNL     1      28.469  45.176  55.019  1.00  0.00     0.070 A 
HETATM   21 CL   UNL     1      29.480  45.980  56.167  1.00  0.00    -0.081 Cl
HETATM   22  C   UNL     1      27.565  45.882  54.230  1.00  0.00     0.092 A 
HETATM   23  C   UNL     1      26.790  45.199  53.290  1.00  0.00     0.071 A 
BRANCH  18  24
HETATM   24  O   UNL     1      27.978  41.768  53.695  1.00  0.00    -0.354 OA
HETATM   25  C   UNL     1      29.070  41.441  52.843  1.00  0.00     0.210 C 
ENDBRANCH  18  24
BRANCH  22  26
HETATM   26  O   UNL     1      27.502  47.249  54.327  1.00  0.00    -0.354 OA
HETATM   27  C   UNL     1      26.248  47.694  54.840  1.00  0.00     0.210 C 
ENDBRANCH  22  26
ENDBRANCH  14  17
ENDBRANCH  12  13
ENDBRANCH  11  12
ENDBRANCH   4  11
BRANCH   8  28
HETATM   28  C   UNL     1      21.431  45.445  46.354  1.00  0.00    -0.044 A 
HETATM   29  C   UNL     1      20.135  45.896  46.050  1.00  0.00     0.008 A 
HETATM   30  C   UNL     1      19.759  46.146  44.729  1.00  0.00     0.001 A 
HETATM   31  C   UNL     1      20.671  45.953  43.695  1.00  0.00     0.000 A 
HETATM   32  C   UNL     1      21.956  45.500  43.979  1.00  0.00     0.001 A 
HETATM   33  C   UNL     1      22.331  45.236  45.298  1.00  0.00     0.008 A 
ENDBRANCH   8  28
BRANCH   9  34
HETATM   34  C   UNL     1      21.794  47.739  48.389  1.00  0.00     0.255 C 
HETATM   35  N   UNL     1      20.850  48.025  49.354  1.00  0.00    -0.323 N 
HETATM   36  H   UNL     1      20.651  47.324  50.052  1.00  0.00     0.169 HD
HETATM   37  O   UNL     1      22.087  48.472  47.448  1.00  0.00    -0.268 OA
BRANCH  35  38
HETATM   38  C   UNL     1      20.013  49.163  49.419  1.00  0.00     0.035 A 
HETATM   39  C   UNL     1      20.380  50.379  49.997  1.00  0.00     0.029 A 
HETATM   40  C   UNL     1      19.492  51.461  50.004  1.00  0.00     0.002 A 
HETATM   41  C   UNL     1      18.229  51.336  49.431  1.00  0.00     0.000 A 
HETATM   42  C   UNL     1      17.851  50.128  48.854  1.00  0.00     0.002 A 
HETATM   43  C   UNL     1      18.736  49.047  48.851  1.00  0.00     0.029 A 
ENDBRANCH  35  38
ENDBRANCH   9  34
TORSDOF 9
ENDMDL
