MODEL 1
REMARK VINA RESULT:      -8.7      0.000      0.000
REMARK  3 active torsions:
REMARK  status: ('A' for Active; 'I' for Inactive)
REMARK    1  A    between atoms: C_9  and  C_10 
REMARK    2  A    between atoms: C_16  and  C_17 
REMARK       I    between atoms: C_17  and  N_18 
REMARK    3  A    between atoms: N_18  and  C_19 
ROOT
HETATM    1  C   UNL     1      22.493  44.509  47.987  1.00  0.00     0.070 C 
HETATM    2  C   UNL     1      23.381  45.247  48.958  1.00  0.00     0.037 C 
HETATM    3  N   UNL     1      24.238  44.452  49.713  1.00  0.00    -0.192 N 
HETATM    4  C   UNL     1      24.908  44.915  50.786  1.00  0.00     0.725 A 
HETATM    5  N   UNL     1      24.890  46.256  51.063  1.00  0.00    -0.082 N 
HETATM    6  N   UNL     1      25.484  46.520  52.250  1.00  0.00    -0.149 NA
HETATM    7  C   UNL     1      25.905  45.295  52.588  1.00  0.00     0.275 A 
HETATM    8  N   UNL     1      25.573  44.286  51.722  1.00  0.00    -0.054 NA
HETATM    9  C   UNL     1      24.201  47.254  50.243  1.00  0.00     0.221 C 
HETATM   10  C   UNL     1      23.344  46.585  49.177  1.00  0.00     0.064 C 
HETATM   11  H   UNL     1      24.183  43.445  49.584  1.00  0.00     0.184 HD
ENDROOT
BRANCH  10  12
HETATM   12  C   UNL     1      22.412  47.524  48.499  1.00  0.00     0.257 C 
HETATM   13  N   UNL     1      21.637  48.247  49.372  1.00  0.00    -0.308 N 
HETATM   14  H   UNL     1      21.687  48.012  50.352  1.00  0.00     0.170 HD
HETATM   15  O   UNL     1      22.397  47.533  47.275  1.00  0.00    -0.267 OA
BRANCH  13  16
HETATM   16  C   UNL     1      20.788  49.301  49.008  1.00  0.00     0.129 A 
HETATM   17  N   UNL     1      19.501  49.070  48.699  1.00  0.00    -0.243 NA
HETATM   18  C   UNL     1      18.737  50.118  48.323  1.00  0.00     0.119 A 
HETATM   19  C   UNL     1      19.208  51.415  48.224  1.00  0.00     0.019 A 
HETATM   20  C   UNL     1      20.541  51.645  48.538  1.00  0.00     0.005 A 
HETATM   21  C   UNL     1      21.342  50.577  48.941  1.00  0.00     0.050 A 
ENDBRANCH  13  16
ENDBRANCH  10  12
BRANCH   9  22
HETATM   22  C   UNL     1      25.242  48.199  49.652  1.00  0.00     0.064 A 
HETATM   23  N   UNL     1      24.812  49.334  49.030  1.00  0.00    -0.263 NA
HETATM   24  C   UNL     1      25.748  50.118  48.450  1.00  0.00     0.117 A 
HETATM   25  C   UNL     1      27.105  49.843  48.464  1.00  0.00     0.019 A 
HETATM   26  C   UNL     1      27.534  48.694  49.113  1.00  0.00     0.003 A 
HETATM   27  C   UNL     1      26.596  47.858  49.712  1.00  0.00     0.030 A 
ENDBRANCH   9  22
TORSDOF 3
ENDMDL
MODEL 2
REMARK VINA RESULT:      -8.7      4.496      8.589
REMARK  3 active torsions:
REMARK  status: ('A' for Active; 'I' for Inactive)
REMARK    1  A    between atoms: C_9  and  C_10 
REMARK    2  A    between atoms: C_16  and  C_17 
REMARK       I    between atoms: C_17  and  N_18 
REMARK    3  A    between atoms: N_18  and  C_19 
ROOT
HETATM    1  C   UNL     1      26.074  47.170  52.516  1.00  0.00     0.070 C 
HETATM    2  C   UNL     1      25.550  45.894  51.907  1.00  0.00     0.037 C 
HETATM    3  N   UNL     1      24.703  46.052  50.814  1.00  0.00    -0.192 N 
HETATM    4  C   UNL     1      23.960  45.046  50.315  1.00  0.00     0.725 A 
HETATM    5  N   UNL     1      24.154  43.772  50.777  1.00  0.00    -0.082 N 
HETATM    6  N   UNL     1      23.225  42.923  50.279  1.00  0.00    -0.149 NA
HETATM    7  C   UNL     1      22.558  43.746  49.461  1.00  0.00     0.275 A 
HETATM    8  N   UNL     1      22.973  45.052  49.454  1.00  0.00    -0.054 NA
HETATM    9  C   UNL     1      25.153  43.407  51.782  1.00  0.00     0.221 C 
HETATM   10  C   UNL     1      25.794  44.649  52.389  1.00  0.00     0.064 C 
HETATM   11  H   UNL     1      24.475  47.000  50.529  1.00  0.00     0.184 HD
ENDROOT
BRANCH  10  12
HETATM   12  C   UNL     1      26.607  44.359  53.598  1.00  0.00     0.257 C 
HETATM   13  N   UNL     1      27.959  44.477  53.387  1.00  0.00    -0.308 N 
HETATM   14  H   UNL     1      28.276  44.640  52.443  1.00  0.00     0.170 HD
HETATM   15  O   UNL     1      26.019  44.016  54.615  1.00  0.00    -0.267 OA
BRANCH  13  16
HETATM   16  C   UNL     1      28.937  44.406  54.388  1.00  0.00     0.129 A 
HETATM   17  N   UNL     1      29.132  45.434  55.232  1.00  0.00    -0.243 NA
HETATM   18  C   UNL     1      30.110  45.325  56.155  1.00  0.00     0.119 A 
HETATM   19  C   UNL     1      30.935  44.221  56.273  1.00  0.00     0.019 A 
HETATM   20  C   UNL     1      30.734  43.166  55.393  1.00  0.00     0.005 A 
HETATM   21  C   UNL     1      29.719  43.255  54.441  1.00  0.00     0.050 A 
ENDBRANCH  13  16
ENDBRANCH  10  12
BRANCH   9  22
HETATM   22  C   UNL     1      26.174  42.476  51.136  1.00  0.00     0.064 A 
HETATM   23  N   UNL     1      26.940  41.689  51.944  1.00  0.00    -0.263 NA
HETATM   24  C   UNL     1      27.888  40.926  51.353  1.00  0.00     0.117 A 
HETATM   25  C   UNL     1      28.111  40.891  49.988  1.00  0.00     0.019 A 
HETATM   26  C   UNL     1      27.316  41.685  49.172  1.00  0.00     0.003 A 
HETATM   27  C   UNL     1      26.338  42.490  49.748  1.00  0.00     0.030 A 
ENDBRANCH   9  22
TORSDOF 3
ENDMDL
MODEL 3
REMARK VINA RESULT:      -8.5      2.580      3.343
REMARK  3 active torsions:
REMARK  status: ('A' for Active; 'I' for Inactive)
REMARK    1  A    between atoms: C_9  and  C_10 
REMARK    2  A    between atoms: C_16  and  C_17 
REMARK       I    between atoms: C_17  and  N_18 
REMARK    3  A    between atoms: N_18  and  C_19 
ROOT
HETATM    1  C   UNL     1      25.998  42.884  50.724  1.00  0.00     0.070 C 
HETATM    2  C   UNL     1      25.884  44.319  51.173  1.00  0.00     0.037 C 
HETATM    3  N   UNL     1      26.611  44.652  52.313  1.00  0.00    -0.192 N 
HETATM    4  C   UNL     1      26.428  45.806  52.984  1.00  0.00     0.725 A 
HETATM    5  N   UNL     1      25.621  46.775  52.449  1.00  0.00    -0.082 N 
HETATM    6  N   UNL     1      25.434  47.792  53.321  1.00  0.00    -0.149 NA
HETATM    7  C   UNL     1      26.226  47.400  54.326  1.00  0.00     0.275 A 
HETATM    8  N   UNL     1      26.850  46.191  54.162  1.00  0.00    -0.054 NA
HETATM    9  C   UNL     1      24.946  46.658  51.156  1.00  0.00     0.221 C 
HETATM   10  C   UNL     1      25.089  45.251  50.591  1.00  0.00     0.064 C 
HETATM   11  H   UNL     1      27.132  43.911  52.773  1.00  0.00     0.184 HD
ENDROOT
BRANCH  10  12
HETATM   12  C   UNL     1      24.201  44.992  49.428  1.00  0.00     0.257 C 
HETATM   13  N   UNL     1      22.957  45.561  49.556  1.00  0.00    -0.308 N 
HETATM   14  H   UNL     1      22.726  45.996  50.437  1.00  0.00     0.170 HD
HETATM   15  O   UNL     1      24.632  44.291  48.522  1.00  0.00    -0.267 OA
BRANCH  13  16
HETATM   16  C   UNL     1      21.984  45.598  48.548  1.00  0.00     0.129 A 
HETATM   17  N   UNL     1      21.176  44.546  48.335  1.00  0.00    -0.243 NA
HETATM   18  C   UNL     1      20.279  44.624  47.329  1.00  0.00     0.119 A 
HETATM   19  C   UNL     1      20.154  45.720  46.495  1.00  0.00     0.019 A 
HETATM   20  C   UNL     1      20.997  46.800  46.716  1.00  0.00     0.005 A 
HETATM   21  C   UNL     1      21.921  46.744  47.759  1.00  0.00     0.050 A 
ENDBRANCH  13  16
ENDBRANCH  10  12
BRANCH   9  22
HETATM   22  C   UNL     1      25.503  47.726  50.220  1.00  0.00     0.064 A 
HETATM   23  N   UNL     1      24.626  48.550  49.578  1.00  0.00    -0.263 NA
HETATM   24  C   UNL     1      25.139  49.439  48.697  1.00  0.00     0.117 A 
HETATM   25  C   UNL     1      26.490  49.566  48.424  1.00  0.00     0.019 A 
HETATM   26  C   UNL     1      27.376  48.732  49.093  1.00  0.00     0.003 A 
HETATM   27  C   UNL     1      26.881  47.798  49.999  1.00  0.00     0.030 A 
ENDBRANCH   9  22
TORSDOF 3
ENDMDL
MODEL 4
REMARK VINA RESULT:      -8.4      3.030      5.527
REMARK  3 active torsions:
REMARK  status: ('A' for Active; 'I' for Inactive)
REMARK    1  A    between atoms: C_9  and  C_10 
REMARK    2  A    between atoms: C_16  and  C_17 
REMARK       I    between atoms: C_17  and  N_18 
REMARK    3  A    between atoms: N_18  and  C_19 
ROOT
HETATM    1  C   UNL     1      26.599  45.952  54.472  1.00  0.00     0.070 C 
HETATM    2  C   UNL     1      26.637  44.986  53.314  1.00  0.00     0.037 C 
HETATM    3  N   UNL     1      27.050  43.693  53.622  1.00  0.00    -0.192 N 
HETATM    4  C   UNL     1      27.376  42.787  52.681  1.00  0.00     0.725 A 
HETATM    5  N   UNL     1      27.141  43.072  51.362  1.00  0.00    -0.082 N 
HETATM    6  N   UNL     1      27.666  42.122  50.554  1.00  0.00    -0.149 NA
HETATM    7  C   UNL     1      28.128  41.256  51.465  1.00  0.00     0.275 A 
HETATM    8  N   UNL     1      27.973  41.625  52.776  1.00  0.00    -0.054 NA
HETATM    9  C   UNL     1      26.522  44.311  50.889  1.00  0.00     0.221 C 
HETATM   10  C   UNL     1      26.369  45.313  52.025  1.00  0.00     0.064 C 
HETATM   11  H   UNL     1      27.323  43.502  54.582  1.00  0.00     0.184 HD
ENDROOT
BRANCH  10  12
HETATM   12  C   UNL     1      26.007  46.677  51.560  1.00  0.00     0.257 C 
HETATM   13  N   UNL     1      26.446  46.953  50.288  1.00  0.00    -0.308 N 
HETATM   14  H   UNL     1      27.043  46.275  49.839  1.00  0.00     0.170 HD
HETATM   15  O   UNL     1      25.411  47.409  52.339  1.00  0.00    -0.267 OA
BRANCH  13  16
HETATM   16  C   UNL     1      26.115  48.101  49.556  1.00  0.00     0.129 A 
HETATM   17  N   UNL     1      24.835  48.377  49.254  1.00  0.00    -0.243 NA
HETATM   18  C   UNL     1      24.577  49.479  48.518  1.00  0.00     0.119 A 
HETATM   19  C   UNL     1      25.556  50.331  48.042  1.00  0.00     0.019 A 
HETATM   20  C   UNL     1      26.877  50.036  48.351  1.00  0.00     0.005 A 
HETATM   21  C   UNL     1      27.163  48.910  49.122  1.00  0.00     0.050 A 
ENDBRANCH  13  16
ENDBRANCH  10  12
BRANCH   9  22
HETATM   22  C   UNL     1      25.192  43.966  50.227  1.00  0.00     0.064 A 
HETATM   23  N   UNL     1      24.917  44.495  49.001  1.00  0.00    -0.263 NA
HETATM   24  C   UNL     1      23.702  44.235  48.468  1.00  0.00     0.117 A 
HETATM   25  C   UNL     1      22.737  43.458  49.085  1.00  0.00     0.019 A 
HETATM   26  C   UNL     1      23.031  42.911  50.327  1.00  0.00     0.003 A 
HETATM   27  C   UNL     1      24.269  43.168  50.910  1.00  0.00     0.030 A 
ENDBRANCH   9  22
TORSDOF 3
ENDMDL
MODEL 5
REMARK VINA RESULT:      -8.3      4.955      8.601
REMARK  3 active torsions:
REMARK  status: ('A' for Active; 'I' for Inactive)
REMARK    1  A    between atoms: C_9  and  C_10 
REMARK    2  A    between atoms: C_16  and  C_17 
REMARK       I    between atoms: C_17  and  N_18 
REMARK    3  A    between atoms: N_18  and  C_19 
ROOT
HETATM    1  C   UNL     1      28.052  40.420  53.536  1.00  0.00     0.070 C 
HETATM    2  C   UNL     1      27.624  41.158  52.293  1.00  0.00     0.037 C 
HETATM    3  N   UNL     1      26.807  40.445  51.420  1.00  0.00    -0.192 N 
HETATM    4  C   UNL     1      26.543  40.857  50.166  1.00  0.00     0.725 A 
HETATM    5  N   UNL     1      26.946  42.104  49.768  1.00  0.00    -0.082 N 
HETATM    6  N   UNL     1      26.733  42.289  48.444  1.00  0.00    -0.149 NA
HETATM    7  C   UNL     1      26.124  41.138  48.133  1.00  0.00     0.275 A 
HETATM    8  N   UNL     1      25.989  40.235  49.155  1.00  0.00    -0.054 NA
HETATM    9  C   UNL     1      27.639  43.058  50.635  1.00  0.00     0.221 C 
HETATM   10  C   UNL     1      28.032  42.408  51.956  1.00  0.00     0.064 C 
HETATM   11  H   UNL     1      26.587  39.483  51.662  1.00  0.00     0.184 HD
ENDROOT
BRANCH  10  12
HETATM   12  C   UNL     1      28.972  43.232  52.759  1.00  0.00     0.257 C 
HETATM   13  N   UNL     1      28.415  43.721  53.915  1.00  0.00    -0.308 N 
HETATM   14  H   UNL     1      27.428  43.574  54.061  1.00  0.00     0.170 HD
HETATM   15  O   UNL     1      30.095  43.422  52.311  1.00  0.00    -0.267 OA
BRANCH  13  16
HETATM   16  C   UNL     1      29.118  44.398  54.921  1.00  0.00     0.129 A 
HETATM   17  N   UNL     1      28.746  45.629  55.310  1.00  0.00    -0.243 NA
HETATM   18  C   UNL     1      29.479  46.247  56.260  1.00  0.00     0.119 A 
HETATM   19  C   UNL     1      30.602  45.693  56.845  1.00  0.00     0.019 A 
HETATM   20  C   UNL     1      30.986  44.424  56.433  1.00  0.00     0.005 A 
HETATM   21  C   UNL     1      30.233  43.763  55.463  1.00  0.00     0.050 A 
ENDBRANCH  13  16
ENDBRANCH  10  12
BRANCH   9  22
HETATM   22  C   UNL     1      26.745  44.278  50.825  1.00  0.00     0.064 A 
HETATM   23  N   UNL     1      25.777  44.234  51.785  1.00  0.00    -0.263 NA
HETATM   24  C   UNL     1      24.949  45.299  51.885  1.00  0.00     0.117 A 
HETATM   25  C   UNL     1      25.038  46.425  51.085  1.00  0.00     0.019 A 
HETATM   26  C   UNL     1      26.036  46.467  50.120  1.00  0.00     0.003 A 
HETATM   27  C   UNL     1      26.898  45.383  49.983  1.00  0.00     0.030 A 
ENDBRANCH   9  22
TORSDOF 3
ENDMDL
MODEL 6
REMARK VINA RESULT:      -8.1      3.251      6.059
REMARK  3 active torsions:
REMARK  status: ('A' for Active; 'I' for Inactive)
REMARK    1  A    between atoms: C_9  and  C_10 
REMARK    2  A    between atoms: C_16  and  C_17 
REMARK       I    between atoms: C_17  and  N_18 
REMARK    3  A    between atoms: N_18  and  C_19 
ROOT
HETATM    1  C   UNL     1      27.800  43.140  52.965  1.00  0.00     0.070 C 
HETATM    2  C   UNL     1      27.180  44.511  53.058  1.00  0.00     0.037 C 
HETATM    3  N   UNL     1      27.775  45.380  53.969  1.00  0.00    -0.192 N 
HETATM    4  C   UNL     1      27.204  46.537  54.354  1.00  0.00     0.725 A 
HETATM    5  N   UNL     1      26.076  46.977  53.714  1.00  0.00    -0.082 N 
HETATM    6  N   UNL     1      25.558  48.067  54.326  1.00  0.00    -0.149 NA
HETATM    7  C   UNL     1      26.477  48.271  55.278  1.00  0.00     0.275 A 
HETATM    8  N   UNL     1      27.498  47.358  55.332  1.00  0.00    -0.054 NA
HETATM    9  C   UNL     1      25.443  46.278  52.595  1.00  0.00     0.221 C 
HETATM   10  C   UNL     1      26.075  44.909  52.380  1.00  0.00     0.064 C 
HETATM   11  H   UNL     1      28.550  45.025  54.522  1.00  0.00     0.184 HD
ENDROOT
BRANCH  10  12
HETATM   12  C   UNL     1      25.302  44.045  51.450  1.00  0.00     0.257 C 
HETATM   13  N   UNL     1      25.864  43.951  50.200  1.00  0.00    -0.308 N 
HETATM   14  H   UNL     1      26.660  44.537  49.997  1.00  0.00     0.170 HD
HETATM   15  O   UNL     1      24.259  43.552  51.858  1.00  0.00    -0.267 OA
BRANCH  13  16
HETATM   16  C   UNL     1      25.426  43.091  49.185  1.00  0.00     0.129 A 
HETATM   17  N   UNL     1      26.149  42.012  48.840  1.00  0.00    -0.243 NA
HETATM   18  C   UNL     1      25.697  41.236  47.833  1.00  0.00     0.119 A 
HETATM   19  C   UNL     1      24.538  41.496  47.124  1.00  0.00     0.019 A 
HETATM   20  C   UNL     1      23.799  42.616  47.481  1.00  0.00     0.005 A 
HETATM   21  C   UNL     1      24.243  43.422  48.528  1.00  0.00     0.050 A 
ENDBRANCH  13  16
ENDBRANCH  10  12
BRANCH   9  22
HETATM   22  C   UNL     1      25.529  47.165  51.357  1.00  0.00     0.064 A 
HETATM   23  N   UNL     1      24.374  47.502  50.716  1.00  0.00    -0.263 NA
HETATM   24  C   UNL     1      24.481  48.228  49.580  1.00  0.00     0.117 A 
HETATM   25  C   UNL     1      25.685  48.654  49.045  1.00  0.00     0.019 A 
HETATM   26  C   UNL     1      26.855  48.318  49.713  1.00  0.00     0.003 A 
HETATM   27  C   UNL     1      26.781  47.563  50.880  1.00  0.00     0.030 A 
ENDBRANCH   9  22
TORSDOF 3
ENDMDL
MODEL 7
REMARK VINA RESULT:      -7.9      4.915      7.678
REMARK  3 active torsions:
REMARK  status: ('A' for Active; 'I' for Inactive)
REMARK    1  A    between atoms: C_9  and  C_10 
REMARK    2  A    between atoms: C_16  and  C_17 
REMARK       I    between atoms: C_17  and  N_18 
REMARK    3  A    between atoms: N_18  and  C_19 
ROOT
HETATM    1  C   UNL     1      28.393  40.666  53.472  1.00  0.00     0.070 C 
HETATM    2  C   UNL     1      27.986  41.087  52.083  1.00  0.00     0.037 C 
HETATM    3  N   UNL     1      27.699  40.051  51.199  1.00  0.00    -0.192 N 
HETATM    4  C   UNL     1      27.565  40.239  49.872  1.00  0.00     0.725 A 
HETATM    5  N   UNL     1      27.540  41.514  49.372  1.00  0.00    -0.082 N 
HETATM    6  N   UNL     1      27.552  41.510  48.019  1.00  0.00    -0.149 NA
HETATM    7  C   UNL     1      27.503  40.193  47.779  1.00  0.00     0.275 A 
HETATM    8  N   UNL     1      27.511  39.382  48.883  1.00  0.00    -0.054 NA
HETATM    9  C   UNL     1      27.623  42.720  50.196  1.00  0.00     0.221 C 
HETATM   10  C   UNL     1      27.950  42.370  51.643  1.00  0.00     0.064 C 
HETATM   11  H   UNL     1      27.815  39.099  51.536  1.00  0.00     0.184 HD
ENDROOT
BRANCH  10  12
HETATM   12  C   UNL     1      28.319  43.552  52.463  1.00  0.00     0.257 C 
HETATM   13  N   UNL     1      27.237  44.301  52.857  1.00  0.00    -0.308 N 
HETATM   14  H   UNL     1      26.333  44.055  52.483  1.00  0.00     0.170 HD
HETATM   15  O   UNL     1      29.508  43.760  52.667  1.00  0.00    -0.267 OA
BRANCH  13  16
HETATM   16  C   UNL     1      27.288  45.375  53.756  1.00  0.00     0.129 A 
HETATM   17  N   UNL     1      28.073  45.322  54.845  1.00  0.00    -0.243 NA
HETATM   18  C   UNL     1      28.058  46.371  55.694  1.00  0.00     0.119 A 
HETATM   19  C   UNL     1      27.268  47.492  55.516  1.00  0.00     0.019 A 
HETATM   20  C   UNL     1      26.453  47.537  54.393  1.00  0.00     0.005 A 
HETATM   21  C   UNL     1      26.465  46.469  53.497  1.00  0.00     0.050 A 
ENDBRANCH  13  16
ENDBRANCH  10  12
BRANCH   9  22
HETATM   22  C   UNL     1      26.315  43.492  50.060  1.00  0.00     0.064 A 
HETATM   23  N   UNL     1      26.367  44.798  49.671  1.00  0.00    -0.263 NA
HETATM   24  C   UNL     1      25.201  45.482  49.629  1.00  0.00     0.117 A 
HETATM   25  C   UNL     1      23.970  44.932  49.943  1.00  0.00     0.019 A 
HETATM   26  C   UNL     1      23.926  43.598  50.324  1.00  0.00     0.003 A 
HETATM   27  C   UNL     1      25.108  42.867  50.388  1.00  0.00     0.030 A 
ENDBRANCH   9  22
TORSDOF 3
ENDMDL
MODEL 8
REMARK VINA RESULT:      -7.9      9.543     11.984
REMARK  3 active torsions:
REMARK  status: ('A' for Active; 'I' for Inactive)
REMARK    1  A    between atoms: C_9  and  C_10 
REMARK    2  A    between atoms: C_16  and  C_17 
REMARK       I    between atoms: C_17  and  N_18 
REMARK    3  A    between atoms: N_18  and  C_19 
ROOT
HETATM    1  C   UNL     1      25.134  49.167  39.333  1.00  0.00     0.070 C 
HETATM    2  C   UNL     1      26.594  49.487  39.133  1.00  0.00     0.037 C 
HETATM    3  N   UNL     1      26.888  50.824  38.882  1.00  0.00    -0.192 N 
HETATM    4  C   UNL     1      28.092  51.236  38.439  1.00  0.00     0.725 A 
HETATM    5  N   UNL     1      29.131  50.345  38.387  1.00  0.00    -0.082 N 
HETATM    6  N   UNL     1      30.212  50.888  37.781  1.00  0.00    -0.149 NA
HETATM    7  C   UNL     1      29.772  52.135  37.570  1.00  0.00     0.275 A 
HETATM    8  N   UNL     1      28.481  52.389  37.956  1.00  0.00    -0.054 NA
HETATM    9  C   UNL     1      29.035  48.948  38.812  1.00  0.00     0.221 C 
HETATM   10  C   UNL     1      27.592  48.568  39.116  1.00  0.00     0.064 C 
HETATM   11  H   UNL     1      26.110  51.474  38.819  1.00  0.00     0.184 HD
ENDROOT
BRANCH  10  12
HETATM   12  C   UNL     1      27.392  47.105  39.282  1.00  0.00     0.257 C 
HETATM   13  N   UNL     1      27.544  46.678  40.579  1.00  0.00    -0.308 N 
HETATM   14  H   UNL     1      27.869  47.348  41.260  1.00  0.00     0.170 HD
HETATM   15  O   UNL     1      27.161  46.441  38.281  1.00  0.00    -0.267 OA
BRANCH  13  16
HETATM   16  C   UNL     1      27.266  45.383  41.036  1.00  0.00     0.129 A 
HETATM   17  N   UNL     1      27.937  44.326  40.550  1.00  0.00    -0.243 NA
HETATM   18  C   UNL     1      27.606  43.097  41.001  1.00  0.00     0.119 A 
HETATM   19  C   UNL     1      26.603  42.863  41.924  1.00  0.00     0.019 A 
HETATM   20  C   UNL     1      25.909  43.960  42.417  1.00  0.00     0.005 A 
HETATM   21  C   UNL     1      26.246  45.238  41.973  1.00  0.00     0.050 A 
ENDBRANCH  13  16
ENDBRANCH  10  12
BRANCH   9  22
HETATM   22  C   UNL     1      29.962  48.739  40.005  1.00  0.00     0.064 A 
HETATM   23  N   UNL     1      29.589  49.246  41.215  1.00  0.00    -0.263 NA
HETATM   24  C   UNL     1      30.461  49.113  42.241  1.00  0.00     0.117 A 
HETATM   25  C   UNL     1      31.690  48.485  42.134  1.00  0.00     0.019 A 
HETATM   26  C   UNL     1      32.054  47.960  40.902  1.00  0.00     0.003 A 
HETATM   27  C   UNL     1      31.185  48.089  39.822  1.00  0.00     0.030 A 
ENDBRANCH   9  22
TORSDOF 3
ENDMDL
MODEL 9
REMARK VINA RESULT:      -7.8      2.835      7.610
REMARK  3 active torsions:
REMARK  status: ('A' for Active; 'I' for Inactive)
REMARK    1  A    between atoms: C_9  and  C_10 
REMARK    2  A    between atoms: C_16  and  C_17 
REMARK       I    between atoms: C_17  and  N_18 
REMARK    3  A    between atoms: N_18  and  C_19 
ROOT
HETATM    1  C   UNL     1      18.425  45.414  47.806  1.00  0.00     0.070 C 
HETATM    2  C   UNL     1      17.852  46.772  47.493  1.00  0.00     0.037 C 
HETATM    3  N   UNL     1      16.462  46.841  47.440  1.00  0.00    -0.192 N 
HETATM    4  C   UNL     1      15.802  47.902  46.936  1.00  0.00     0.725 A 
HETATM    5  N   UNL     1      16.499  49.035  46.610  1.00  0.00    -0.082 N 
HETATM    6  N   UNL     1      15.706  49.934  45.982  1.00  0.00    -0.149 NA
HETATM    7  C   UNL     1      14.527  49.301  46.041  1.00  0.00     0.275 A 
HETATM    8  N   UNL     1      14.543  48.056  46.614  1.00  0.00    -0.054 NA
HETATM    9  C   UNL     1      17.941  49.194  46.799  1.00  0.00     0.221 C 
HETATM   10  C   UNL     1      18.587  47.875  47.202  1.00  0.00     0.064 C 
HETATM   11  H   UNL     1      15.942  45.980  47.581  1.00  0.00     0.184 HD
ENDROOT
BRANCH  10  12
HETATM   12  C   UNL     1      20.071  47.904  47.139  1.00  0.00     0.257 C 
HETATM   13  N   UNL     1      20.639  48.747  48.062  1.00  0.00    -0.308 N 
HETATM   14  H   UNL     1      20.023  49.330  48.609  1.00  0.00     0.170 HD
HETATM   15  O   UNL     1      20.621  47.232  46.277  1.00  0.00    -0.267 OA
BRANCH  13  16
HETATM   16  C   UNL     1      22.013  48.850  48.317  1.00  0.00     0.129 A 
HETATM   17  N   UNL     1      22.640  47.937  49.078  1.00  0.00    -0.243 NA
HETATM   18  C   UNL     1      23.958  48.104  49.318  1.00  0.00     0.119 A 
HETATM   19  C   UNL     1      24.697  49.170  48.839  1.00  0.00     0.019 A 
HETATM   20  C   UNL     1      24.041  50.114  48.061  1.00  0.00     0.005 A 
HETATM   21  C   UNL     1      22.683  49.952  47.790  1.00  0.00     0.050 A 
ENDBRANCH  13  16
ENDBRANCH  10  12
BRANCH   9  22
HETATM   22  C   UNL     1      18.178  50.301  47.821  1.00  0.00     0.064 A 
HETATM   23  N   UNL     1      17.837  50.070  49.121  1.00  0.00    -0.263 NA
HETATM   24  C   UNL     1      17.988  51.091  49.995  1.00  0.00     0.117 A 
HETATM   25  C   UNL     1      18.475  52.339  49.649  1.00  0.00     0.019 A 
HETATM   26  C   UNL     1      18.833  52.560  48.326  1.00  0.00     0.003 A 
HETATM   27  C   UNL     1      18.681  51.534  47.398  1.00  0.00     0.030 A 
ENDBRANCH   9  22
TORSDOF 3
ENDMDL
MODEL 10
REMARK VINA RESULT:      -7.8      3.648      7.512
REMARK  3 active torsions:
REMARK  status: ('A' for Active; 'I' for Inactive)
REMARK    1  A    between atoms: C_9  and  C_10 
REMARK    2  A    between atoms: C_16  and  C_17 
REMARK       I    between atoms: C_17  and  N_18 
REMARK    3  A    between atoms: N_18  and  C_19 
ROOT
HETATM    1  C   UNL     1      22.492  44.068  49.322  1.00  0.00     0.070 C 
HETATM    2  C   UNL     1      23.767  44.812  49.629  1.00  0.00     0.037 C 
HETATM    3  N   UNL     1      23.652  46.197  49.708  1.00  0.00    -0.192 N 
HETATM    4  C   UNL     1      24.719  47.018  49.725  1.00  0.00     0.725 A 
HETATM    5  N   UNL     1      25.976  46.487  49.838  1.00  0.00    -0.082 N 
HETATM    6  N   UNL     1      26.926  47.438  49.686  1.00  0.00    -0.149 NA
HETATM    7  C   UNL     1      26.160  48.530  49.567  1.00  0.00     0.275 A 
HETATM    8  N   UNL     1      24.806  48.317  49.584  1.00  0.00    -0.054 NA
HETATM    9  C   UNL     1      26.253  45.056  49.971  1.00  0.00     0.221 C 
HETATM   10  C   UNL     1      24.988  44.234  49.759  1.00  0.00     0.064 C 
HETATM   11  H   UNL     1      22.740  46.604  49.524  1.00  0.00     0.184 HD
ENDROOT
BRANCH  10  12
HETATM   12  C   UNL     1      25.252  42.780  49.607  1.00  0.00     0.257 C 
HETATM   13  N   UNL     1      25.922  42.466  48.450  1.00  0.00    -0.308 N 
HETATM   14  H   UNL     1      26.077  43.205  47.780  1.00  0.00     0.170 HD
HETATM   15  O   UNL     1      24.827  42.026  50.473  1.00  0.00    -0.267 OA
BRANCH  13  16
HETATM   16  C   UNL     1      26.425  41.197  48.132  1.00  0.00     0.129 A 
HETATM   17  N   UNL     1      25.612  40.233  47.669  1.00  0.00    -0.243 NA
HETATM   18  C   UNL     1      26.143  39.019  47.411  1.00  0.00     0.119 A 
HETATM   19  C   UNL     1      27.476  38.706  47.610  1.00  0.00     0.019 A 
HETATM   20  C   UNL     1      28.309  39.705  48.096  1.00  0.00     0.005 A 
HETATM   21  C   UNL     1      27.781  40.969  48.356  1.00  0.00     0.050 A 
ENDBRANCH  13  16
ENDBRANCH  10  12
BRANCH   9  22
HETATM   22  C   UNL     1      26.890  44.810  51.335  1.00  0.00     0.064 A 
HETATM   23  N   UNL     1      28.000  44.021  51.402  1.00  0.00    -0.263 NA
HETATM   24  C   UNL     1      28.504  43.758  52.630  1.00  0.00     0.117 A 
HETATM   25  C   UNL     1      27.968  44.250  53.807  1.00  0.00     0.019 A 
HETATM   26  C   UNL     1      26.846  45.064  53.727  1.00  0.00     0.003 A 
HETATM   27  C   UNL     1      26.295  45.347  52.481  1.00  0.00     0.030 A 
ENDBRANCH   9  22
TORSDOF 3
ENDMDL
