MODEL 1
REMARK VINA RESULT:     -10.5      0.000      0.000
REMARK  6 active torsions:
REMARK  status: ('A' for Active; 'I' for Inactive)
REMARK    1  A    between atoms: C_2  and  O_3 
REMARK    2  A    between atoms: O_3  and  C_4 
REMARK    3  A    between atoms: C_5  and  C_6 
REMARK       I    between atoms: C_6  and  N_7 
REMARK    4  A    between atoms: N_7  and  C_8 
REMARK    5  A    between atoms: N_9  and  C_10 
REMARK    6  A    between atoms: C_21  and  C_22 
ROOT
HETATM    1  C   UNL     1      26.039  45.602  50.789  1.00  0.00     0.152 A 
HETATM    2  N   UNL     1      25.379  44.967  49.747  1.00  0.00    -0.044 N 
HETATM    3  N   UNL     1      24.458  45.776  49.142  1.00  0.00    -0.148 NA
HETATM    4  C   UNL     1      24.547  46.927  49.823  1.00  0.00     0.115 A 
HETATM    5  C   UNL     1      25.488  46.859  50.872  1.00  0.00     0.087 A 
ENDROOT
BRANCH   1   6
HETATM    6  N   UNL     1      27.057  44.982  51.493  1.00  0.00    -0.307 N 
HETATM    7  C   UNL     1      26.876  44.349  52.704  1.00  0.00     0.261 C 
HETATM    8  O   UNL     1      25.816  44.058  53.245  1.00  0.00    -0.267 OA
HETATM    9  H   UNL     1      28.005  45.064  51.117  1.00  0.00     0.170 HD
BRANCH   7  10
HETATM   10  C   UNL     1      28.157  43.996  53.357  1.00  0.00     0.076 A 
HETATM   11  C   UNL     1      28.879  42.911  52.825  1.00  0.00     0.085 A 
HETATM   12  C   UNL     1      30.061  42.524  53.451  1.00  0.00     0.039 A 
HETATM   13  C   UNL     1      30.508  43.203  54.589  1.00  0.00     0.015 A 
HETATM   14  C   UNL     1      29.787  44.281  55.128  1.00  0.00    -0.025 A 
HETATM   15  C   UNL     1      28.589  44.704  54.507  1.00  0.00    -0.007 A 
HETATM   16  C   UNL     1      30.245  44.935  56.283  1.00  0.00     0.012 A 
HETATM   17  C   UNL     1      27.892  45.795  55.079  1.00  0.00     0.013 A 
HETATM   18  C   UNL     1      28.360  46.434  56.229  1.00  0.00     0.001 A 
HETATM   19  C   UNL     1      29.535  46.002  56.831  1.00  0.00     0.001 A 
BRANCH  11  20
HETATM   20  O   UNL     1      28.338  42.291  51.732  1.00  0.00    -0.350 OA
BRANCH  20  21
HETATM   21  C   UNL     1      27.741  41.009  51.908  1.00  0.00     0.171 C 
HETATM   22  C   UNL     1      28.790  39.963  51.575  1.00  0.00     0.034 C 
ENDBRANCH  20  21
ENDBRANCH  11  20
ENDBRANCH   7  10
ENDBRANCH   1   6
BRANCH   2  23
HETATM   23  C   UNL     1      25.566  43.650  49.283  1.00  0.00     0.732 A 
HETATM   24  N   UNL     1      26.739  43.145  49.031  1.00  0.00    -0.067 NA
HETATM   25  C   UNL     1      26.708  41.850  48.602  1.00  0.00     0.065 A 
HETATM   26  C   UNL     1      25.613  41.107  48.427  1.00  0.00     0.036 A 
HETATM   27  C   UNL     1      27.943  41.081  48.270  1.00  0.00     0.061 C 
HETATM   28  C   UNL     1      25.899  39.733  47.957  1.00  0.00     0.047 C 
HETATM   29  C   UNL     1      24.302  41.692  48.708  1.00  0.00     0.268 A 
HETATM   30  C   UNL     1      27.418  39.642  48.164  1.00  0.00     0.011 C 
HETATM   31  O   UNL     1      23.259  41.072  48.566  1.00  0.00    -0.267 OA
HETATM   32  N   UNL     1      24.369  42.987  49.139  1.00  0.00    -0.152 N 
HETATM   33  H   UNL     1      23.508  43.476  49.362  1.00  0.00     0.188 HD
ENDBRANCH   2  23
BRANCH   4  34
HETATM   34  C   UNL     1      23.747  48.135  49.471  1.00  0.00     0.105 A 
HETATM   35  O   UNL     1      24.233  49.414  49.471  1.00  0.00    -0.320 OA
HETATM   36  C   UNL     1      23.223  50.232  49.080  1.00  0.00     0.142 A 
HETATM   37  C   UNL     1      22.086  49.505  48.826  1.00  0.00     0.027 A 
HETATM   38  C   UNL     1      22.420  48.152  49.080  1.00  0.00     0.041 A 
ENDBRANCH   4  34
TORSDOF 6
ENDMDL
MODEL 2
REMARK VINA RESULT:     -10.4      1.961      6.055
REMARK  6 active torsions:
REMARK  status: ('A' for Active; 'I' for Inactive)
REMARK    1  A    between atoms: C_2  and  O_3 
REMARK    2  A    between atoms: O_3  and  C_4 
REMARK    3  A    between atoms: C_5  and  C_6 
REMARK       I    between atoms: C_6  and  N_7 
REMARK    4  A    between atoms: N_7  and  C_8 
REMARK    5  A    between atoms: N_9  and  C_10 
REMARK    6  A    between atoms: C_21  and  C_22 
ROOT
HETATM    1  C   UNL     1      28.149  42.336  51.177  1.00  0.00     0.152 A 
HETATM    2  N   UNL     1      27.234  42.715  50.206  1.00  0.00    -0.044 N 
HETATM    3  N   UNL     1      26.964  41.709  49.321  1.00  0.00    -0.148 NA
HETATM    4  C   UNL     1      27.728  40.694  49.749  1.00  0.00     0.115 A 
HETATM    5  C   UNL     1      28.503  41.042  50.875  1.00  0.00     0.087 A 
ENDROOT
BRANCH   1   6
HETATM    6  N   UNL     1      28.512  43.185  52.209  1.00  0.00    -0.307 N 
HETATM    7  C   UNL     1      28.168  42.978  53.528  1.00  0.00     0.261 C 
HETATM    8  O   UNL     1      27.687  41.968  54.026  1.00  0.00    -0.267 OA
HETATM    9  H   UNL     1      29.005  44.045  51.958  1.00  0.00     0.170 HD
BRANCH   7  10
HETATM   10  C   UNL     1      28.462  44.152  54.381  1.00  0.00     0.076 A 
HETATM   11  C   UNL     1      27.698  45.315  54.170  1.00  0.00     0.085 A 
HETATM   12  C   UNL     1      27.987  46.451  54.922  1.00  0.00     0.039 A 
HETATM   13  C   UNL     1      29.024  46.426  55.860  1.00  0.00     0.015 A 
HETATM   14  C   UNL     1      29.794  45.270  56.068  1.00  0.00    -0.025 A 
HETATM   15  C   UNL     1      29.516  44.098  55.328  1.00  0.00    -0.007 A 
HETATM   16  C   UNL     1      30.844  45.275  57.002  1.00  0.00     0.012 A 
HETATM   17  C   UNL     1      30.313  42.954  55.568  1.00  0.00     0.013 A 
HETATM   18  C   UNL     1      31.354  42.975  56.499  1.00  0.00     0.001 A 
HETATM   19  C   UNL     1      31.619  44.136  57.213  1.00  0.00     0.001 A 
BRANCH  11  20
HETATM   20  O   UNL     1      26.732  45.247  53.204  1.00  0.00    -0.350 OA
BRANCH  20  21
HETATM   21  C   UNL     1      25.381  45.508  53.577  1.00  0.00     0.171 C 
HETATM   22  C   UNL     1      24.910  44.350  54.438  1.00  0.00     0.034 C 
ENDBRANCH  20  21
ENDBRANCH  11  20
ENDBRANCH   7  10
ENDBRANCH   1   6
BRANCH   2  23
HETATM   23  C   UNL     1      26.595  43.962  50.065  1.00  0.00     0.732 A 
HETATM   24  N   UNL     1      27.243  45.083  49.928  1.00  0.00    -0.067 NA
HETATM   25  C   UNL     1      26.441  46.179  49.794  1.00  0.00     0.065 A 
HETATM   26  C   UNL     1      25.107  46.181  49.799  1.00  0.00     0.036 A 
HETATM   27  C   UNL     1      26.984  47.557  49.614  1.00  0.00     0.061 C 
HETATM   28  C   UNL     1      24.516  47.526  49.627  1.00  0.00     0.047 C 
HETATM   29  C   UNL     1      24.393  44.914  49.961  1.00  0.00     0.268 A 
HETATM   30  C   UNL     1      25.737  48.352  49.197  1.00  0.00     0.011 C 
HETATM   31  O   UNL     1      23.173  44.842  49.979  1.00  0.00    -0.267 OA
HETATM   32  N   UNL     1      25.224  43.836  50.088  1.00  0.00    -0.152 N 
HETATM   33  H   UNL     1      24.818  42.913  50.202  1.00  0.00     0.188 HD
ENDBRANCH   2  23
BRANCH   4  34
HETATM   34  C   UNL     1      27.717  39.350  49.102  1.00  0.00     0.105 A 
HETATM   35  O   UNL     1      26.935  38.302  49.504  1.00  0.00    -0.320 OA
HETATM   36  C   UNL     1      27.186  37.264  48.666  1.00  0.00     0.142 A 
HETATM   37  C   UNL     1      28.121  37.620  47.725  1.00  0.00     0.027 A 
HETATM   38  C   UNL     1      28.468  38.964  48.006  1.00  0.00     0.041 A 
ENDBRANCH   4  34
TORSDOF 6
ENDMDL
MODEL 3
REMARK VINA RESULT:     -10.3      2.134      6.195
REMARK  6 active torsions:
REMARK  status: ('A' for Active; 'I' for Inactive)
REMARK    1  A    between atoms: C_2  and  O_3 
REMARK    2  A    between atoms: O_3  and  C_4 
REMARK    3  A    between atoms: C_5  and  C_6 
REMARK       I    between atoms: C_6  and  N_7 
REMARK    4  A    between atoms: N_7  and  C_8 
REMARK    5  A    between atoms: N_9  and  C_10 
REMARK    6  A    between atoms: C_21  and  C_22 
ROOT
HETATM    1  C   UNL     1      28.255  42.385  51.567  1.00  0.00     0.152 A 
HETATM    2  N   UNL     1      27.274  42.656  50.624  1.00  0.00    -0.044 N 
HETATM    3  N   UNL     1      27.051  41.602  49.784  1.00  0.00    -0.148 NA
HETATM    4  C   UNL     1      27.910  40.666  50.211  1.00  0.00     0.115 A 
HETATM    5  C   UNL     1      28.699  41.114  51.291  1.00  0.00     0.087 A 
ENDROOT
BRANCH   1   6
HETATM    6  N   UNL     1      28.589  43.296  52.555  1.00  0.00    -0.307 N 
HETATM    7  C   UNL     1      27.996  43.328  53.799  1.00  0.00     0.261 C 
HETATM    8  O   UNL     1      27.260  42.487  54.299  1.00  0.00    -0.267 OA
HETATM    9  H   UNL     1      29.267  44.021  52.314  1.00  0.00     0.170 HD
BRANCH   7  10
HETATM   10  C   UNL     1      28.353  44.543  54.565  1.00  0.00     0.076 A 
HETATM   11  C   UNL     1      29.486  44.477  55.398  1.00  0.00     0.085 A 
HETATM   12  C   UNL     1      29.815  45.588  56.170  1.00  0.00     0.039 A 
HETATM   13  C   UNL     1      29.023  46.739  56.117  1.00  0.00     0.015 A 
HETATM   14  C   UNL     1      27.888  46.808  55.294  1.00  0.00    -0.025 A 
HETATM   15  C   UNL     1      27.535  45.699  54.490  1.00  0.00    -0.007 A 
HETATM   16  C   UNL     1      27.096  47.968  55.272  1.00  0.00     0.012 A 
HETATM   17  C   UNL     1      26.385  45.808  53.673  1.00  0.00     0.013 A 
HETATM   18  C   UNL     1      25.607  46.968  53.664  1.00  0.00     0.001 A 
HETATM   19  C   UNL     1      25.962  48.046  54.464  1.00  0.00     0.001 A 
BRANCH  11  20
HETATM   20  O   UNL     1      30.172  43.293  55.406  1.00  0.00    -0.350 OA
BRANCH  20  21
HETATM   21  C   UNL     1      31.536  43.303  55.818  1.00  0.00     0.171 C 
HETATM   22  C   UNL     1      31.576  42.925  57.288  1.00  0.00     0.034 C 
ENDBRANCH  20  21
ENDBRANCH  11  20
ENDBRANCH   7  10
ENDBRANCH   1   6
BRANCH   2  23
HETATM   23  C   UNL     1      26.531  43.843  50.471  1.00  0.00     0.732 A 
HETATM   24  N   UNL     1      27.078  44.996  50.215  1.00  0.00    -0.067 NA
HETATM   25  C   UNL     1      26.185  46.021  50.091  1.00  0.00     0.065 A 
HETATM   26  C   UNL     1      24.860  45.928  50.215  1.00  0.00     0.036 A 
HETATM   27  C   UNL     1      26.603  47.421  49.787  1.00  0.00     0.061 C 
HETATM   28  C   UNL     1      24.155  47.215  50.021  1.00  0.00     0.047 C 
HETATM   29  C   UNL     1      24.262  44.626  50.511  1.00  0.00     0.268 A 
HETATM   30  C   UNL     1      25.269  48.097  49.438  1.00  0.00     0.011 C 
HETATM   31  O   UNL     1      23.057  44.468  50.642  1.00  0.00    -0.267 OA
HETATM   32  N   UNL     1      25.182  43.621  50.623  1.00  0.00    -0.152 N 
HETATM   33  H   UNL     1      24.859  42.680  50.825  1.00  0.00     0.188 HD
ENDBRANCH   2  23
BRANCH   4  34
HETATM   34  C   UNL     1      27.983  39.303  49.609  1.00  0.00     0.105 A 
HETATM   35  O   UNL     1      26.934  38.427  49.544  1.00  0.00    -0.320 OA
HETATM   36  C   UNL     1      27.377  37.310  48.912  1.00  0.00     0.142 A 
HETATM   37  C   UNL     1      28.699  37.446  48.565  1.00  0.00     0.027 A 
HETATM   38  C   UNL     1      29.093  38.729  49.016  1.00  0.00     0.041 A 
ENDBRANCH   4  34
TORSDOF 6
ENDMDL
MODEL 4
REMARK VINA RESULT:      -9.4      2.308      7.517
REMARK  6 active torsions:
REMARK  status: ('A' for Active; 'I' for Inactive)
REMARK    1  A    between atoms: C_2  and  O_3 
REMARK    2  A    between atoms: O_3  and  C_4 
REMARK    3  A    between atoms: C_5  and  C_6 
REMARK       I    between atoms: C_6  and  N_7 
REMARK    4  A    between atoms: N_7  and  C_8 
REMARK    5  A    between atoms: N_9  and  C_10 
REMARK    6  A    between atoms: C_21  and  C_22 
ROOT
HETATM    1  C   UNL     1      27.466  42.960  52.118  1.00  0.00     0.152 A 
HETATM    2  N   UNL     1      28.475  42.013  52.024  1.00  0.00    -0.044 N 
HETATM    3  N   UNL     1      29.447  42.189  52.968  1.00  0.00    -0.148 NA
HETATM    4  C   UNL     1      29.034  43.264  53.654  1.00  0.00     0.115 A 
HETATM    5  C   UNL     1      27.831  43.796  53.146  1.00  0.00     0.087 A 
ENDROOT
BRANCH   1   6
HETATM    6  N   UNL     1      26.352  42.924  51.296  1.00  0.00    -0.307 N 
HETATM    7  C   UNL     1      26.248  43.628  50.116  1.00  0.00     0.261 C 
HETATM    8  O   UNL     1      27.138  44.212  49.512  1.00  0.00    -0.267 OA
HETATM    9  H   UNL     1      25.541  42.397  51.629  1.00  0.00     0.170 HD
BRANCH   7  10
HETATM   10  C   UNL     1      24.873  43.614  49.567  1.00  0.00     0.076 A 
HETATM   11  C   UNL     1      24.023  44.681  49.916  1.00  0.00     0.085 A 
HETATM   12  C   UNL     1      22.709  44.667  49.456  1.00  0.00     0.039 A 
HETATM   13  C   UNL     1      22.251  43.604  48.672  1.00  0.00     0.015 A 
HETATM   14  C   UNL     1      23.091  42.533  48.328  1.00  0.00    -0.025 A 
HETATM   15  C   UNL     1      24.435  42.526  48.770  1.00  0.00    -0.007 A 
HETATM   16  C   UNL     1      22.603  41.467  47.555  1.00  0.00     0.012 A 
HETATM   17  C   UNL     1      25.251  41.430  48.401  1.00  0.00     0.013 A 
HETATM   18  C   UNL     1      24.750  40.377  47.633  1.00  0.00     0.001 A 
HETATM   19  C   UNL     1      23.427  40.395  47.212  1.00  0.00     0.001 A 
BRANCH  11  20
HETATM   20  O   UNL     1      24.557  45.652  50.718  1.00  0.00    -0.350 OA
BRANCH  20  21
HETATM   21  C   UNL     1      24.542  46.999  50.252  1.00  0.00     0.171 C 
HETATM   22  C   UNL     1      25.974  47.503  50.254  1.00  0.00     0.034 C 
ENDBRANCH  20  21
ENDBRANCH  11  20
ENDBRANCH   7  10
ENDBRANCH   1   6
BRANCH   2  23
HETATM   23  C   UNL     1      28.576  40.950  51.105  1.00  0.00     0.732 A 
HETATM   24  N   UNL     1      28.212  41.050  49.859  1.00  0.00    -0.067 NA
HETATM   25  C   UNL     1      28.401  39.913  49.129  1.00  0.00     0.065 A 
HETATM   26  C   UNL     1      28.902  38.763  49.584  1.00  0.00     0.036 A 
HETATM   27  C   UNL     1      28.061  39.819  47.679  1.00  0.00     0.061 C 
HETATM   28  C   UNL     1      28.991  37.707  48.552  1.00  0.00     0.047 C 
HETATM   29  C   UNL     1      29.299  38.664  50.989  1.00  0.00     0.268 A 
HETATM   30  C   UNL     1      28.738  38.505  47.265  1.00  0.00     0.011 C 
HETATM   31  O   UNL     1      29.761  37.642  51.474  1.00  0.00    -0.267 OA
HETATM   32  N   UNL     1      29.102  39.821  51.689  1.00  0.00    -0.152 N 
HETATM   33  H   UNL     1      29.351  39.849  52.673  1.00  0.00     0.188 HD
ENDBRANCH   2  23
BRANCH   4  34
HETATM   34  C   UNL     1      29.773  43.799  54.835  1.00  0.00     0.105 A 
HETATM   35  O   UNL     1      29.559  45.031  55.390  1.00  0.00    -0.320 OA
HETATM   36  C   UNL     1      30.399  45.150  56.450  1.00  0.00     0.142 A 
HETATM   37  C   UNL     1      31.156  44.013  56.593  1.00  0.00     0.027 A 
HETATM   38  C   UNL     1      30.756  43.141  55.550  1.00  0.00     0.041 A 
ENDBRANCH   4  34
TORSDOF 6
ENDMDL
MODEL 5
REMARK VINA RESULT:      -9.2      2.066      6.904
REMARK  6 active torsions:
REMARK  status: ('A' for Active; 'I' for Inactive)
REMARK    1  A    between atoms: C_2  and  O_3 
REMARK    2  A    between atoms: O_3  and  C_4 
REMARK    3  A    between atoms: C_5  and  C_6 
REMARK       I    between atoms: C_6  and  N_7 
REMARK    4  A    between atoms: N_7  and  C_8 
REMARK    5  A    between atoms: N_9  and  C_10 
REMARK    6  A    between atoms: C_21  and  C_22 
ROOT
HETATM    1  C   UNL     1      27.135  43.535  51.513  1.00  0.00     0.152 A 
HETATM    2  N   UNL     1      28.056  42.515  51.324  1.00  0.00    -0.044 N 
HETATM    3  N   UNL     1      29.024  42.500  52.288  1.00  0.00    -0.148 NA
HETATM    4  C   UNL     1      28.699  43.528  53.084  1.00  0.00     0.115 A 
HETATM    5  C   UNL     1      27.557  44.219  52.629  1.00  0.00     0.087 A 
ENDROOT
BRANCH   1   6
HETATM    6  N   UNL     1      26.036  43.690  50.685  1.00  0.00    -0.307 N 
HETATM    7  C   UNL     1      25.979  44.598  49.650  1.00  0.00     0.261 C 
HETATM    8  O   UNL     1      26.901  45.249  49.173  1.00  0.00    -0.267 OA
HETATM    9  H   UNL     1      25.202  43.142  50.906  1.00  0.00     0.170 HD
BRANCH   7  10
HETATM   10  C   UNL     1      24.615  44.735  49.091  1.00  0.00     0.076 A 
HETATM   11  C   UNL     1      24.051  43.605  48.470  1.00  0.00     0.085 A 
HETATM   12  C   UNL     1      22.791  43.720  47.889  1.00  0.00     0.039 A 
HETATM   13  C   UNL     1      22.112  44.941  47.922  1.00  0.00     0.015 A 
HETATM   14  C   UNL     1      22.673  46.074  48.533  1.00  0.00    -0.025 A 
HETATM   15  C   UNL     1      23.946  45.985  49.142  1.00  0.00    -0.007 A 
HETATM   16  C   UNL     1      21.980  47.296  48.537  1.00  0.00     0.012 A 
HETATM   17  C   UNL     1      24.477  47.148  49.749  1.00  0.00     0.013 A 
HETATM   18  C   UNL     1      23.776  48.355  49.743  1.00  0.00     0.001 A 
HETATM   19  C   UNL     1      22.529  48.429  49.135  1.00  0.00     0.001 A 
BRANCH  11  20
HETATM   20  O   UNL     1      24.813  42.468  48.459  1.00  0.00    -0.350 OA
BRANCH  20  21
HETATM   21  C   UNL     1      24.176  41.224  48.737  1.00  0.00     0.171 C 
HETATM   22  C   UNL     1      24.157  40.418  47.451  1.00  0.00     0.034 C 
ENDBRANCH  20  21
ENDBRANCH  11  20
ENDBRANCH   7  10
ENDBRANCH   1   6
BRANCH   2  23
HETATM   23  C   UNL     1      28.077  41.553  50.295  1.00  0.00     0.732 A 
HETATM   24  N   UNL     1      27.786  41.830  49.056  1.00  0.00    -0.067 NA
HETATM   25  C   UNL     1      27.877  40.762  48.211  1.00  0.00     0.065 A 
HETATM   26  C   UNL     1      28.219  39.518  48.550  1.00  0.00     0.036 A 
HETATM   27  C   UNL     1      27.596  40.867  46.749  1.00  0.00     0.061 C 
HETATM   28  C   UNL     1      28.234  38.576  47.410  1.00  0.00     0.047 C 
HETATM   29  C   UNL     1      28.535  39.223  49.948  1.00  0.00     0.268 A 
HETATM   30  C   UNL     1      28.135  39.533  46.212  1.00  0.00     0.011 C 
HETATM   31  O   UNL     1      28.852  38.106  50.330  1.00  0.00    -0.267 OA
HETATM   32  N   UNL     1      28.440  40.313  50.767  1.00  0.00    -0.152 N 
HETATM   33  H   UNL     1      28.645  40.205  51.755  1.00  0.00     0.188 HD
ENDBRANCH   2  23
BRANCH   4  34
HETATM   34  C   UNL     1      29.463  43.863  54.320  1.00  0.00     0.105 A 
HETATM   35  O   UNL     1      29.220  44.953  55.110  1.00  0.00    -0.320 OA
HETATM   36  C   UNL     1      30.098  44.908  56.145  1.00  0.00     0.142 A 
HETATM   37  C   UNL     1      30.908  43.804  56.041  1.00  0.00     0.027 A 
HETATM   38  C   UNL     1      30.503  43.130  54.863  1.00  0.00     0.041 A 
ENDBRANCH   4  34
TORSDOF 6
ENDMDL
MODEL 6
REMARK VINA RESULT:      -9.2      2.264      7.926
REMARK  6 active torsions:
REMARK  status: ('A' for Active; 'I' for Inactive)
REMARK    1  A    between atoms: C_2  and  O_3 
REMARK    2  A    between atoms: O_3  and  C_4 
REMARK    3  A    between atoms: C_5  and  C_6 
REMARK       I    between atoms: C_6  and  N_7 
REMARK    4  A    between atoms: N_7  and  C_8 
REMARK    5  A    between atoms: N_9  and  C_10 
REMARK    6  A    between atoms: C_21  and  C_22 
ROOT
HETATM    1  C   UNL     1      25.815  45.221  51.132  1.00  0.00     0.152 A 
HETATM    2  N   UNL     1      25.852  46.602  51.245  1.00  0.00    -0.044 N 
HETATM    3  N   UNL     1      26.497  47.018  52.376  1.00  0.00    -0.148 NA
HETATM    4  C   UNL     1      26.862  45.875  52.973  1.00  0.00     0.115 A 
HETATM    5  C   UNL     1      26.435  44.736  52.260  1.00  0.00     0.087 A 
ENDROOT
BRANCH   1   6
HETATM    6  N   UNL     1      25.264  44.592  50.028  1.00  0.00    -0.307 N 
HETATM    7  C   UNL     1      24.027  43.985  50.031  1.00  0.00     0.261 C 
HETATM    8  O   UNL     1      23.157  44.063  50.890  1.00  0.00    -0.267 OA
HETATM    9  H   UNL     1      25.846  44.522  49.190  1.00  0.00     0.170 HD
BRANCH   7  10
HETATM   10  C   UNL     1      23.789  43.178  48.813  1.00  0.00     0.076 A 
HETATM   11  C   UNL     1      24.282  41.860  48.800  1.00  0.00     0.085 A 
HETATM   12  C   UNL     1      24.119  41.096  47.647  1.00  0.00     0.039 A 
HETATM   13  C   UNL     1      23.482  41.641  46.528  1.00  0.00     0.015 A 
HETATM   14  C   UNL     1      22.995  42.958  46.533  1.00  0.00    -0.025 A 
HETATM   15  C   UNL     1      23.136  43.754  47.693  1.00  0.00    -0.007 A 
HETATM   16  C   UNL     1      22.375  43.490  45.390  1.00  0.00     0.012 A 
HETATM   17  C   UNL     1      22.630  45.076  47.659  1.00  0.00     0.013 A 
HETATM   18  C   UNL     1      22.018  45.591  46.515  1.00  0.00     0.001 A 
HETATM   19  C   UNL     1      21.893  44.798  45.381  1.00  0.00     0.001 A 
BRANCH  11  20
HETATM   20  O   UNL     1      24.923  41.435  49.931  1.00  0.00    -0.350 OA
BRANCH  20  21
HETATM   21  C   UNL     1      26.117  40.670  49.787  1.00  0.00     0.171 C 
HETATM   22  C   UNL     1      27.268  41.644  49.607  1.00  0.00     0.034 C 
ENDBRANCH  20  21
ENDBRANCH  11  20
ENDBRANCH   7  10
ENDBRANCH   1   6
BRANCH   2  23
HETATM   23  C   UNL     1      25.322  47.554  50.352  1.00  0.00     0.732 A 
HETATM   24  N   UNL     1      24.045  47.709  50.152  1.00  0.00    -0.067 NA
HETATM   25  C   UNL     1      23.735  48.691  49.257  1.00  0.00     0.065 A 
HETATM   26  C   UNL     1      24.607  49.459  48.601  1.00  0.00     0.036 A 
HETATM   27  C   UNL     1      22.329  49.037  48.895  1.00  0.00     0.061 C 
HETATM   28  C   UNL     1      23.968  50.443  47.699  1.00  0.00     0.047 C 
HETATM   29  C   UNL     1      26.039  49.268  48.831  1.00  0.00     0.268 A 
HETATM   30  C   UNL     1      22.499  50.364  48.140  1.00  0.00     0.011 C 
HETATM   31  O   UNL     1      26.893  49.932  48.263  1.00  0.00    -0.267 OA
HETATM   32  N   UNL     1      26.315  48.281  49.736  1.00  0.00    -0.152 N 
HETATM   33  H   UNL     1      27.283  48.078  49.962  1.00  0.00     0.188 HD
ENDBRANCH   2  23
BRANCH   4  34
HETATM   34  C   UNL     1      27.653  45.843  54.238  1.00  0.00     0.105 A 
HETATM   35  O   UNL     1      27.531  46.754  55.251  1.00  0.00    -0.320 OA
HETATM   36  C   UNL     1      28.393  46.385  56.234  1.00  0.00     0.142 A 
HETATM   37  C   UNL     1      29.075  45.248  55.874  1.00  0.00     0.027 A 
HETATM   38  C   UNL     1      28.601  44.898  54.585  1.00  0.00     0.041 A 
ENDBRANCH   4  34
TORSDOF 6
ENDMDL
MODEL 7
REMARK VINA RESULT:      -9.1      2.430      6.275
REMARK  6 active torsions:
REMARK  status: ('A' for Active; 'I' for Inactive)
REMARK    1  A    between atoms: C_2  and  O_3 
REMARK    2  A    between atoms: O_3  and  C_4 
REMARK    3  A    between atoms: C_5  and  C_6 
REMARK       I    between atoms: C_6  and  N_7 
REMARK    4  A    between atoms: N_7  and  C_8 
REMARK    5  A    between atoms: N_9  and  C_10 
REMARK    6  A    between atoms: C_21  and  C_22 
ROOT
HETATM    1  C   UNL     1      24.278  42.774  49.328  1.00  0.00     0.152 A 
HETATM    2  N   UNL     1      23.911  44.044  49.748  1.00  0.00    -0.044 N 
HETATM    3  N   UNL     1      22.842  44.536  49.053  1.00  0.00    -0.148 NA
HETATM    4  C   UNL     1      22.545  43.557  48.188  1.00  0.00     0.115 A 
HETATM    5  C   UNL     1      23.424  42.459  48.297  1.00  0.00     0.087 A 
ENDROOT
BRANCH   1   6
HETATM    6  N   UNL     1      25.297  42.067  49.943  1.00  0.00    -0.307 N 
HETATM    7  C   UNL     1      26.634  42.258  49.670  1.00  0.00     0.261 C 
HETATM    8  O   UNL     1      27.145  43.167  49.028  1.00  0.00    -0.267 OA
HETATM    9  H   UNL     1      25.027  41.318  50.584  1.00  0.00     0.170 HD
BRANCH   7  10
HETATM   10  C   UNL     1      27.490  41.210  50.272  1.00  0.00     0.076 A 
HETATM   11  C   UNL     1      27.865  41.372  51.619  1.00  0.00     0.085 A 
HETATM   12  C   UNL     1      28.712  40.429  52.195  1.00  0.00     0.039 A 
HETATM   13  C   UNL     1      29.181  39.351  51.438  1.00  0.00     0.015 A 
HETATM   14  C   UNL     1      28.816  39.189  50.092  1.00  0.00    -0.025 A 
HETATM   15  C   UNL     1      27.948  40.125  49.483  1.00  0.00    -0.007 A 
HETATM   16  C   UNL     1      29.315  38.109  49.346  1.00  0.00     0.012 A 
HETATM   17  C   UNL     1      27.603  39.926  48.124  1.00  0.00     0.013 A 
HETATM   18  C   UNL     1      28.109  38.847  47.396  1.00  0.00     0.001 A 
HETATM   19  C   UNL     1      28.966  37.941  48.006  1.00  0.00     0.001 A 
BRANCH  11  20
HETATM   20  O   UNL     1      27.382  42.480  52.260  1.00  0.00    -0.350 OA
BRANCH  20  21
HETATM   21  C   UNL     1      27.893  42.789  53.555  1.00  0.00     0.171 C 
HETATM   22  C   UNL     1      28.960  43.855  53.387  1.00  0.00     0.034 C 
ENDBRANCH  20  21
ENDBRANCH  11  20
ENDBRANCH   7  10
ENDBRANCH   1   6
BRANCH   2  23
HETATM   23  C   UNL     1      24.502  44.819  50.765  1.00  0.00     0.732 A 
HETATM   24  N   UNL     1      24.557  44.438  52.008  1.00  0.00    -0.067 NA
HETATM   25  C   UNL     1      25.181  45.326  52.837  1.00  0.00     0.065 A 
HETATM   26  C   UNL     1      25.704  46.500  52.479  1.00  0.00     0.036 A 
HETATM   27  C   UNL     1      25.361  45.075  54.297  1.00  0.00     0.061 C 
HETATM   28  C   UNL     1      26.319  47.241  53.602  1.00  0.00     0.047 C 
HETATM   29  C   UNL     1      25.626  46.917  51.079  1.00  0.00     0.268 A 
HETATM   30  C   UNL     1      26.364  46.166  54.698  1.00  0.00     0.011 C 
HETATM   31  O   UNL     1      26.079  47.980  50.681  1.00  0.00    -0.267 OA
HETATM   32  N   UNL     1      25.001  46.005  50.276  1.00  0.00    -0.152 N 
HETATM   33  H   UNL     1      24.902  46.207  49.286  1.00  0.00     0.188 HD
ENDBRANCH   2  23
BRANCH   4  34
HETATM   34  C   UNL     1      21.392  43.636  47.245  1.00  0.00     0.105 A 
HETATM   35  O   UNL     1      20.164  44.150  47.563  1.00  0.00    -0.320 OA
HETATM   36  C   UNL     1      19.390  44.071  46.450  1.00  0.00     0.142 A 
HETATM   37  C   UNL     1      20.096  43.513  45.413  1.00  0.00     0.027 A 
HETATM   38  C   UNL     1      21.386  43.229  45.924  1.00  0.00     0.041 A 
ENDBRANCH   4  34
TORSDOF 6
ENDMDL
MODEL 8
REMARK VINA RESULT:      -9.1      1.961      7.757
REMARK  6 active torsions:
REMARK  status: ('A' for Active; 'I' for Inactive)
REMARK    1  A    between atoms: C_2  and  O_3 
REMARK    2  A    between atoms: O_3  and  C_4 
REMARK    3  A    between atoms: C_5  and  C_6 
REMARK       I    between atoms: C_6  and  N_7 
REMARK    4  A    between atoms: N_7  and  C_8 
REMARK    5  A    between atoms: N_9  and  C_10 
REMARK    6  A    between atoms: C_21  and  C_22 
ROOT
HETATM    1  C   UNL     1      26.166  45.157  51.539  1.00  0.00     0.152 A 
HETATM    2  N   UNL     1      26.111  46.541  51.610  1.00  0.00    -0.044 N 
HETATM    3  N   UNL     1      26.672  47.029  52.757  1.00  0.00    -0.148 NA
HETATM    4  C   UNL     1      27.078  45.929  53.407  1.00  0.00     0.115 A 
HETATM    5  C   UNL     1      26.759  44.745  52.709  1.00  0.00     0.087 A 
ENDROOT
BRANCH   1   6
HETATM    6  N   UNL     1      25.711  44.464  50.430  1.00  0.00    -0.307 N 
HETATM    7  C   UNL     1      24.725  43.502  50.480  1.00  0.00     0.261 C 
HETATM    8  O   UNL     1      23.977  43.245  51.415  1.00  0.00    -0.267 OA
HETATM    9  H   UNL     1      26.187  44.636  49.542  1.00  0.00     0.170 HD
BRANCH   7  10
HETATM   10  C   UNL     1      24.608  42.745  49.213  1.00  0.00     0.076 A 
HETATM   11  C   UNL     1      23.801  43.297  48.200  1.00  0.00     0.085 A 
HETATM   12  C   UNL     1      23.631  42.581  47.017  1.00  0.00     0.039 A 
HETATM   13  C   UNL     1      24.247  41.337  46.854  1.00  0.00     0.015 A 
HETATM   14  C   UNL     1      25.046  40.779  47.865  1.00  0.00    -0.025 A 
HETATM   15  C   UNL     1      25.247  41.487  49.072  1.00  0.00    -0.007 A 
HETATM   16  C   UNL     1      25.639  39.518  47.686  1.00  0.00     0.012 A 
HETATM   17  C   UNL     1      26.060  40.892  50.066  1.00  0.00     0.013 A 
HETATM   18  C   UNL     1      26.642  39.637  49.874  1.00  0.00     0.001 A 
HETATM   19  C   UNL     1      26.429  38.951  48.685  1.00  0.00     0.001 A 
BRANCH  11  20
HETATM   20  O   UNL     1      23.213  44.502  48.472  1.00  0.00    -0.350 OA
BRANCH  20  21
HETATM   21  C   UNL     1      21.795  44.600  48.375  1.00  0.00     0.171 C 
HETATM   22  C   UNL     1      21.476  45.673  47.349  1.00  0.00     0.034 C 
ENDBRANCH  20  21
ENDBRANCH  11  20
ENDBRANCH   7  10
ENDBRANCH   1   6
BRANCH   2  23
HETATM   23  C   UNL     1      25.568  47.432  50.663  1.00  0.00     0.732 A 
HETATM   24  N   UNL     1      24.290  47.541  50.441  1.00  0.00    -0.067 NA
HETATM   25  C   UNL     1      23.966  48.468  49.493  1.00  0.00     0.065 A 
HETATM   26  C   UNL     1      24.826  49.226  48.810  1.00  0.00     0.036 A 
HETATM   27  C   UNL     1      22.557  48.757  49.097  1.00  0.00     0.061 C 
HETATM   28  C   UNL     1      24.173  50.144  47.851  1.00  0.00     0.047 C 
HETATM   29  C   UNL     1      26.260  49.085  49.066  1.00  0.00     0.268 A 
HETATM   30  C   UNL     1      22.701  50.048  48.278  1.00  0.00     0.011 C 
HETATM   31  O   UNL     1      27.103  49.742  48.475  1.00  0.00    -0.267 OA
HETATM   32  N   UNL     1      26.549  48.153  50.023  1.00  0.00    -0.152 N 
HETATM   33  H   UNL     1      27.520  47.988  50.271  1.00  0.00     0.188 HD
ENDBRANCH   2  23
BRANCH   4  34
HETATM   34  C   UNL     1      27.805  45.983  54.708  1.00  0.00     0.105 A 
HETATM   35  O   UNL     1      27.508  46.846  55.727  1.00  0.00    -0.320 OA
HETATM   36  C   UNL     1      28.366  46.583  56.745  1.00  0.00     0.142 A 
HETATM   37  C   UNL     1      29.219  45.562  56.403  1.00  0.00     0.027 A 
HETATM   38  C   UNL     1      28.861  45.175  55.088  1.00  0.00     0.041 A 
ENDBRANCH   4  34
TORSDOF 6
ENDMDL
MODEL 9
REMARK VINA RESULT:      -9.0      2.076      7.371
REMARK  6 active torsions:
REMARK  status: ('A' for Active; 'I' for Inactive)
REMARK    1  A    between atoms: C_2  and  O_3 
REMARK    2  A    between atoms: O_3  and  C_4 
REMARK    3  A    between atoms: C_5  and  C_6 
REMARK       I    between atoms: C_6  and  N_7 
REMARK    4  A    between atoms: N_7  and  C_8 
REMARK    5  A    between atoms: N_9  and  C_10 
REMARK    6  A    between atoms: C_21  and  C_22 
ROOT
HETATM    1  C   UNL     1      27.351  43.854  51.518  1.00  0.00     0.152 A 
HETATM    2  N   UNL     1      28.095  42.694  51.354  1.00  0.00    -0.044 N 
HETATM    3  N   UNL     1      28.997  42.505  52.362  1.00  0.00    -0.148 NA
HETATM    4  C   UNL     1      28.812  43.566  53.161  1.00  0.00     0.115 A 
HETATM    5  C   UNL     1      27.827  44.445  52.665  1.00  0.00     0.087 A 
ENDROOT
BRANCH   1   6
HETATM    6  N   UNL     1      26.337  44.201  50.642  1.00  0.00    -0.307 N 
HETATM    7  C   UNL     1      25.007  43.903  50.853  1.00  0.00     0.261 C 
HETATM    8  O   UNL     1      24.488  43.487  51.881  1.00  0.00    -0.267 OA
HETATM    9  H   UNL     1      26.609  44.643  49.761  1.00  0.00     0.170 HD
BRANCH   7  10
HETATM   10  C   UNL     1      24.173  44.159  49.658  1.00  0.00     0.076 A 
HETATM   11  C   UNL     1      23.750  45.483  49.432  1.00  0.00     0.085 A 
HETATM   12  C   UNL     1      22.921  45.744  48.344  1.00  0.00     0.039 A 
HETATM   13  C   UNL     1      22.516  44.702  47.504  1.00  0.00     0.015 A 
HETATM   14  C   UNL     1      22.928  43.379  47.730  1.00  0.00    -0.025 A 
HETATM   15  C   UNL     1      23.780  43.085  48.820  1.00  0.00    -0.007 A 
HETATM   16  C   UNL     1      22.493  42.345  46.884  1.00  0.00     0.012 A 
HETATM   17  C   UNL     1      24.174  41.739  49.012  1.00  0.00     0.013 A 
HETATM   18  C   UNL     1      23.731  40.723  48.163  1.00  0.00     0.001 A 
HETATM   19  C   UNL     1      22.890  41.027  47.101  1.00  0.00     0.001 A 
BRANCH  11  20
HETATM   20  O   UNL     1      24.171  46.423  50.333  1.00  0.00    -0.350 OA
BRANCH  20  21
HETATM   21  C   UNL     1      24.571  47.699  49.842  1.00  0.00     0.171 C 
HETATM   22  C   UNL     1      26.085  47.774  49.932  1.00  0.00     0.034 C 
ENDBRANCH  20  21
ENDBRANCH  11  20
ENDBRANCH   7  10
ENDBRANCH   1   6
BRANCH   2  23
HETATM   23  C   UNL     1      28.003  41.753  50.310  1.00  0.00     0.732 A 
HETATM   24  N   UNL     1      27.573  42.051  49.118  1.00  0.00    -0.067 NA
HETATM   25  C   UNL     1      27.572  41.001  48.247  1.00  0.00     0.065 A 
HETATM   26  C   UNL     1      27.955  39.753  48.520  1.00  0.00     0.036 A 
HETATM   27  C   UNL     1      27.127  41.132  46.828  1.00  0.00     0.061 C 
HETATM   28  C   UNL     1      27.845  38.834  47.366  1.00  0.00     0.047 C 
HETATM   29  C   UNL     1      28.429  39.432  49.867  1.00  0.00     0.268 A 
HETATM   30  C   UNL     1      27.608  39.813  46.207  1.00  0.00     0.011 C 
HETATM   31  O   UNL     1      28.792  38.310  50.188  1.00  0.00    -0.267 OA
HETATM   32  N   UNL     1      28.423  40.506  50.713  1.00  0.00    -0.152 N 
HETATM   33  H   UNL     1      28.738  40.379  51.670  1.00  0.00     0.188 HD
ENDBRANCH   2  23
BRANCH   4  34
HETATM   34  C   UNL     1      29.559  43.754  54.437  1.00  0.00     0.105 A 
HETATM   35  O   UNL     1      30.495  42.883  54.924  1.00  0.00    -0.320 OA
HETATM   36  C   UNL     1      30.967  43.401  56.086  1.00  0.00     0.142 A 
HETATM   37  C   UNL     1      30.352  44.597  56.364  1.00  0.00     0.027 A 
HETATM   38  C   UNL     1      29.441  44.826  55.303  1.00  0.00     0.041 A 
ENDBRANCH   4  34
TORSDOF 6
ENDMDL
MODEL 10
REMARK VINA RESULT:      -8.9      1.967      3.113
REMARK  6 active torsions:
REMARK  status: ('A' for Active; 'I' for Inactive)
REMARK    1  A    between atoms: C_2  and  O_3 
REMARK    2  A    between atoms: O_3  and  C_4 
REMARK    3  A    between atoms: C_5  and  C_6 
REMARK       I    between atoms: C_6  and  N_7 
REMARK    4  A    between atoms: N_7  and  C_8 
REMARK    5  A    between atoms: N_9  and  C_10 
REMARK    6  A    between atoms: C_21  and  C_22 
ROOT
HETATM    1  C   UNL     1      24.506  45.643  49.675  1.00  0.00     0.152 A 
HETATM    2  N   UNL     1      23.608  45.430  48.640  1.00  0.00    -0.044 N 
HETATM    3  N   UNL     1      22.919  46.561  48.304  1.00  0.00    -0.148 NA
HETATM    4  C   UNL     1      23.396  47.488  49.147  1.00  0.00     0.115 A 
HETATM    5  C   UNL     1      24.356  46.962  50.036  1.00  0.00     0.087 A 
ENDROOT
BRANCH   1   6
HETATM    6  N   UNL     1      25.351  44.644  50.127  1.00  0.00    -0.307 N 
HETATM    7  C   UNL     1      25.204  44.008  51.341  1.00  0.00     0.261 C 
HETATM    8  O   UNL     1      24.247  44.061  52.103  1.00  0.00    -0.267 OA
HETATM    9  H   UNL     1      26.164  44.421  49.549  1.00  0.00     0.170 HD
BRANCH   7  10
HETATM   10  C   UNL     1      26.374  43.169  51.686  1.00  0.00     0.076 A 
HETATM   11  C   UNL     1      26.509  41.937  51.020  1.00  0.00     0.085 A 
HETATM   12  C   UNL     1      27.571  41.104  51.363  1.00  0.00     0.039 A 
HETATM   13  C   UNL     1      28.475  41.492  52.356  1.00  0.00     0.015 A 
HETATM   14  C   UNL     1      28.341  42.717  53.029  1.00  0.00    -0.025 A 
HETATM   15  C   UNL     1      27.279  43.589  52.695  1.00  0.00    -0.007 A 
HETATM   16  C   UNL     1      29.251  43.077  54.037  1.00  0.00     0.012 A 
HETATM   17  C   UNL     1      27.179  44.815  53.395  1.00  0.00     0.013 A 
HETATM   18  C   UNL     1      28.090  45.157  54.396  1.00  0.00     0.001 A 
HETATM   19  C   UNL     1      29.124  44.287  54.717  1.00  0.00     0.001 A 
BRANCH  11  20
HETATM   20  O   UNL     1      25.551  41.634  50.091  1.00  0.00    -0.350 OA
BRANCH  20  21
HETATM   21  C   UNL     1      25.804  40.569  49.179  1.00  0.00     0.171 C 
HETATM   22  C   UNL     1      26.286  41.183  47.877  1.00  0.00     0.034 C 
ENDBRANCH  20  21
ENDBRANCH  11  20
ENDBRANCH   7  10
ENDBRANCH   1   6
BRANCH   2  23
HETATM   23  C   UNL     1      23.364  44.229  47.945  1.00  0.00     0.732 A 
HETATM   24  N   UNL     1      22.957  43.139  48.529  1.00  0.00    -0.067 NA
HETATM   25  C   UNL     1      22.768  42.088  47.679  1.00  0.00     0.065 A 
HETATM   26  C   UNL     1      22.968  42.099  46.360  1.00  0.00     0.036 A 
HETATM   27  C   UNL     1      22.293  40.752  48.144  1.00  0.00     0.061 C 
HETATM   28  C   UNL     1      22.671  40.806  45.706  1.00  0.00     0.047 C 
HETATM   29  C   UNL     1      23.433  43.330  45.720  1.00  0.00     0.268 A 
HETATM   30  C   UNL     1      21.940  40.050  46.824  1.00  0.00     0.011 C 
HETATM   31  O   UNL     1      23.641  43.411  44.519  1.00  0.00    -0.267 OA
HETATM   32  N   UNL     1      23.608  44.364  46.597  1.00  0.00    -0.152 N 
HETATM   33  H   UNL     1      23.926  45.260  46.243  1.00  0.00     0.188 HD
ENDBRANCH   2  23
BRANCH   4  34
HETATM   34  C   UNL     1      22.959  48.914  49.108  1.00  0.00     0.105 A 
HETATM   35  O   UNL     1      21.726  49.358  49.501  1.00  0.00    -0.320 OA
HETATM   36  C   UNL     1      21.711  50.706  49.341  1.00  0.00     0.142 A 
HETATM   37  C   UNL     1      22.916  51.146  48.849  1.00  0.00     0.027 A 
HETATM   38  C   UNL     1      23.721  49.991  48.696  1.00  0.00     0.041 A 
ENDBRANCH   4  34
TORSDOF 6
ENDMDL
