MODEL 1
REMARK VINA RESULT:      -9.9      0.000      0.000
REMARK  8 active torsions:
REMARK  status: ('A' for Active; 'I' for Inactive)
REMARK    1  A    between atoms: C_6  and  N_7 
REMARK    2  A    between atoms: C_6  and  C_26 
REMARK       I    between atoms: N_7  and  C_8 
REMARK    3  A    between atoms: N_7  and  C_23 
REMARK    4  A    between atoms: C_8  and  C_9 
REMARK    5  A    between atoms: C_9  and  N_10 
REMARK    6  A    between atoms: C_14  and  C_15 
REMARK       I    between atoms: C_26  and  N_27 
REMARK    7  A    between atoms: N_27  and  C_28 
REMARK    8  A    between atoms: C_31  and  N_32 
ROOT
HETATM    1  C   UNL     1      17.485  45.275  46.270  1.00  0.00     0.269 C 
HETATM    2  N   UNL     1      18.696  46.001  46.804  1.00  0.00    -0.075 N 
HETATM    3  H   UNL     1      19.517  45.527  46.401  1.00  0.00     0.279 HD
HETATM    4  C   UNL     1      18.708  47.429  46.336  1.00  0.00     0.237 C 
HETATM    5  C   UNL     1      19.922  48.168  46.886  1.00  0.00     0.069 C 
HETATM    6  C   UNL     1      20.122  48.083  48.429  1.00  0.00     0.120 C 
HETATM    7  C   UNL     1      20.026  46.578  48.813  1.00  0.00     0.069 C 
HETATM    8  C   UNL     1      18.770  45.888  48.298  1.00  0.00     0.237 C 
ENDROOT
BRANCH   6   9
HETATM    9  N   UNL     1      21.449  48.702  48.827  1.00  0.00    -0.328 N 
HETATM   10  C   UNL     1      22.567  47.851  48.927  1.00  0.00     0.239 C 
HETATM   11  O   UNL     1      22.573  46.757  48.359  1.00  0.00    -0.271 OA
BRANCH  10  12
HETATM   12  C   UNL     1      23.773  48.302  49.776  1.00  0.00     0.228 C 
BRANCH  12  13
HETATM   13  N   UNL     1      24.809  47.286  49.929  1.00  0.00    -0.347 N 
HETATM   14  C   UNL     1      26.182  47.485  49.741  1.00  0.00     0.171 C 
HETATM   15  S   UNL     1      26.976  48.767  49.063  1.00  0.00    -0.041 SA
HETATM   16  N   UNL     1      26.850  46.383  50.243  1.00  0.00    -0.357 N 
HETATM   17  C   UNL     1      25.935  45.364  50.694  1.00  0.00     0.135 C 
HETATM   18  H   UNL     1      27.850  46.256  50.141  1.00  0.00     0.162 HD
HETATM   19  C   UNL     1      24.610  46.130  50.803  1.00  0.00     0.155 C 
BRANCH  17  20
HETATM   20  C   UNL     1      26.377  44.680  51.960  1.00  0.00    -0.034 A 
HETATM   21  C   UNL     1      25.573  44.657  53.110  1.00  0.00     0.009 A 
HETATM   22  C   UNL     1      26.012  44.023  54.273  1.00  0.00     0.001 A 
HETATM   23  C   UNL     1      27.254  43.394  54.300  1.00  0.00     0.000 A 
HETATM   24  C   UNL     1      28.058  43.394  53.162  1.00  0.00     0.001 A 
HETATM   25  C   UNL     1      27.621  44.030  51.998  1.00  0.00     0.009 A 
ENDBRANCH  17  20
ENDBRANCH  12  13
ENDBRANCH  10  12
BRANCH   9  26
HETATM   26  C   UNL     1      21.518  50.094  49.234  1.00  0.00     0.088 A 
HETATM   27  C   UNL     1      22.597  50.999  48.676  1.00  0.00     0.027 A 
HETATM   28  C   UNL     1      21.173  51.264  48.338  1.00  0.00     0.027 A 
ENDBRANCH   9  26
ENDBRANCH   6   9
BRANCH   6  29
HETATM   29  C   UNL     1      18.951  48.786  49.188  1.00  0.00     0.251 C 
HETATM   30  N   UNL     1      18.194  49.620  48.390  1.00  0.00    -0.325 N 
HETATM   31  H   UNL     1      18.158  49.375  47.406  1.00  0.00     0.169 HD
HETATM   32  O   UNL     1      18.927  48.774  50.419  1.00  0.00    -0.270 OA
BRANCH  30  33
HETATM   33  C   UNL     1      17.468  50.761  48.784  1.00  0.00     0.034 A 
HETATM   34  C   UNL     1      17.989  51.778  49.575  1.00  0.00     0.032 A 
HETATM   35  C   UNL     1      17.234  52.932  49.839  1.00  0.00     0.031 A 
HETATM   36  C   UNL     1      15.946  53.126  49.319  1.00  0.00     0.030 A 
HETATM   37  C   UNL     1      15.426  52.070  48.562  1.00  0.00     0.031 A 
HETATM   38  C   UNL     1      16.171  50.908  48.291  1.00  0.00     0.032 A 
BRANCH  36  39
HETATM   39  N   UNL     1      15.240  54.289  49.612  1.00  0.00    -0.377 N 
HETATM   40  C   UNL     1      13.850  54.409  49.106  1.00  0.00     0.149 C 
HETATM   41  C   UNL     1      12.852  53.928  50.176  1.00  0.00     0.187 C 
HETATM   42  O   UNL     1      13.011  54.648  51.409  1.00  0.00    -0.388 OA
HETATM   43  C   UNL     1      14.347  54.497  51.919  1.00  0.00     0.187 C 
HETATM   44  C   UNL     1      15.395  54.988  50.906  1.00  0.00     0.149 C 
ENDBRANCH  36  39
ENDBRANCH  30  33
ENDBRANCH   6  29
TORSDOF 8
ENDMDL
MODEL 2
REMARK VINA RESULT:      -9.1     12.122     15.138
REMARK  8 active torsions:
REMARK  status: ('A' for Active; 'I' for Inactive)
REMARK    1  A    between atoms: C_6  and  N_7 
REMARK    2  A    between atoms: C_6  and  C_26 
REMARK       I    between atoms: N_7  and  C_8 
REMARK    3  A    between atoms: N_7  and  C_23 
REMARK    4  A    between atoms: C_8  and  C_9 
REMARK    5  A    between atoms: C_9  and  N_10 
REMARK    6  A    between atoms: C_14  and  C_15 
REMARK       I    between atoms: C_26  and  N_27 
REMARK    7  A    between atoms: N_27  and  C_28 
REMARK    8  A    between atoms: C_31  and  N_32 
ROOT
HETATM    1  C   UNL     1      30.005  41.727  37.677  1.00  0.00     0.269 C 
HETATM    2  N   UNL     1      28.749  42.563  37.647  1.00  0.00    -0.075 N 
HETATM    3  H   UNL     1      28.238  42.285  36.798  1.00  0.00     0.279 HD
HETATM    4  C   UNL     1      27.879  42.255  38.834  1.00  0.00     0.237 C 
HETATM    5  C   UNL     1      26.617  43.109  38.814  1.00  0.00     0.069 C 
HETATM    6  C   UNL     1      26.842  44.644  38.668  1.00  0.00     0.120 C 
HETATM    7  C   UNL     1      27.803  44.845  37.460  1.00  0.00     0.069 C 
HETATM    8  C   UNL     1      29.082  44.022  37.545  1.00  0.00     0.237 C 
ENDROOT
BRANCH   6   9
HETATM    9  N   UNL     1      25.517  45.360  38.483  1.00  0.00    -0.328 N 
HETATM   10  C   UNL     1      25.328  46.097  37.297  1.00  0.00     0.239 C 
HETATM   11  O   UNL     1      26.020  45.868  36.302  1.00  0.00    -0.271 OA
BRANCH  10  12
HETATM   12  C   UNL     1      24.259  47.207  37.272  1.00  0.00     0.228 C 
BRANCH  12  13
HETATM   13  N   UNL     1      24.711  48.484  37.818  1.00  0.00    -0.347 N 
HETATM   14  C   UNL     1      24.284  49.053  39.024  1.00  0.00     0.171 C 
HETATM   15  S   UNL     1      23.019  48.626  39.999  1.00  0.00    -0.041 SA
HETATM   16  N   UNL     1      25.131  50.103  39.328  1.00  0.00    -0.357 N 
HETATM   17  C   UNL     1      26.095  50.332  38.280  1.00  0.00     0.135 C 
HETATM   18  H   UNL     1      24.971  50.726  40.111  1.00  0.00     0.162 HD
HETATM   19  C   UNL     1      26.021  49.032  37.469  1.00  0.00     0.155 C 
BRANCH  17  20
HETATM   20  C   UNL     1      27.466  50.683  38.793  1.00  0.00    -0.034 A 
HETATM   21  C   UNL     1      27.648  51.455  39.950  1.00  0.00     0.009 A 
HETATM   22  C   UNL     1      28.931  51.774  40.399  1.00  0.00     0.001 A 
HETATM   23  C   UNL     1      30.048  51.316  39.705  1.00  0.00     0.000 A 
HETATM   24  C   UNL     1      29.884  50.535  38.563  1.00  0.00     0.001 A 
HETATM   25  C   UNL     1      28.601  50.217  38.112  1.00  0.00     0.009 A 
ENDBRANCH  17  20
ENDBRANCH  12  13
ENDBRANCH  10  12
BRANCH   9  26
HETATM   26  C   UNL     1      24.546  45.401  39.562  1.00  0.00     0.088 A 
HETATM   27  C   UNL     1      23.292  44.554  39.492  1.00  0.00     0.027 A 
HETATM   28  C   UNL     1      24.309  44.270  40.540  1.00  0.00     0.027 A 
ENDBRANCH   9  26
ENDBRANCH   6   9
BRANCH   6  29
HETATM   29  C   UNL     1      27.598  45.223  39.907  1.00  0.00     0.251 C 
HETATM   30  N   UNL     1      27.850  46.578  39.818  1.00  0.00    -0.325 N 
HETATM   31  H   UNL     1      27.191  47.114  39.262  1.00  0.00     0.169 HD
HETATM   32  O   UNL     1      28.130  44.458  40.710  1.00  0.00    -0.270 OA
BRANCH  30  33
HETATM   33  C   UNL     1      28.906  47.297  40.414  1.00  0.00     0.034 A 
HETATM   34  C   UNL     1      28.767  48.077  41.555  1.00  0.00     0.032 A 
HETATM   35  C   UNL     1      29.889  48.680  42.146  1.00  0.00     0.031 A 
HETATM   36  C   UNL     1      31.186  48.521  41.636  1.00  0.00     0.030 A 
HETATM   37  C   UNL     1      31.295  47.766  40.462  1.00  0.00     0.031 A 
HETATM   38  C   UNL     1      30.179  47.159  39.860  1.00  0.00     0.032 A 
BRANCH  36  39
HETATM   39  N   UNL     1      32.264  49.141  42.260  1.00  0.00    -0.377 N 
HETATM   40  C   UNL     1      33.499  49.362  41.467  1.00  0.00     0.149 C 
HETATM   41  C   UNL     1      33.480  50.767  40.837  1.00  0.00     0.187 C 
HETATM   42  O   UNL     1      33.323  51.791  41.833  1.00  0.00    -0.388 OA
HETATM   43  C   UNL     1      32.106  51.598  42.574  1.00  0.00     0.187 C 
HETATM   44  C   UNL     1      32.073  50.219  43.254  1.00  0.00     0.149 C 
ENDBRANCH  36  39
ENDBRANCH  30  33
ENDBRANCH   6  29
TORSDOF 8
ENDMDL
MODEL 3
REMARK VINA RESULT:      -8.8      1.730      2.088
REMARK  8 active torsions:
REMARK  status: ('A' for Active; 'I' for Inactive)
REMARK    1  A    between atoms: C_6  and  N_7 
REMARK    2  A    between atoms: C_6  and  C_26 
REMARK       I    between atoms: N_7  and  C_8 
REMARK    3  A    between atoms: N_7  and  C_23 
REMARK    4  A    between atoms: C_8  and  C_9 
REMARK    5  A    between atoms: C_9  and  N_10 
REMARK    6  A    between atoms: C_14  and  C_15 
REMARK       I    between atoms: C_26  and  N_27 
REMARK    7  A    between atoms: N_27  and  C_28 
REMARK    8  A    between atoms: C_31  and  N_32 
ROOT
HETATM    1  C   UNL     1      17.139  45.947  47.920  1.00  0.00     0.269 C 
HETATM    2  N   UNL     1      18.556  46.414  48.154  1.00  0.00    -0.075 N 
HETATM    3  H   UNL     1      19.099  45.574  48.397  1.00  0.00     0.279 HD
HETATM    4  C   UNL     1      19.137  46.995  46.896  1.00  0.00     0.237 C 
HETATM    5  C   UNL     1      20.561  47.481  47.134  1.00  0.00     0.069 C 
HETATM    6  C   UNL     1      20.752  48.451  48.339  1.00  0.00     0.120 C 
HETATM    7  C   UNL     1      20.059  47.787  49.565  1.00  0.00     0.069 C 
HETATM    8  C   UNL     1      18.617  47.370  49.308  1.00  0.00     0.237 C 
ENDROOT
BRANCH   6   9
HETATM    9  N   UNL     1      22.227  48.719  48.578  1.00  0.00    -0.328 N 
HETATM   10  C   UNL     1      23.108  47.621  48.537  1.00  0.00     0.239 C 
HETATM   11  O   UNL     1      22.782  46.577  47.966  1.00  0.00    -0.271 OA
BRANCH  10  12
HETATM   12  C   UNL     1      24.477  47.739  49.238  1.00  0.00     0.228 C 
BRANCH  12  13
HETATM   13  N   UNL     1      24.642  46.843  50.379  1.00  0.00    -0.347 N 
HETATM   14  C   UNL     1      24.896  45.469  50.308  1.00  0.00     0.171 C 
HETATM   15  S   UNL     1      24.815  44.449  49.009  1.00  0.00    -0.041 SA
HETATM   16  N   UNL     1      25.263  45.033  51.568  1.00  0.00    -0.357 N 
HETATM   17  C   UNL     1      25.170  46.089  52.546  1.00  0.00     0.135 C 
HETATM   18  H   UNL     1      25.411  44.055  51.788  1.00  0.00     0.162 HD
HETATM   19  C   UNL     1      25.103  47.348  51.672  1.00  0.00     0.155 C 
BRANCH  17  20
HETATM   20  C   UNL     1      26.289  46.074  53.553  1.00  0.00    -0.034 A 
HETATM   21  C   UNL     1      26.749  47.249  54.167  1.00  0.00     0.009 A 
HETATM   22  C   UNL     1      27.795  47.208  55.090  1.00  0.00     0.001 A 
HETATM   23  C   UNL     1      28.388  45.992  55.420  1.00  0.00     0.000 A 
HETATM   24  C   UNL     1      27.932  44.814  54.831  1.00  0.00     0.001 A 
HETATM   25  C   UNL     1      26.888  44.854  53.906  1.00  0.00     0.009 A 
ENDBRANCH  17  20
ENDBRANCH  12  13
ENDBRANCH  10  12
BRANCH   9  26
HETATM   26  C   UNL     1      22.679  50.038  48.981  1.00  0.00     0.088 A 
HETATM   27  C   UNL     1      23.943  50.626  48.389  1.00  0.00     0.027 A 
HETATM   28  C   UNL     1      22.631  51.265  48.096  1.00  0.00     0.027 A 
ENDBRANCH   9  26
ENDBRANCH   6   9
BRANCH   6  29
HETATM   29  C   UNL     1      19.992  49.796  48.106  1.00  0.00     0.251 C 
HETATM   30  N   UNL     1      19.237  50.201  49.188  1.00  0.00    -0.325 N 
HETATM   31  H   UNL     1      19.568  49.894  50.097  1.00  0.00     0.169 HD
HETATM   32  O   UNL     1      19.893  50.253  46.967  1.00  0.00    -0.270 OA
BRANCH  30  33
HETATM   33  C   UNL     1      18.069  50.990  49.176  1.00  0.00     0.034 A 
HETATM   34  C   UNL     1      16.843  50.554  48.688  1.00  0.00     0.032 A 
HETATM   35  C   UNL     1      15.702  51.363  48.806  1.00  0.00     0.031 A 
HETATM   36  C   UNL     1      15.732  52.624  49.419  1.00  0.00     0.030 A 
HETATM   37  C   UNL     1      16.986  53.060  49.864  1.00  0.00     0.031 A 
HETATM   38  C   UNL     1      18.136  52.259  49.751  1.00  0.00     0.032 A 
BRANCH  36  39
HETATM   39  N   UNL     1      14.571  53.387  49.509  1.00  0.00    -0.377 N 
HETATM   40  C   UNL     1      13.828  53.382  50.794  1.00  0.00     0.149 C 
HETATM   41  C   UNL     1      14.279  54.564  51.672  1.00  0.00     0.187 C 
HETATM   42  O   UNL     1      14.116  55.820  50.993  1.00  0.00    -0.388 OA
HETATM   43  C   UNL     1      14.869  55.838  49.768  1.00  0.00     0.187 C 
HETATM   44  C   UNL     1      14.446  54.695  48.830  1.00  0.00     0.149 C 
ENDBRANCH  36  39
ENDBRANCH  30  33
ENDBRANCH   6  29
TORSDOF 8
ENDMDL
MODEL 4
REMARK VINA RESULT:      -8.6      2.939      5.129
REMARK  8 active torsions:
REMARK  status: ('A' for Active; 'I' for Inactive)
REMARK    1  A    between atoms: C_6  and  N_7 
REMARK    2  A    between atoms: C_6  and  C_26 
REMARK       I    between atoms: N_7  and  C_8 
REMARK    3  A    between atoms: N_7  and  C_23 
REMARK    4  A    between atoms: C_8  and  C_9 
REMARK    5  A    between atoms: C_9  and  N_10 
REMARK    6  A    between atoms: C_14  and  C_15 
REMARK       I    between atoms: C_26  and  N_27 
REMARK    7  A    between atoms: N_27  and  C_28 
REMARK    8  A    between atoms: C_31  and  N_32 
ROOT
HETATM    1  C   UNL     1      17.626  44.607  43.893  1.00  0.00     0.269 C 
HETATM    2  N   UNL     1      18.734  44.073  44.767  1.00  0.00    -0.075 N 
HETATM    3  H   UNL     1      18.636  43.048  44.764  1.00  0.00     0.279 HD
HETATM    4  C   UNL     1      20.078  44.412  44.186  1.00  0.00     0.237 C 
HETATM    5  C   UNL     1      21.199  43.888  45.076  1.00  0.00     0.069 C 
HETATM    6  C   UNL     1      21.118  44.298  46.577  1.00  0.00     0.120 C 
HETATM    7  C   UNL     1      19.675  43.968  47.057  1.00  0.00     0.069 C 
HETATM    8  C   UNL     1      18.581  44.560  46.178  1.00  0.00     0.237 C 
ENDROOT
BRANCH   6   9
HETATM    9  N   UNL     1      22.180  43.574  47.383  1.00  0.00    -0.328 N 
HETATM   10  C   UNL     1      22.201  43.778  48.776  1.00  0.00     0.239 C 
HETATM   11  O   UNL     1      21.200  44.198  49.362  1.00  0.00    -0.271 OA
BRANCH  10  12
HETATM   12  C   UNL     1      23.501  43.488  49.553  1.00  0.00     0.228 C 
BRANCH  12  13
HETATM   13  N   UNL     1      24.119  44.671  50.145  1.00  0.00    -0.347 N 
HETATM   14  C   UNL     1      25.236  44.673  50.988  1.00  0.00     0.171 C 
HETATM   15  S   UNL     1      25.981  43.409  51.750  1.00  0.00    -0.041 SA
HETATM   16  N   UNL     1      25.682  45.976  51.109  1.00  0.00    -0.357 N 
HETATM   17  C   UNL     1      24.814  46.903  50.427  1.00  0.00     0.135 C 
HETATM   18  H   UNL     1      26.428  46.243  51.741  1.00  0.00     0.162 HD
HETATM   19  C   UNL     1      23.999  45.983  49.509  1.00  0.00     0.155 C 
BRANCH  17  20
HETATM   20  C   UNL     1      25.553  48.009  49.722  1.00  0.00    -0.034 A 
HETATM   21  C   UNL     1      26.952  48.112  49.769  1.00  0.00     0.009 A 
HETATM   22  C   UNL     1      27.612  49.153  49.114  1.00  0.00     0.001 A 
HETATM   23  C   UNL     1      26.885  50.097  48.394  1.00  0.00     0.000 A 
HETATM   24  C   UNL     1      25.497  50.000  48.323  1.00  0.00     0.001 A 
HETATM   25  C   UNL     1      24.835  48.961  48.980  1.00  0.00     0.009 A 
ENDBRANCH  17  20
ENDBRANCH  12  13
ENDBRANCH  10  12
BRANCH   9  26
HETATM   26  C   UNL     1      23.225  42.820  46.713  1.00  0.00     0.088 A 
HETATM   27  C   UNL     1      23.447  41.359  47.048  1.00  0.00     0.027 A 
HETATM   28  C   UNL     1      22.972  41.735  45.688  1.00  0.00     0.027 A 
ENDBRANCH   9  26
ENDBRANCH   6   9
BRANCH   6  29
HETATM   29  C   UNL     1      21.273  45.844  46.748  1.00  0.00     0.251 C 
HETATM   30  N   UNL     1      20.448  46.379  47.716  1.00  0.00    -0.325 N 
HETATM   31  H   UNL     1      20.193  45.754  48.474  1.00  0.00     0.169 HD
HETATM   32  O   UNL     1      21.875  46.496  45.895  1.00  0.00    -0.270 OA
BRANCH  30  33
HETATM   33  C   UNL     1      19.928  47.688  47.776  1.00  0.00     0.034 A 
HETATM   34  C   UNL     1      20.423  48.682  48.611  1.00  0.00     0.032 A 
HETATM   35  C   UNL     1      19.918  49.990  48.537  1.00  0.00     0.031 A 
HETATM   36  C   UNL     1      18.918  50.361  47.627  1.00  0.00     0.030 A 
HETATM   37  C   UNL     1      18.405  49.333  46.827  1.00  0.00     0.031 A 
HETATM   38  C   UNL     1      18.901  48.020  46.892  1.00  0.00     0.032 A 
BRANCH  36  39
HETATM   39  N   UNL     1      18.451  51.672  47.595  1.00  0.00    -0.377 N 
HETATM   40  C   UNL     1      17.142  51.934  46.947  1.00  0.00     0.149 C 
HETATM   41  C   UNL     1      16.016  51.907  47.997  1.00  0.00     0.187 C 
HETATM   42  O   UNL     1      16.257  52.848  49.056  1.00  0.00    -0.388 OA
HETATM   43  C   UNL     1      17.508  52.569  49.709  1.00  0.00     0.187 C 
HETATM   44  C   UNL     1      18.682  52.608  48.717  1.00  0.00     0.149 C 
ENDBRANCH  36  39
ENDBRANCH  30  33
ENDBRANCH   6  29
TORSDOF 8
ENDMDL
MODEL 5
REMARK VINA RESULT:      -8.4      4.204      9.358
REMARK  8 active torsions:
REMARK  status: ('A' for Active; 'I' for Inactive)
REMARK    1  A    between atoms: C_6  and  N_7 
REMARK    2  A    between atoms: C_6  and  C_26 
REMARK       I    between atoms: N_7  and  C_8 
REMARK    3  A    between atoms: N_7  and  C_23 
REMARK    4  A    between atoms: C_8  and  C_9 
REMARK    5  A    between atoms: C_9  and  N_10 
REMARK    6  A    between atoms: C_14  and  C_15 
REMARK       I    between atoms: C_26  and  N_27 
REMARK    7  A    between atoms: N_27  and  C_28 
REMARK    8  A    between atoms: C_31  and  N_32 
ROOT
HETATM    1  C   UNL     1      20.262  43.664  42.729  1.00  0.00     0.269 C 
HETATM    2  N   UNL     1      19.774  44.797  43.598  1.00  0.00    -0.075 N 
HETATM    3  H   UNL     1      19.513  45.560  42.957  1.00  0.00     0.279 HD
HETATM    4  C   UNL     1      18.544  44.390  44.359  1.00  0.00     0.237 C 
HETATM    5  C   UNL     1      18.058  45.527  45.249  1.00  0.00     0.069 C 
HETATM    6  C   UNL     1      19.126  46.145  46.200  1.00  0.00     0.120 C 
HETATM    7  C   UNL     1      20.374  46.467  45.327  1.00  0.00     0.069 C 
HETATM    8  C   UNL     1      20.868  45.288  44.499  1.00  0.00     0.237 C 
ENDROOT
BRANCH   6   9
HETATM    9  N   UNL     1      18.570  47.374  46.896  1.00  0.00    -0.328 N 
HETATM   10  C   UNL     1      18.649  48.605  46.218  1.00  0.00     0.239 C 
HETATM   11  O   UNL     1      18.798  48.637  44.994  1.00  0.00    -0.271 OA
BRANCH  10  12
HETATM   12  C   UNL     1      18.569  49.912  47.034  1.00  0.00     0.228 C 
BRANCH  12  13
HETATM   13  N   UNL     1      19.852  50.362  47.566  1.00  0.00    -0.347 N 
HETATM   14  C   UNL     1      20.035  51.087  48.750  1.00  0.00     0.171 C 
HETATM   15  S   UNL     1      18.918  51.847  49.702  1.00  0.00    -0.041 SA
HETATM   16  N   UNL     1      21.384  51.080  49.054  1.00  0.00    -0.357 N 
HETATM   17  C   UNL     1      22.160  50.431  48.026  1.00  0.00     0.135 C 
HETATM   18  H   UNL     1      21.775  51.615  49.821  1.00  0.00     0.162 HD
HETATM   19  C   UNL     1      21.093  49.661  47.239  1.00  0.00     0.155 C 
BRANCH  17  20
HETATM   20  C   UNL     1      23.283  49.587  48.566  1.00  0.00    -0.034 A 
HETATM   21  C   UNL     1      23.042  48.424  49.313  1.00  0.00     0.009 A 
HETATM   22  C   UNL     1      24.102  47.664  49.811  1.00  0.00     0.001 A 
HETATM   23  C   UNL     1      25.416  48.049  49.559  1.00  0.00     0.000 A 
HETATM   24  C   UNL     1      25.673  49.193  48.806  1.00  0.00     0.001 A 
HETATM   25  C   UNL     1      24.613  49.956  48.310  1.00  0.00     0.009 A 
ENDBRANCH  17  20
ENDBRANCH  12  13
ENDBRANCH  10  12
BRANCH   9  26
HETATM   26  C   UNL     1      18.114  47.296  48.273  1.00  0.00     0.088 A 
HETATM   27  C   UNL     1      16.915  48.104  48.726  1.00  0.00     0.027 A 
HETATM   28  C   UNL     1      16.833  46.618  48.710  1.00  0.00     0.027 A 
ENDBRANCH   9  26
ENDBRANCH   6   9
BRANCH   6  29
HETATM   29  C   UNL     1      19.611  45.101  47.257  1.00  0.00     0.251 C 
HETATM   30  N   UNL     1      20.940  45.243  47.605  1.00  0.00    -0.325 N 
HETATM   31  H   UNL     1      21.319  46.181  47.529  1.00  0.00     0.169 HD
HETATM   32  O   UNL     1      18.919  44.114  47.503  1.00  0.00    -0.270 OA
BRANCH  30  33
HETATM   33  C   UNL     1      21.821  44.241  48.058  1.00  0.00     0.034 A 
HETATM   34  C   UNL     1      22.251  43.174  47.277  1.00  0.00     0.032 A 
HETATM   35  C   UNL     1      23.211  42.275  47.767  1.00  0.00     0.031 A 
HETATM   36  C   UNL     1      23.787  42.406  49.038  1.00  0.00     0.030 A 
HETATM   37  C   UNL     1      23.308  43.462  49.823  1.00  0.00     0.031 A 
HETATM   38  C   UNL     1      22.346  44.369  49.344  1.00  0.00     0.032 A 
BRANCH  36  39
HETATM   39  N   UNL     1      24.735  41.486  49.476  1.00  0.00    -0.377 N 
HETATM   40  C   UNL     1      25.410  40.640  48.461  1.00  0.00     0.149 C 
HETATM   41  C   UNL     1      26.732  41.294  48.019  1.00  0.00     0.187 C 
HETATM   42  O   UNL     1      27.601  41.539  49.138  1.00  0.00    -0.388 OA
HETATM   43  C   UNL     1      26.960  42.392  50.102  1.00  0.00     0.187 C 
HETATM   44  C   UNL     1      25.641  41.780  50.607  1.00  0.00     0.149 C 
ENDBRANCH  36  39
ENDBRANCH  30  33
ENDBRANCH   6  29
TORSDOF 8
ENDMDL
MODEL 6
REMARK VINA RESULT:      -8.4     14.303     18.370
REMARK  8 active torsions:
REMARK  status: ('A' for Active; 'I' for Inactive)
REMARK    1  A    between atoms: C_6  and  N_7 
REMARK    2  A    between atoms: C_6  and  C_26 
REMARK       I    between atoms: N_7  and  C_8 
REMARK    3  A    between atoms: N_7  and  C_23 
REMARK    4  A    between atoms: C_8  and  C_9 
REMARK    5  A    between atoms: C_9  and  N_10 
REMARK    6  A    between atoms: C_14  and  C_15 
REMARK       I    between atoms: C_26  and  N_27 
REMARK    7  A    between atoms: N_27  and  C_28 
REMARK    8  A    between atoms: C_31  and  N_32 
ROOT
HETATM    1  C   UNL     1      37.889  52.747  38.280  1.00  0.00     0.269 C 
HETATM    2  N   UNL     1      38.449  52.412  39.642  1.00  0.00    -0.075 N 
HETATM    3  H   UNL     1      39.410  52.079  39.484  1.00  0.00     0.279 HD
HETATM    4  C   UNL     1      38.520  53.642  40.503  1.00  0.00     0.237 C 
HETATM    5  C   UNL     1      39.070  53.303  41.883  1.00  0.00     0.069 C 
HETATM    6  C   UNL     1      38.354  52.138  42.629  1.00  0.00     0.120 C 
HETATM    7  C   UNL     1      38.275  50.946  41.631  1.00  0.00     0.069 C 
HETATM    8  C   UNL     1      37.663  51.308  40.284  1.00  0.00     0.237 C 
ENDROOT
BRANCH   6   9
HETATM    9  N   UNL     1      39.101  51.783  43.901  1.00  0.00    -0.328 N 
HETATM   10  C   UNL     1      40.094  50.787  43.824  1.00  0.00     0.239 C 
HETATM   11  O   UNL     1      40.602  50.493  42.740  1.00  0.00    -0.271 OA
BRANCH  10  12
HETATM   12  C   UNL     1      40.517  50.056  45.114  1.00  0.00     0.228 C 
BRANCH  12  13
HETATM   13  N   UNL     1      41.196  48.784  44.884  1.00  0.00    -0.347 N 
HETATM   14  C   UNL     1      42.454  48.429  45.384  1.00  0.00     0.171 C 
HETATM   15  S   UNL     1      43.605  49.372  46.105  1.00  0.00    -0.041 SA
HETATM   16  N   UNL     1      42.626  47.070  45.190  1.00  0.00    -0.357 N 
HETATM   17  C   UNL     1      41.524  46.491  44.462  1.00  0.00     0.135 C 
HETATM   18  H   UNL     1      43.498  46.595  45.391  1.00  0.00     0.162 HD
HETATM   19  C   UNL     1      40.439  47.569  44.586  1.00  0.00     0.155 C 
BRANCH  17  20
HETATM   20  C   UNL     1      41.126  45.128  44.962  1.00  0.00    -0.034 A 
HETATM   21  C   UNL     1      39.847  44.600  44.732  1.00  0.00     0.009 A 
HETATM   22  C   UNL     1      39.499  43.337  45.215  1.00  0.00     0.001 A 
HETATM   23  C   UNL     1      40.430  42.581  45.924  1.00  0.00     0.000 A 
HETATM   24  C   UNL     1      41.709  43.085  46.147  1.00  0.00     0.001 A 
HETATM   25  C   UNL     1      42.057  44.349  45.667  1.00  0.00     0.009 A 
ENDBRANCH  17  20
ENDBRANCH  12  13
ENDBRANCH  10  12
BRANCH   9  26
HETATM   26  C   UNL     1      38.693  52.349  45.175  1.00  0.00     0.088 A 
HETATM   27  C   UNL     1      39.683  53.132  46.013  1.00  0.00     0.027 A 
HETATM   28  C   UNL     1      38.505  53.829  45.430  1.00  0.00     0.027 A 
ENDBRANCH   9  26
ENDBRANCH   6   9
BRANCH   6  29
HETATM   29  C   UNL     1      36.872  52.507  42.960  1.00  0.00     0.251 C 
HETATM   30  N   UNL     1      36.067  51.410  43.193  1.00  0.00    -0.325 N 
HETATM   31  H   UNL     1      36.536  50.588  43.560  1.00  0.00     0.169 HD
HETATM   32  O   UNL     1      36.464  53.649  42.746  1.00  0.00    -0.270 OA
BRANCH  30  33
HETATM   33  C   UNL     1      34.677  51.304  42.985  1.00  0.00     0.034 A 
HETATM   34  C   UNL     1      33.721  51.815  43.855  1.00  0.00     0.032 A 
HETATM   35  C   UNL     1      32.357  51.759  43.526  1.00  0.00     0.031 A 
HETATM   36  C   UNL     1      31.894  51.210  42.322  1.00  0.00     0.030 A 
HETATM   37  C   UNL     1      32.871  50.663  41.482  1.00  0.00     0.031 A 
HETATM   38  C   UNL     1      34.240  50.711  41.800  1.00  0.00     0.032 A 
BRANCH  36  39
HETATM   39  N   UNL     1      30.531  51.179  42.045  1.00  0.00    -0.377 N 
HETATM   40  C   UNL     1      29.781  52.460  42.073  1.00  0.00     0.149 C 
HETATM   41  C   UNL     1      29.720  53.070  40.661  1.00  0.00     0.187 C 
HETATM   42  O   UNL     1      29.135  52.158  39.716  1.00  0.00    -0.388 OA
HETATM   43  C   UNL     1      29.886  50.932  39.661  1.00  0.00     0.187 C 
HETATM   44  C   UNL     1      29.962  50.255  41.040  1.00  0.00     0.149 C 
ENDBRANCH  36  39
ENDBRANCH  30  33
ENDBRANCH   6  29
TORSDOF 8
ENDMDL
MODEL 7
REMARK VINA RESULT:      -8.4     15.632     19.736
REMARK  8 active torsions:
REMARK  status: ('A' for Active; 'I' for Inactive)
REMARK    1  A    between atoms: C_6  and  N_7 
REMARK    2  A    between atoms: C_6  and  C_26 
REMARK       I    between atoms: N_7  and  C_8 
REMARK    3  A    between atoms: N_7  and  C_23 
REMARK    4  A    between atoms: C_8  and  C_9 
REMARK    5  A    between atoms: C_9  and  N_10 
REMARK    6  A    between atoms: C_14  and  C_15 
REMARK       I    between atoms: C_26  and  N_27 
REMARK    7  A    between atoms: N_27  and  C_28 
REMARK    8  A    between atoms: C_31  and  N_32 
ROOT
HETATM    1  C   UNL     1      36.082  57.830  37.470  1.00  0.00     0.269 C 
HETATM    2  N   UNL     1      36.819  56.914  38.417  1.00  0.00    -0.075 N 
HETATM    3  H   UNL     1      37.582  57.473  38.823  1.00  0.00     0.279 HD
HETATM    4  C   UNL     1      35.918  56.476  39.538  1.00  0.00     0.237 C 
HETATM    5  C   UNL     1      36.655  55.539  40.487  1.00  0.00     0.069 C 
HETATM    6  C   UNL     1      37.356  54.317  39.822  1.00  0.00     0.120 C 
HETATM    7  C   UNL     1      38.204  54.873  38.641  1.00  0.00     0.069 C 
HETATM    8  C   UNL     1      37.419  55.755  37.679  1.00  0.00     0.237 C 
ENDROOT
BRANCH   6   9
HETATM    9  N   UNL     1      38.196  53.567  40.840  1.00  0.00    -0.328 N 
HETATM   10  C   UNL     1      37.658  53.386  42.129  1.00  0.00     0.239 C 
HETATM   11  O   UNL     1      36.443  53.477  42.319  1.00  0.00    -0.271 OA
BRANCH  10  12
HETATM   12  C   UNL     1      38.617  53.094  43.301  1.00  0.00     0.228 C 
BRANCH  12  13
HETATM   13  N   UNL     1      38.813  54.221  44.208  1.00  0.00    -0.347 N 
HETATM   14  C   UNL     1      39.842  54.343  45.149  1.00  0.00     0.171 C 
HETATM   15  S   UNL     1      40.915  53.206  45.687  1.00  0.00    -0.041 SA
HETATM   16  N   UNL     1      39.854  55.647  45.607  1.00  0.00    -0.357 N 
HETATM   17  C   UNL     1      38.766  56.417  45.057  1.00  0.00     0.135 C 
HETATM   18  H   UNL     1      40.456  55.957  46.362  1.00  0.00     0.162 HD
HETATM   19  C   UNL     1      38.313  55.554  43.872  1.00  0.00     0.155 C 
BRANCH  17  20
HETATM   20  C   UNL     1      39.149  57.829  44.704  1.00  0.00    -0.034 A 
HETATM   21  C   UNL     1      38.201  58.861  44.645  1.00  0.00     0.009 A 
HETATM   22  C   UNL     1      38.581  60.161  44.306  1.00  0.00     0.001 A 
HETATM   23  C   UNL     1      39.916  60.448  44.032  1.00  0.00     0.000 A 
HETATM   24  C   UNL     1      40.873  59.438  44.102  1.00  0.00     0.001 A 
HETATM   25  C   UNL     1      40.493  58.137  44.439  1.00  0.00     0.009 A 
ENDBRANCH  17  20
ENDBRANCH  12  13
ENDBRANCH  10  12
BRANCH   9  26
HETATM   26  C   UNL     1      39.563  53.189  40.529  1.00  0.00     0.088 A 
HETATM   27  C   UNL     1      39.943  51.727  40.417  1.00  0.00     0.027 A 
HETATM   28  C   UNL     1      40.005  52.594  39.209  1.00  0.00     0.027 A 
ENDBRANCH   9  26
ENDBRANCH   6   9
BRANCH   6  29
HETATM   29  C   UNL     1      36.311  53.354  39.171  1.00  0.00     0.251 C 
HETATM   30  N   UNL     1      35.092  53.340  39.819  1.00  0.00    -0.325 N 
HETATM   31  H   UNL     1      34.840  54.195  40.304  1.00  0.00     0.169 HD
HETATM   32  O   UNL     1      36.681  52.519  38.346  1.00  0.00    -0.270 OA
BRANCH  30  33
HETATM   33  C   UNL     1      34.161  52.283  39.877  1.00  0.00     0.034 A 
HETATM   34  C   UNL     1      34.315  51.156  40.676  1.00  0.00     0.032 A 
HETATM   35  C   UNL     1      33.294  50.197  40.756  1.00  0.00     0.031 A 
HETATM   36  C   UNL     1      32.083  50.324  40.061  1.00  0.00     0.030 A 
HETATM   37  C   UNL     1      31.968  51.445  39.230  1.00  0.00     0.031 A 
HETATM   38  C   UNL     1      32.984  52.413  39.140  1.00  0.00     0.032 A 
BRANCH  36  39
HETATM   39  N   UNL     1      31.103  49.343  40.175  1.00  0.00    -0.377 N 
HETATM   40  C   UNL     1      31.268  48.308  41.226  1.00  0.00     0.149 C 
HETATM   41  C   UNL     1      30.528  48.730  42.508  1.00  0.00     0.187 C 
HETATM   42  O   UNL     1      29.136  48.983  42.257  1.00  0.00    -0.388 OA
HETATM   43  C   UNL     1      28.977  50.015  41.267  1.00  0.00     0.187 C 
HETATM   44  C   UNL     1      29.672  49.642  39.947  1.00  0.00     0.149 C 
ENDBRANCH  36  39
ENDBRANCH  30  33
ENDBRANCH   6  29
TORSDOF 8
ENDMDL
MODEL 8
REMARK VINA RESULT:      -8.4      3.842     10.686
REMARK  8 active torsions:
REMARK  status: ('A' for Active; 'I' for Inactive)
REMARK    1  A    between atoms: C_6  and  N_7 
REMARK    2  A    between atoms: C_6  and  C_26 
REMARK       I    between atoms: N_7  and  C_8 
REMARK    3  A    between atoms: N_7  and  C_23 
REMARK    4  A    between atoms: C_8  and  C_9 
REMARK    5  A    between atoms: C_9  and  N_10 
REMARK    6  A    between atoms: C_14  and  C_15 
REMARK       I    between atoms: C_26  and  N_27 
REMARK    7  A    between atoms: N_27  and  C_28 
REMARK    8  A    between atoms: C_31  and  N_32 
ROOT
HETATM    1  C   UNL     1      18.335  44.725  46.631  1.00  0.00     0.269 C 
HETATM    2  N   UNL     1      17.843  46.108  46.983  1.00  0.00    -0.075 N 
HETATM    3  H   UNL     1      17.010  46.275  46.401  1.00  0.00     0.279 HD
HETATM    4  C   UNL     1      17.423  46.171  48.424  1.00  0.00     0.237 C 
HETATM    5  C   UNL     1      16.940  47.570  48.785  1.00  0.00     0.069 C 
HETATM    6  C   UNL     1      17.917  48.733  48.437  1.00  0.00     0.120 C 
HETATM    7  C   UNL     1      18.340  48.535  46.952  1.00  0.00     0.069 C 
HETATM    8  C   UNL     1      18.874  47.143  46.642  1.00  0.00     0.237 C 
ENDROOT
BRANCH   6   9
HETATM    9  N   UNL     1      17.253  50.076  48.679  1.00  0.00    -0.328 N 
HETATM   10  C   UNL     1      15.934  50.249  48.217  1.00  0.00     0.239 C 
HETATM   11  O   UNL     1      15.220  49.271  47.981  1.00  0.00    -0.271 OA
BRANCH  10  12
HETATM   12  C   UNL     1      15.407  51.680  47.990  1.00  0.00     0.228 C 
BRANCH  12  13
HETATM   13  N   UNL     1      15.228  52.035  46.585  1.00  0.00    -0.347 N 
HETATM   14  C   UNL     1      14.765  53.266  46.106  1.00  0.00     0.171 C 
HETATM   15  S   UNL     1      14.058  54.515  46.927  1.00  0.00    -0.041 SA
HETATM   16  N   UNL     1      14.999  53.314  44.744  1.00  0.00    -0.357 N 
HETATM   17  C   UNL     1      15.538  52.071  44.251  1.00  0.00     0.135 C 
HETATM   18  H   UNL     1      14.668  54.072  44.159  1.00  0.00     0.162 HD
HETATM   19  C   UNL     1      16.009  51.378  45.537  1.00  0.00     0.155 C 
BRANCH  17  20
HETATM   20  C   UNL     1      16.603  52.254  43.203  1.00  0.00    -0.034 A 
HETATM   21  C   UNL     1      16.613  53.363  42.343  1.00  0.00     0.009 A 
HETATM   22  C   UNL     1      17.607  53.505  41.373  1.00  0.00     0.001 A 
HETATM   23  C   UNL     1      18.611  52.546  41.258  1.00  0.00     0.000 A 
HETATM   24  C   UNL     1      18.624  51.447  42.114  1.00  0.00     0.001 A 
HETATM   25  C   UNL     1      17.629  51.303  43.082  1.00  0.00     0.009 A 
ENDBRANCH  17  20
ENDBRANCH  12  13
ENDBRANCH  10  12
BRANCH   9  26
HETATM   26  C   UNL     1      18.013  51.182  49.234  1.00  0.00     0.088 A 
HETATM   27  C   UNL     1      18.918  52.008  48.344  1.00  0.00     0.027 A 
HETATM   28  C   UNL     1      17.720  52.641  48.958  1.00  0.00     0.027 A 
ENDBRANCH   9  26
ENDBRANCH   6   9
BRANCH   6  29
HETATM   29  C   UNL     1      19.238  48.628  49.266  1.00  0.00     0.251 C 
HETATM   30  N   UNL     1      20.381  48.776  48.508  1.00  0.00    -0.325 N 
HETATM   31  H   UNL     1      20.287  49.346  47.673  1.00  0.00     0.169 HD
HETATM   32  O   UNL     1      19.205  48.183  50.413  1.00  0.00    -0.270 OA
BRANCH  30  33
HETATM   33  C   UNL     1      21.658  48.234  48.761  1.00  0.00     0.034 A 
HETATM   34  C   UNL     1      22.718  48.961  49.290  1.00  0.00     0.032 A 
HETATM   35  C   UNL     1      23.927  48.323  49.610  1.00  0.00     0.031 A 
HETATM   36  C   UNL     1      24.124  46.947  49.430  1.00  0.00     0.030 A 
HETATM   37  C   UNL     1      23.058  46.244  48.856  1.00  0.00     0.031 A 
HETATM   38  C   UNL     1      21.842  46.871  48.531  1.00  0.00     0.032 A 
BRANCH  36  39
HETATM   39  N   UNL     1      25.344  46.364  49.764  1.00  0.00    -0.377 N 
HETATM   40  C   UNL     1      26.195  47.049  50.768  1.00  0.00     0.149 C 
HETATM   41  C   UNL     1      25.916  46.484  52.173  1.00  0.00     0.187 C 
HETATM   42  O   UNL     1      26.116  45.062  52.221  1.00  0.00    -0.388 OA
HETATM   43  C   UNL     1      25.261  44.397  51.275  1.00  0.00     0.187 C 
HETATM   44  C   UNL     1      25.510  44.897  49.842  1.00  0.00     0.149 C 
ENDBRANCH  36  39
ENDBRANCH  30  33
ENDBRANCH   6  29
TORSDOF 8
ENDMDL
MODEL 9
REMARK VINA RESULT:      -8.4      3.424      5.779
REMARK  8 active torsions:
REMARK  status: ('A' for Active; 'I' for Inactive)
REMARK    1  A    between atoms: C_6  and  N_7 
REMARK    2  A    between atoms: C_6  and  C_26 
REMARK       I    between atoms: N_7  and  C_8 
REMARK    3  A    between atoms: N_7  and  C_23 
REMARK    4  A    between atoms: C_8  and  C_9 
REMARK    5  A    between atoms: C_9  and  N_10 
REMARK    6  A    between atoms: C_14  and  C_15 
REMARK       I    between atoms: C_26  and  N_27 
REMARK    7  A    between atoms: N_27  and  C_28 
REMARK    8  A    between atoms: C_31  and  N_32 
ROOT
HETATM    1  C   UNL     1      21.911  40.203  46.871  1.00  0.00     0.269 C 
HETATM    2  N   UNL     1      22.955  41.156  47.402  1.00  0.00    -0.075 N 
HETATM    3  H   UNL     1      23.867  40.714  47.220  1.00  0.00     0.279 HD
HETATM    4  C   UNL     1      22.914  42.458  46.654  1.00  0.00     0.237 C 
HETATM    5  C   UNL     1      23.957  43.427  47.198  1.00  0.00     0.069 C 
HETATM    6  C   UNL     1      23.921  43.664  48.738  1.00  0.00     0.120 C 
HETATM    7  C   UNL     1      23.899  42.260  49.409  1.00  0.00     0.069 C 
HETATM    8  C   UNL     1      22.805  41.341  48.883  1.00  0.00     0.237 C 
ENDROOT
BRANCH   6   9
HETATM    9  N   UNL     1      25.110  44.500  49.175  1.00  0.00    -0.328 N 
HETATM   10  C   UNL     1      26.353  43.852  49.312  1.00  0.00     0.239 C 
HETATM   11  O   UNL     1      26.563  42.776  48.748  1.00  0.00    -0.271 OA
BRANCH  10  12
HETATM   12  C   UNL     1      27.437  44.501  50.197  1.00  0.00     0.228 C 
BRANCH  12  13
HETATM   13  N   UNL     1      27.586  43.879  51.510  1.00  0.00    -0.347 N 
HETATM   14  C   UNL     1      27.982  42.558  51.747  1.00  0.00     0.171 C 
HETATM   15  S   UNL     1      28.122  41.295  50.689  1.00  0.00    -0.041 SA
HETATM   16  N   UNL     1      28.274  42.431  53.093  1.00  0.00    -0.357 N 
HETATM   17  C   UNL     1      27.986  43.644  53.818  1.00  0.00     0.135 C 
HETATM   18  H   UNL     1      28.499  41.541  53.523  1.00  0.00     0.162 HD
HETATM   19  C   UNL     1      27.873  44.684  52.697  1.00  0.00     0.155 C 
BRANCH  17  20
HETATM   20  C   UNL     1      29.005  43.963  54.880  1.00  0.00    -0.034 A 
HETATM   21  C   UNL     1      28.945  45.147  55.631  1.00  0.00     0.009 A 
HETATM   22  C   UNL     1      29.908  45.423  56.603  1.00  0.00     0.001 A 
HETATM   23  C   UNL     1      30.936  44.515  56.846  1.00  0.00     0.000 A 
HETATM   24  C   UNL     1      31.000  43.328  56.119  1.00  0.00     0.001 A 
HETATM   25  C   UNL     1      30.039  43.051  55.145  1.00  0.00     0.009 A 
ENDBRANCH  17  20
ENDBRANCH  12  13
ENDBRANCH  10  12
BRANCH   9  26
HETATM   26  C   UNL     1      24.927  45.882  49.579  1.00  0.00     0.088 A 
HETATM   27  C   UNL     1      24.891  46.249  51.048  1.00  0.00     0.027 A 
HETATM   28  C   UNL     1      26.010  46.740  50.199  1.00  0.00     0.027 A 
ENDBRANCH   9  26
ENDBRANCH   6   9
BRANCH   6  29
HETATM   29  C   UNL     1      22.588  44.356  49.171  1.00  0.00     0.251 C 
HETATM   30  N   UNL     1      22.144  45.310  48.277  1.00  0.00    -0.325 N 
HETATM   31  H   UNL     1      22.414  45.168  47.309  1.00  0.00     0.169 HD
HETATM   32  O   UNL     1      22.176  44.223  50.323  1.00  0.00    -0.270 OA
BRANCH  30  33
HETATM   33  C   UNL     1      21.360  46.448  48.554  1.00  0.00     0.034 A 
HETATM   34  C   UNL     1      19.976  46.424  48.683  1.00  0.00     0.032 A 
HETATM   35  C   UNL     1      19.277  47.581  49.061  1.00  0.00     0.031 A 
HETATM   36  C   UNL     1      19.922  48.796  49.337  1.00  0.00     0.030 A 
HETATM   37  C   UNL     1      21.311  48.806  49.159  1.00  0.00     0.031 A 
HETATM   38  C   UNL     1      22.022  47.655  48.779  1.00  0.00     0.032 A 
BRANCH  36  39
HETATM   39  N   UNL     1      19.181  49.914  49.708  1.00  0.00    -0.377 N 
HETATM   40  C   UNL     1      19.888  51.214  49.825  1.00  0.00     0.149 C 
HETATM   41  C   UNL     1      19.786  51.994  48.502  1.00  0.00     0.187 C 
HETATM   42  O   UNL     1      18.418  52.191  48.108  1.00  0.00    -0.388 OA
HETATM   43  C   UNL     1      17.746  50.929  47.956  1.00  0.00     0.187 C 
HETATM   44  C   UNL     1      17.787  50.108  49.256  1.00  0.00     0.149 C 
ENDBRANCH  36  39
ENDBRANCH  30  33
ENDBRANCH   6  29
TORSDOF 8
ENDMDL
MODEL 10
REMARK VINA RESULT:      -8.3     12.259     15.569
REMARK  8 active torsions:
REMARK  status: ('A' for Active; 'I' for Inactive)
REMARK    1  A    between atoms: C_6  and  N_7 
REMARK    2  A    between atoms: C_6  and  C_26 
REMARK       I    between atoms: N_7  and  C_8 
REMARK    3  A    between atoms: N_7  and  C_23 
REMARK    4  A    between atoms: C_8  and  C_9 
REMARK    5  A    between atoms: C_9  and  N_10 
REMARK    6  A    between atoms: C_14  and  C_15 
REMARK       I    between atoms: C_26  and  N_27 
REMARK    7  A    between atoms: N_27  and  C_28 
REMARK    8  A    between atoms: C_31  and  N_32 
ROOT
HETATM    1  C   UNL     1      29.853  41.011  37.027  1.00  0.00     0.269 C 
HETATM    2  N   UNL     1      28.787  41.927  37.576  1.00  0.00    -0.075 N 
HETATM    3  H   UNL     1      27.933  41.358  37.659  1.00  0.00     0.279 HD
HETATM    4  C   UNL     1      29.159  42.410  38.950  1.00  0.00     0.237 C 
HETATM    5  C   UNL     1      28.092  43.348  39.500  1.00  0.00     0.069 C 
HETATM    6  C   UNL     1      27.697  44.539  38.576  1.00  0.00     0.120 C 
HETATM    7  C   UNL     1      27.399  43.939  37.171  1.00  0.00     0.069 C 
HETATM    8  C   UNL     1      28.515  43.056  36.627  1.00  0.00     0.237 C 
ENDROOT
BRANCH   6   9
HETATM    9  N   UNL     1      26.511  45.288  39.153  1.00  0.00    -0.328 N 
HETATM   10  C   UNL     1      25.632  45.921  38.252  1.00  0.00     0.239 C 
HETATM   11  O   UNL     1      25.593  45.576  37.069  1.00  0.00    -0.271 OA
BRANCH  10  12
HETATM   12  C   UNL     1      24.737  47.067  38.766  1.00  0.00     0.228 C 
BRANCH  12  13
HETATM   13  N   UNL     1      25.210  48.401  38.405  1.00  0.00    -0.347 N 
HETATM   14  C   UNL     1      24.403  49.529  38.217  1.00  0.00     0.171 C 
HETATM   15  S   UNL     1      22.759  49.636  38.078  1.00  0.00    -0.041 SA
HETATM   16  N   UNL     1      25.224  50.641  38.165  1.00  0.00    -0.357 N 
HETATM   17  C   UNL     1      26.619  50.278  38.219  1.00  0.00     0.135 C 
HETATM   18  H   UNL     1      24.877  51.568  37.947  1.00  0.00     0.162 HD
HETATM   19  C   UNL     1      26.568  48.834  38.733  1.00  0.00     0.155 C 
BRANCH  17  20
HETATM   20  C   UNL     1      27.451  51.219  39.049  1.00  0.00    -0.034 A 
HETATM   21  C   UNL     1      27.457  51.160  40.451  1.00  0.00     0.009 A 
HETATM   22  C   UNL     1      28.231  52.051  41.198  1.00  0.00     0.001 A 
HETATM   23  C   UNL     1      29.017  53.002  40.553  1.00  0.00     0.000 A 
HETATM   24  C   UNL     1      29.034  53.063  39.161  1.00  0.00     0.001 A 
HETATM   25  C   UNL     1      28.259  52.175  38.414  1.00  0.00     0.009 A 
ENDBRANCH  17  20
ENDBRANCH  12  13
ENDBRANCH  10  12
BRANCH   9  26
HETATM   26  C   UNL     1      26.381  45.466  40.589  1.00  0.00     0.088 A 
HETATM   27  C   UNL     1      25.162  44.935  41.316  1.00  0.00     0.027 A 
HETATM   28  C   UNL     1      26.500  44.347  41.601  1.00  0.00     0.027 A 
ENDBRANCH   9  26
ENDBRANCH   6   9
BRANCH   6  29
HETATM   29  C   UNL     1      28.901  45.514  38.369  1.00  0.00     0.251 C 
HETATM   30  N   UNL     1      29.380  46.059  39.543  1.00  0.00    -0.325 N 
HETATM   31  H   UNL     1      29.253  45.494  40.376  1.00  0.00     0.169 HD
HETATM   32  O   UNL     1      29.166  45.926  37.240  1.00  0.00    -0.270 OA
BRANCH  30  33
HETATM   33  C   UNL     1      30.026  47.300  39.713  1.00  0.00     0.034 A 
HETATM   34  C   UNL     1      30.257  48.204  38.683  1.00  0.00     0.032 A 
HETATM   35  C   UNL     1      30.814  49.463  38.953  1.00  0.00     0.031 A 
HETATM   36  C   UNL     1      31.150  49.877  40.249  1.00  0.00     0.030 A 
HETATM   37  C   UNL     1      30.949  48.935  41.265  1.00  0.00     0.031 A 
HETATM   38  C   UNL     1      30.393  47.669  41.008  1.00  0.00     0.032 A 
BRANCH  36  39
HETATM   39  N   UNL     1      31.701  51.137  40.462  1.00  0.00    -0.377 N 
HETATM   40  C   UNL     1      32.060  51.519  41.851  1.00  0.00     0.149 C 
HETATM   41  C   UNL     1      33.538  51.189  42.127  1.00  0.00     0.187 C 
HETATM   42  O   UNL     1      34.409  51.830  41.180  1.00  0.00    -0.388 OA
HETATM   43  C   UNL     1      34.086  51.428  39.838  1.00  0.00     0.187 C 
HETATM   44  C   UNL     1      32.625  51.757  39.488  1.00  0.00     0.149 C 
ENDBRANCH  36  39
ENDBRANCH  30  33
ENDBRANCH   6  29
TORSDOF 8
ENDMDL
