MODEL 1
REMARK VINA RESULT:     -10.4      0.000      0.000
REMARK  7 active torsions:
REMARK  status: ('A' for Active; 'I' for Inactive)
REMARK    1  A    between atoms: O_2  and  C_3 
REMARK    2  A    between atoms: C_5  and  C_6 
REMARK    3  A    between atoms: C_8  and  C_9 
REMARK    4  A    between atoms: C_9  and  N_10 
REMARK    5  A    between atoms: N_10  and  C_13 
REMARK    6  A    between atoms: C_13  and  C_14 
REMARK    7  A    between atoms: C_24  and  O_25 
ROOT
HETATM    1  C   UNL     1      25.832  46.806  50.336  1.00  0.00    -0.007 A 
HETATM    2  C   UNL     1      25.731  46.871  51.740  1.00  0.00     0.025 A 
HETATM    3  C   UNL     1      25.462  45.734  52.524  1.00  0.00     0.001 A 
HETATM    4  C   UNL     1      25.308  44.506  51.882  1.00  0.00     0.073 A 
HETATM    5  C   UNL     1      25.425  44.401  50.500  1.00  0.00     0.038 A 
HETATM    6  C   UNL     1      25.679  45.545  49.736  1.00  0.00     0.016 A 
ENDROOT
BRANCH   3   7
HETATM    7  C   UNL     1      25.293  45.874  54.008  1.00  0.00     0.274 C 
BRANCH   7   8
HETATM    8  N   UNL     1      26.420  45.271  54.771  1.00  0.00    -0.067 N 
HETATM    9  H   UNL     1      26.235  45.350  55.777  1.00  0.00     0.277 HD
HETATM   10  H   UNL     1      26.465  44.264  54.574  1.00  0.00     0.277 HD
BRANCH   8  11
HETATM   11  C   UNL     1      27.764  45.860  54.496  1.00  0.00     0.272 C 
BRANCH  11  12
HETATM   12  C   UNL     1      28.836  44.829  54.741  1.00  0.00    -0.022 A 
HETATM   13  C   UNL     1      29.647  44.847  55.915  1.00  0.00    -0.018 A 
HETATM   14  C   UNL     1      30.698  43.900  56.022  1.00  0.00    -0.025 A 
HETATM   15  C   UNL     1      29.476  45.754  56.991  1.00  0.00     0.013 A 
HETATM   16  C   UNL     1      31.528  43.891  57.154  1.00  0.00     0.012 A 
HETATM   17  C   UNL     1      30.911  42.968  54.997  1.00  0.00     0.012 A 
HETATM   18  C   UNL     1      31.338  44.800  58.192  1.00  0.00     0.001 A 
HETATM   19  C   UNL     1      30.309  45.728  58.112  1.00  0.00     0.001 A 
HETATM   20  C   UNL     1      30.107  42.954  53.862  1.00  0.00     0.002 A 
HETATM   21  C   UNL     1      29.080  43.880  53.730  1.00  0.00     0.010 A 
ENDBRANCH  11  12
ENDBRANCH   8  11
ENDBRANCH   7   8
ENDBRANCH   3   7
BRANCH   4  22
HETATM   22  O   UNL     1      25.004  43.412  52.637  1.00  0.00    -0.360 OA
HETATM   23  H   UNL     1      25.283  42.609  52.154  1.00  0.00     0.217 HD
ENDBRANCH   4  22
BRANCH   1  24
HETATM   24  C   UNL     1      26.055  48.039  49.552  1.00  0.00     0.070 A 
HETATM   25  N   UNL     1      24.962  48.495  48.882  1.00  0.00    -0.224 NA
HETATM   26  C   UNL     1      25.111  49.615  48.137  1.00  0.00     0.164 A 
HETATM   27  C   UNL     1      26.299  50.316  48.026  1.00  0.00     0.058 A 
HETATM   28  C   UNL     1      27.404  49.848  48.721  1.00  0.00     0.007 A 
HETATM   29  C   UNL     1      27.284  48.697  49.495  1.00  0.00     0.032 A 
BRANCH  26  30
HETATM   30  O   UNL     1      24.040  50.126  47.433  1.00  0.00    -0.339 OA
HETATM   31  C   UNL     1      22.781  49.859  48.037  1.00  0.00     0.211 C 
ENDBRANCH  26  30
ENDBRANCH   1  24
TORSDOF 7
ENDMDL
MODEL 2
REMARK VINA RESULT:     -10.1      1.337      2.407
REMARK  7 active torsions:
REMARK  status: ('A' for Active; 'I' for Inactive)
REMARK    1  A    between atoms: O_2  and  C_3 
REMARK    2  A    between atoms: C_5  and  C_6 
REMARK    3  A    between atoms: C_8  and  C_9 
REMARK    4  A    between atoms: C_9  and  N_10 
REMARK    5  A    between atoms: N_10  and  C_13 
REMARK    6  A    between atoms: C_13  and  C_14 
REMARK    7  A    between atoms: C_24  and  O_25 
ROOT
HETATM    1  C   UNL     1      25.647  46.356  49.919  1.00  0.00    -0.007 A 
HETATM    2  C   UNL     1      26.539  45.266  49.978  1.00  0.00     0.025 A 
HETATM    3  C   UNL     1      26.156  44.013  50.489  1.00  0.00     0.001 A 
HETATM    4  C   UNL     1      24.844  43.850  50.933  1.00  0.00     0.073 A 
HETATM    5  C   UNL     1      23.931  44.896  50.868  1.00  0.00     0.038 A 
HETATM    6  C   UNL     1      24.335  46.139  50.369  1.00  0.00     0.016 A 
ENDROOT
BRANCH   3   7
HETATM    7  C   UNL     1      27.166  42.910  50.596  1.00  0.00     0.274 C 
BRANCH   7   8
HETATM    8  N   UNL     1      28.131  43.123  51.710  1.00  0.00    -0.067 N 
HETATM    9  H   UNL     1      28.889  42.435  51.644  1.00  0.00     0.277 HD
HETATM   10  H   UNL     1      28.578  44.041  51.602  1.00  0.00     0.277 HD
BRANCH   8  11
HETATM   11  C   UNL     1      27.548  43.046  53.081  1.00  0.00     0.272 C 
BRANCH  11  12
HETATM   12  C   UNL     1      27.923  44.275  53.869  1.00  0.00    -0.022 A 
HETATM   13  C   UNL     1      29.024  44.283  54.777  1.00  0.00    -0.018 A 
HETATM   14  C   UNL     1      29.249  45.450  55.552  1.00  0.00    -0.025 A 
HETATM   15  C   UNL     1      29.914  43.196  54.965  1.00  0.00     0.013 A 
HETATM   16  C   UNL     1      30.312  45.497  56.467  1.00  0.00     0.012 A 
HETATM   17  C   UNL     1      28.411  46.564  55.404  1.00  0.00     0.012 A 
HETATM   18  C   UNL     1      31.166  44.408  56.632  1.00  0.00     0.001 A 
HETATM   19  C   UNL     1      30.969  43.261  55.878  1.00  0.00     0.001 A 
HETATM   20  C   UNL     1      27.348  46.548  54.507  1.00  0.00     0.002 A 
HETATM   21  C   UNL     1      27.100  45.411  53.748  1.00  0.00     0.010 A 
ENDBRANCH  11  12
ENDBRANCH   8  11
ENDBRANCH   7   8
ENDBRANCH   3   7
BRANCH   4  22
HETATM   22  O   UNL     1      24.484  42.648  51.469  1.00  0.00    -0.360 OA
HETATM   23  H   UNL     1      24.027  42.122  50.784  1.00  0.00     0.217 HD
ENDBRANCH   4  22
BRANCH   1  24
HETATM   24  C   UNL     1      26.116  47.670  49.430  1.00  0.00     0.070 A 
HETATM   25  N   UNL     1      25.159  48.430  48.831  1.00  0.00    -0.224 NA
HETATM   26  C   UNL     1      25.534  49.640  48.354  1.00  0.00     0.164 A 
HETATM   27  C   UNL     1      26.821  50.140  48.444  1.00  0.00     0.058 A 
HETATM   28  C   UNL     1      27.786  49.360  49.065  1.00  0.00     0.007 A 
HETATM   29  C   UNL     1      27.432  48.110  49.566  1.00  0.00     0.032 A 
BRANCH  26  30
HETATM   30  O   UNL     1      24.611  50.456  47.735  1.00  0.00    -0.339 OA
HETATM   31  C   UNL     1      23.409  50.621  48.475  1.00  0.00     0.211 C 
ENDBRANCH  26  30
ENDBRANCH   1  24
TORSDOF 7
ENDMDL
MODEL 3
REMARK VINA RESULT:     -10.0      1.392      2.882
REMARK  7 active torsions:
REMARK  status: ('A' for Active; 'I' for Inactive)
REMARK    1  A    between atoms: O_2  and  C_3 
REMARK    2  A    between atoms: C_5  and  C_6 
REMARK    3  A    between atoms: C_8  and  C_9 
REMARK    4  A    between atoms: C_9  and  N_10 
REMARK    5  A    between atoms: N_10  and  C_13 
REMARK    6  A    between atoms: C_13  and  C_14 
REMARK    7  A    between atoms: C_24  and  O_25 
ROOT
HETATM    1  C   UNL     1      25.723  46.477  50.014  1.00  0.00    -0.007 A 
HETATM    2  C   UNL     1      26.631  45.405  50.116  1.00  0.00     0.025 A 
HETATM    3  C   UNL     1      26.267  44.165  50.672  1.00  0.00     0.001 A 
HETATM    4  C   UNL     1      24.957  43.998  51.120  1.00  0.00     0.073 A 
HETATM    5  C   UNL     1      24.027  45.027  51.014  1.00  0.00     0.038 A 
HETATM    6  C   UNL     1      24.413  46.257  50.469  1.00  0.00     0.016 A 
ENDROOT
BRANCH   3   7
HETATM    7  C   UNL     1      27.294  43.083  50.822  1.00  0.00     0.274 C 
BRANCH   7   8
HETATM    8  N   UNL     1      28.335  43.418  51.833  1.00  0.00    -0.067 N 
HETATM    9  H   UNL     1      29.237  43.028  51.540  1.00  0.00     0.277 HD
HETATM   10  H   UNL     1      28.468  44.436  51.861  1.00  0.00     0.277 HD
BRANCH   8  11
HETATM   11  C   UNL     1      28.051  42.946  53.220  1.00  0.00     0.272 C 
BRANCH  11  12
HETATM   12  C   UNL     1      28.528  43.970  54.218  1.00  0.00    -0.022 A 
HETATM   13  C   UNL     1      27.831  45.196  54.434  1.00  0.00    -0.018 A 
HETATM   14  C   UNL     1      28.399  46.148  55.320  1.00  0.00    -0.025 A 
HETATM   15  C   UNL     1      26.599  45.535  53.819  1.00  0.00     0.013 A 
HETATM   16  C   UNL     1      27.754  47.372  55.551  1.00  0.00     0.012 A 
HETATM   17  C   UNL     1      29.610  45.868  55.969  1.00  0.00     0.012 A 
HETATM   18  C   UNL     1      26.547  47.677  54.925  1.00  0.00     0.001 A 
HETATM   19  C   UNL     1      25.968  46.757  54.064  1.00  0.00     0.001 A 
HETATM   20  C   UNL     1      30.275  44.664  55.758  1.00  0.00     0.002 A 
HETATM   21  C   UNL     1      29.743  43.723  54.886  1.00  0.00     0.010 A 
ENDBRANCH  11  12
ENDBRANCH   8  11
ENDBRANCH   7   8
ENDBRANCH   3   7
BRANCH   4  22
HETATM   22  O   UNL     1      24.615  42.812  51.700  1.00  0.00    -0.360 OA
HETATM   23  H   UNL     1      24.743  42.886  52.666  1.00  0.00     0.217 HD
ENDBRANCH   4  22
BRANCH   1  24
HETATM   24  C   UNL     1      26.172  47.779  49.477  1.00  0.00     0.070 A 
HETATM   25  N   UNL     1      25.207  48.499  48.844  1.00  0.00    -0.224 NA
HETATM   26  C   UNL     1      25.564  49.696  48.322  1.00  0.00     0.164 A 
HETATM   27  C   UNL     1      26.842  50.221  48.400  1.00  0.00     0.058 A 
HETATM   28  C   UNL     1      27.816  49.483  49.057  1.00  0.00     0.007 A 
HETATM   29  C   UNL     1      27.479  48.247  49.604  1.00  0.00     0.032 A 
BRANCH  26  30
HETATM   30  O   UNL     1      24.631  50.471  47.666  1.00  0.00    -0.339 OA
HETATM   31  C   UNL     1      23.290  50.046  47.873  1.00  0.00     0.211 C 
ENDBRANCH  26  30
ENDBRANCH   1  24
TORSDOF 7
ENDMDL
MODEL 4
REMARK VINA RESULT:     -10.0      2.040      3.334
REMARK  7 active torsions:
REMARK  status: ('A' for Active; 'I' for Inactive)
REMARK    1  A    between atoms: O_2  and  C_3 
REMARK    2  A    between atoms: C_5  and  C_6 
REMARK    3  A    between atoms: C_8  and  C_9 
REMARK    4  A    between atoms: C_9  and  N_10 
REMARK    5  A    between atoms: N_10  and  C_13 
REMARK    6  A    between atoms: C_13  and  C_14 
REMARK    7  A    between atoms: C_24  and  O_25 
ROOT
HETATM    1  C   UNL     1      25.827  44.045  50.250  1.00  0.00    -0.007 A 
HETATM    2  C   UNL     1      27.007  43.512  50.807  1.00  0.00     0.025 A 
HETATM    3  C   UNL     1      27.151  42.141  51.084  1.00  0.00     0.001 A 
HETATM    4  C   UNL     1      26.092  41.287  50.779  1.00  0.00     0.073 A 
HETATM    5  C   UNL     1      24.921  41.774  50.208  1.00  0.00     0.038 A 
HETATM    6  C   UNL     1      24.792  43.143  49.952  1.00  0.00     0.016 A 
ENDROOT
BRANCH   3   7
HETATM    7  C   UNL     1      28.402  41.640  51.744  1.00  0.00     0.274 C 
BRANCH   7   8
HETATM    8  N   UNL     1      28.451  41.963  53.197  1.00  0.00    -0.067 N 
HETATM    9  H   UNL     1      27.682  42.599  53.434  1.00  0.00     0.277 HD
HETATM   10  H   UNL     1      28.282  41.108  53.741  1.00  0.00     0.277 HD
BRANCH   8  11
HETATM   11  C   UNL     1      29.726  42.574  53.671  1.00  0.00     0.272 C 
BRANCH  11  12
HETATM   12  C   UNL     1      29.435  43.830  54.452  1.00  0.00    -0.022 A 
HETATM   13  C   UNL     1      30.101  44.129  55.678  1.00  0.00    -0.018 A 
HETATM   14  C   UNL     1      29.698  45.282  56.400  1.00  0.00    -0.025 A 
HETATM   15  C   UNL     1      31.145  43.346  56.233  1.00  0.00     0.013 A 
HETATM   16  C   UNL     1      30.317  45.606  57.617  1.00  0.00     0.012 A 
HETATM   17  C   UNL     1      28.680  46.104  55.900  1.00  0.00     0.012 A 
HETATM   18  C   UNL     1      31.337  44.811  58.138  1.00  0.00     0.001 A 
HETATM   19  C   UNL     1      31.753  43.685  57.443  1.00  0.00     0.001 A 
HETATM   20  C   UNL     1      28.045  45.808  54.697  1.00  0.00     0.002 A 
HETATM   21  C   UNL     1      28.414  44.677  53.980  1.00  0.00     0.010 A 
ENDBRANCH  11  12
ENDBRANCH   8  11
ENDBRANCH   7   8
ENDBRANCH   3   7
BRANCH   4  22
HETATM   22  O   UNL     1      26.214  39.964  51.089  1.00  0.00    -0.360 OA
HETATM   23  H   UNL     1      25.741  39.792  51.927  1.00  0.00     0.217 HD
ENDBRANCH   4  22
BRANCH   1  24
HETATM   24  C   UNL     1      25.701  45.502  50.035  1.00  0.00     0.070 A 
HETATM   25  N   UNL     1      26.824  46.107  49.562  1.00  0.00    -0.224 NA
HETATM   26  C   UNL     1      26.772  47.444  49.356  1.00  0.00     0.164 A 
HETATM   27  C   UNL     1      25.649  48.218  49.595  1.00  0.00     0.058 A 
HETATM   28  C   UNL     1      24.507  47.588  50.068  1.00  0.00     0.007 A 
HETATM   29  C   UNL     1      24.530  46.214  50.291  1.00  0.00     0.032 A 
BRANCH  26  30
HETATM   30  O   UNL     1      27.878  48.116  48.880  1.00  0.00    -0.339 OA
HETATM   31  C   UNL     1      27.757  49.531  48.943  1.00  0.00     0.211 C 
ENDBRANCH  26  30
ENDBRANCH   1  24
TORSDOF 7
ENDMDL
MODEL 5
REMARK VINA RESULT:      -9.9      2.313      4.605
REMARK  7 active torsions:
REMARK  status: ('A' for Active; 'I' for Inactive)
REMARK    1  A    between atoms: O_2  and  C_3 
REMARK    2  A    between atoms: C_5  and  C_6 
REMARK    3  A    between atoms: C_8  and  C_9 
REMARK    4  A    between atoms: C_9  and  N_10 
REMARK    5  A    between atoms: N_10  and  C_13 
REMARK    6  A    between atoms: C_13  and  C_14 
REMARK    7  A    between atoms: C_24  and  O_25 
ROOT
HETATM    1  C   UNL     1      23.940  49.497  48.889  1.00  0.00    -0.007 A 
HETATM    2  C   UNL     1      24.390  48.400  49.650  1.00  0.00     0.025 A 
HETATM    3  C   UNL     1      25.730  47.972  49.628  1.00  0.00     0.001 A 
HETATM    4  C   UNL     1      26.638  48.674  48.836  1.00  0.00     0.073 A 
HETATM    5  C   UNL     1      26.234  49.775  48.089  1.00  0.00     0.038 A 
HETATM    6  C   UNL     1      24.894  50.177  48.114  1.00  0.00     0.016 A 
ENDROOT
BRANCH   3   7
HETATM    7  C   UNL     1      26.138  46.754  50.402  1.00  0.00     0.274 C 
BRANCH   7   8
HETATM    8  N   UNL     1      25.430  46.642  51.707  1.00  0.00    -0.067 N 
HETATM    9  H   UNL     1      25.621  47.474  52.275  1.00  0.00     0.277 HD
HETATM   10  H   UNL     1      24.415  46.643  51.545  1.00  0.00     0.277 HD
BRANCH   8  11
HETATM   11  C   UNL     1      25.771  45.435  52.516  1.00  0.00     0.272 C 
BRANCH  11  12
HETATM   12  C   UNL     1      26.840  45.777  53.522  1.00  0.00    -0.022 A 
HETATM   13  C   UNL     1      27.867  44.852  53.876  1.00  0.00    -0.018 A 
HETATM   14  C   UNL     1      28.777  45.216  54.903  1.00  0.00    -0.025 A 
HETATM   15  C   UNL     1      28.043  43.582  53.272  1.00  0.00     0.013 A 
HETATM   16  C   UNL     1      29.794  44.331  55.292  1.00  0.00     0.012 A 
HETATM   17  C   UNL     1      28.663  46.463  55.532  1.00  0.00     0.012 A 
HETATM   18  C   UNL     1      29.935  43.086  54.681  1.00  0.00     0.001 A 
HETATM   19  C   UNL     1      29.063  42.715  53.668  1.00  0.00     0.001 A 
HETATM   20  C   UNL     1      27.664  47.361  55.170  1.00  0.00     0.002 A 
HETATM   21  C   UNL     1      26.755  47.021  54.177  1.00  0.00     0.010 A 
ENDBRANCH  11  12
ENDBRANCH   8  11
ENDBRANCH   7   8
ENDBRANCH   3   7
BRANCH   4  22
HETATM   22  O   UNL     1      27.927  48.233  48.779  1.00  0.00    -0.360 OA
HETATM   23  H   UNL     1      27.973  47.342  49.178  1.00  0.00     0.217 HD
ENDBRANCH   4  22
BRANCH   1  24
HETATM   24  C   UNL     1      22.510  49.868  48.899  1.00  0.00     0.070 A 
HETATM   25  N   UNL     1      21.667  48.881  49.306  1.00  0.00    -0.224 NA
HETATM   26  C   UNL     1      20.342  49.161  49.324  1.00  0.00     0.164 A 
HETATM   27  C   UNL     1      19.807  50.384  48.959  1.00  0.00     0.058 A 
HETATM   28  C   UNL     1      20.677  51.386  48.555  1.00  0.00     0.007 A 
HETATM   29  C   UNL     1      22.045  51.129  48.524  1.00  0.00     0.032 A 
BRANCH  26  30
HETATM   30  O   UNL     1      19.437  48.201  49.726  1.00  0.00    -0.339 OA
HETATM   31  C   UNL     1      18.671  48.581  50.862  1.00  0.00     0.211 C 
ENDBRANCH  26  30
ENDBRANCH   1  24
TORSDOF 7
ENDMDL
MODEL 6
REMARK VINA RESULT:      -9.9      1.060      1.838
REMARK  7 active torsions:
REMARK  status: ('A' for Active; 'I' for Inactive)
REMARK    1  A    between atoms: O_2  and  C_3 
REMARK    2  A    between atoms: C_5  and  C_6 
REMARK    3  A    between atoms: C_8  and  C_9 
REMARK    4  A    between atoms: C_9  and  N_10 
REMARK    5  A    between atoms: N_10  and  C_13 
REMARK    6  A    between atoms: C_13  and  C_14 
REMARK    7  A    between atoms: C_24  and  O_25 
ROOT
HETATM    1  C   UNL     1      24.298  46.653  50.035  1.00  0.00    -0.007 A 
HETATM    2  C   UNL     1      24.934  46.585  51.290  1.00  0.00     0.025 A 
HETATM    3  C   UNL     1      25.012  45.389  52.026  1.00  0.00     0.001 A 
HETATM    4  C   UNL     1      24.452  44.235  51.479  1.00  0.00     0.073 A 
HETATM    5  C   UNL     1      23.837  44.260  50.232  1.00  0.00     0.038 A 
HETATM    6  C   UNL     1      23.758  45.463  49.521  1.00  0.00     0.016 A 
ENDROOT
BRANCH   3   7
HETATM    7  C   UNL     1      25.636  45.391  53.390  1.00  0.00     0.274 C 
BRANCH   7   8
HETATM    8  N   UNL     1      26.913  46.155  53.433  1.00  0.00    -0.067 N 
HETATM    9  H   UNL     1      27.581  45.746  52.770  1.00  0.00     0.277 HD
HETATM   10  H   UNL     1      26.748  47.114  53.105  1.00  0.00     0.277 HD
BRANCH   8  11
HETATM   11  C   UNL     1      27.569  46.226  54.772  1.00  0.00     0.272 C 
BRANCH  11  12
HETATM   12  C   UNL     1      28.607  45.140  54.894  1.00  0.00    -0.022 A 
HETATM   13  C   UNL     1      29.478  45.052  56.021  1.00  0.00    -0.018 A 
HETATM   14  C   UNL     1      30.491  44.059  56.013  1.00  0.00    -0.025 A 
HETATM   15  C   UNL     1      29.403  45.896  57.158  1.00  0.00     0.013 A 
HETATM   16  C   UNL     1      31.378  43.945  57.095  1.00  0.00     0.012 A 
HETATM   17  C   UNL     1      30.610  43.186  54.923  1.00  0.00     0.012 A 
HETATM   18  C   UNL     1      31.281  44.795  58.195  1.00  0.00     0.001 A 
HETATM   19  C   UNL     1      30.291  45.766  58.228  1.00  0.00     0.001 A 
HETATM   20  C   UNL     1      29.748  43.275  53.835  1.00  0.00     0.002 A 
HETATM   21  C   UNL     1      28.757  44.248  53.816  1.00  0.00     0.010 A 
ENDBRANCH  11  12
ENDBRANCH   8  11
ENDBRANCH   7   8
ENDBRANCH   3   7
BRANCH   4  22
HETATM   22  O   UNL     1      24.488  43.085  52.211  1.00  0.00    -0.360 OA
HETATM   23  H   UNL     1      24.773  43.301  53.121  1.00  0.00     0.217 HD
ENDBRANCH   4  22
BRANCH   1  24
HETATM   24  C   UNL     1      24.189  47.948  49.329  1.00  0.00     0.070 A 
HETATM   25  N   UNL     1      25.379  48.530  49.019  1.00  0.00    -0.224 NA
HETATM   26  C   UNL     1      25.340  49.724  48.382  1.00  0.00     0.164 A 
HETATM   27  C   UNL     1      24.170  50.374  48.030  1.00  0.00     0.058 A 
HETATM   28  C   UNL     1      22.963  49.766  48.343  1.00  0.00     0.007 A 
HETATM   29  C   UNL     1      22.969  48.537  48.999  1.00  0.00     0.032 A 
BRANCH  26  30
HETATM   30  O   UNL     1      26.513  50.366  48.043  1.00  0.00    -0.339 OA
HETATM   31  C   UNL     1      27.637  49.938  48.801  1.00  0.00     0.211 C 
ENDBRANCH  26  30
ENDBRANCH   1  24
TORSDOF 7
ENDMDL
MODEL 7
REMARK VINA RESULT:      -9.8      2.382      9.222
REMARK  7 active torsions:
REMARK  status: ('A' for Active; 'I' for Inactive)
REMARK    1  A    between atoms: O_2  and  C_3 
REMARK    2  A    between atoms: C_5  and  C_6 
REMARK    3  A    between atoms: C_8  and  C_9 
REMARK    4  A    between atoms: C_9  and  N_10 
REMARK    5  A    between atoms: N_10  and  C_13 
REMARK    6  A    between atoms: C_13  and  C_14 
REMARK    7  A    between atoms: C_24  and  O_25 
ROOT
HETATM    1  C   UNL     1      28.411  45.628  54.889  1.00  0.00    -0.007 A 
HETATM    2  C   UNL     1      27.499  45.102  53.952  1.00  0.00     0.025 A 
HETATM    3  C   UNL     1      26.440  45.866  53.429  1.00  0.00     0.001 A 
HETATM    4  C   UNL     1      26.308  47.190  53.845  1.00  0.00     0.073 A 
HETATM    5  C   UNL     1      27.203  47.749  54.750  1.00  0.00     0.038 A 
HETATM    6  C   UNL     1      28.243  46.969  55.270  1.00  0.00     0.016 A 
ENDROOT
BRANCH   3   7
HETATM    7  C   UNL     1      25.456  45.233  52.490  1.00  0.00     0.274 C 
BRANCH   7   8
HETATM    8  N   UNL     1      25.693  45.615  51.071  1.00  0.00    -0.067 N 
HETATM    9  H   UNL     1      26.541  46.188  51.006  1.00  0.00     0.277 HD
HETATM   10  H   UNL     1      25.885  44.770  50.518  1.00  0.00     0.277 HD
BRANCH   8  11
HETATM   11  C   UNL     1      24.577  46.357  50.415  1.00  0.00     0.272 C 
BRANCH  11  12
HETATM   12  C   UNL     1      25.105  47.611  49.766  1.00  0.00    -0.022 A 
HETATM   13  C   UNL     1      24.243  48.546  49.119  1.00  0.00    -0.018 A 
HETATM   14  C   UNL     1      24.830  49.651  48.449  1.00  0.00    -0.025 A 
HETATM   15  C   UNL     1      22.829  48.449  49.096  1.00  0.00     0.013 A 
HETATM   16  C   UNL     1      24.021  50.588  47.788  1.00  0.00     0.012 A 
HETATM   17  C   UNL     1      26.222  49.811  48.444  1.00  0.00     0.012 A 
HETATM   18  C   UNL     1      22.634  50.459  47.779  1.00  0.00     0.001 A 
HETATM   19  C   UNL     1      22.038  49.393  48.437  1.00  0.00     0.001 A 
HETATM   20  C   UNL     1      27.051  48.897  49.088  1.00  0.00     0.002 A 
HETATM   21  C   UNL     1      26.500  47.802  49.740  1.00  0.00     0.010 A 
ENDBRANCH  11  12
ENDBRANCH   8  11
ENDBRANCH   7   8
ENDBRANCH   3   7
BRANCH   4  22
HETATM   22  O   UNL     1      25.256  47.918  53.372  1.00  0.00    -0.360 OA
HETATM   23  H   UNL     1      25.165  48.727  53.913  1.00  0.00     0.217 HD
ENDBRANCH   4  22
BRANCH   1  24
HETATM   24  C   UNL     1      29.470  44.766  55.456  1.00  0.00     0.070 A 
HETATM   25  N   UNL     1      29.983  45.196  56.640  1.00  0.00    -0.224 NA
HETATM   26  C   UNL     1      30.965  44.451  57.201  1.00  0.00     0.164 A 
HETATM   27  C   UNL     1      31.466  43.289  56.642  1.00  0.00     0.058 A 
HETATM   28  C   UNL     1      30.929  42.855  55.438  1.00  0.00     0.007 A 
HETATM   29  C   UNL     1      29.918  43.600  54.836  1.00  0.00     0.032 A 
BRANCH  26  30
HETATM   30  O   UNL     1      31.526  44.836  58.400  1.00  0.00    -0.339 OA
HETATM   31  C   UNL     1      31.155  46.146  58.809  1.00  0.00     0.211 C 
ENDBRANCH  26  30
ENDBRANCH   1  24
TORSDOF 7
ENDMDL
MODEL 8
REMARK VINA RESULT:      -9.8      2.344      3.953
REMARK  7 active torsions:
REMARK  status: ('A' for Active; 'I' for Inactive)
REMARK    1  A    between atoms: O_2  and  C_3 
REMARK    2  A    between atoms: C_5  and  C_6 
REMARK    3  A    between atoms: C_8  and  C_9 
REMARK    4  A    between atoms: C_9  and  N_10 
REMARK    5  A    between atoms: N_10  and  C_13 
REMARK    6  A    between atoms: C_13  and  C_14 
REMARK    7  A    between atoms: C_24  and  O_25 
ROOT
HETATM    1  C   UNL     1      26.031  43.753  50.307  1.00  0.00    -0.007 A 
HETATM    2  C   UNL     1      27.227  43.191  50.796  1.00  0.00     0.025 A 
HETATM    3  C   UNL     1      27.388  41.805  50.969  1.00  0.00     0.001 A 
HETATM    4  C   UNL     1      26.327  40.966  50.627  1.00  0.00     0.073 A 
HETATM    5  C   UNL     1      25.140  41.484  50.120  1.00  0.00     0.038 A 
HETATM    6  C   UNL     1      24.995  42.867  49.968  1.00  0.00     0.016 A 
ENDROOT
BRANCH   3   7
HETATM    7  C   UNL     1      28.657  41.268  51.561  1.00  0.00     0.274 C 
BRANCH   7   8
HETATM    8  N   UNL     1      28.521  40.945  53.008  1.00  0.00    -0.067 N 
HETATM    9  H   UNL     1      28.188  39.981  53.116  1.00  0.00     0.277 HD
HETATM   10  H   UNL     1      29.448  40.971  53.451  1.00  0.00     0.277 HD
BRANCH   8  11
HETATM   11  C   UNL     1      27.611  41.842  53.779  1.00  0.00     0.272 C 
BRANCH  11  12
HETATM   12  C   UNL     1      28.401  42.965  54.400  1.00  0.00    -0.022 A 
HETATM   13  C   UNL     1      27.886  44.293  54.486  1.00  0.00    -0.018 A 
HETATM   14  C   UNL     1      28.731  45.312  54.995  1.00  0.00    -0.025 A 
HETATM   15  C   UNL     1      26.577  44.670  54.093  1.00  0.00     0.013 A 
HETATM   16  C   UNL     1      28.269  46.634  55.085  1.00  0.00     0.012 A 
HETATM   17  C   UNL     1      30.033  45.002  55.412  1.00  0.00     0.012 A 
HETATM   18  C   UNL     1      26.978  46.973  54.684  1.00  0.00     0.001 A 
HETATM   19  C   UNL     1      26.132  45.990  54.193  1.00  0.00     0.001 A 
HETATM   20  C   UNL     1      30.521  43.701  55.333  1.00  0.00     0.002 A 
HETATM   21  C   UNL     1      29.715  42.690  54.825  1.00  0.00     0.010 A 
ENDBRANCH  11  12
ENDBRANCH   8  11
ENDBRANCH   7   8
ENDBRANCH   3   7
BRANCH   4  22
HETATM   22  O   UNL     1      26.465  39.626  50.835  1.00  0.00    -0.360 OA
HETATM   23  H   UNL     1      25.793  39.337  51.485  1.00  0.00     0.217 HD
ENDBRANCH   4  22
BRANCH   1  24
HETATM   24  C   UNL     1      25.891  45.221  50.202  1.00  0.00     0.070 A 
HETATM   25  N   UNL     1      26.904  45.845  49.542  1.00  0.00    -0.224 NA
HETATM   26  C   UNL     1      26.834  47.192  49.425  1.00  0.00     0.164 A 
HETATM   27  C   UNL     1      25.799  47.958  49.932  1.00  0.00     0.058 A 
HETATM   28  C   UNL     1      24.767  47.310  50.595  1.00  0.00     0.007 A 
HETATM   29  C   UNL     1      24.810  45.925  50.732  1.00  0.00     0.032 A 
BRANCH  26  30
HETATM   30  O   UNL     1      27.832  47.882  48.769  1.00  0.00    -0.339 OA
HETATM   31  C   UNL     1      27.898  49.258  49.120  1.00  0.00     0.211 C 
ENDBRANCH  26  30
ENDBRANCH   1  24
TORSDOF 7
ENDMDL
MODEL 9
REMARK VINA RESULT:      -9.4      2.463      8.449
REMARK  7 active torsions:
REMARK  status: ('A' for Active; 'I' for Inactive)
REMARK    1  A    between atoms: O_2  and  C_3 
REMARK    2  A    between atoms: C_5  and  C_6 
REMARK    3  A    between atoms: C_8  and  C_9 
REMARK    4  A    between atoms: C_9  and  N_10 
REMARK    5  A    between atoms: N_10  and  C_13 
REMARK    6  A    between atoms: C_13  and  C_14 
REMARK    7  A    between atoms: C_24  and  O_25 
ROOT
HETATM    1  C   UNL     1      28.493  43.061  53.046  1.00  0.00    -0.007 A 
HETATM    2  C   UNL     1      27.876  43.836  52.044  1.00  0.00     0.025 A 
HETATM    3  C   UNL     1      27.263  43.254  50.919  1.00  0.00     0.001 A 
HETATM    4  C   UNL     1      27.258  41.863  50.811  1.00  0.00     0.073 A 
HETATM    5  C   UNL     1      27.837  41.067  51.793  1.00  0.00     0.038 A 
HETATM    6  C   UNL     1      28.453  41.665  52.898  1.00  0.00     0.016 A 
ENDROOT
BRANCH   3   7
HETATM    7  C   UNL     1      26.686  44.129  49.847  1.00  0.00     0.274 C 
BRANCH   7   8
HETATM    8  N   UNL     1      26.944  45.576  50.089  1.00  0.00    -0.067 N 
HETATM    9  H   UNL     1      27.569  45.683  50.895  1.00  0.00     0.277 HD
HETATM   10  H   UNL     1      27.454  45.969  49.288  1.00  0.00     0.277 HD
BRANCH   8  11
HETATM   11  C   UNL     1      25.730  46.410  50.324  1.00  0.00     0.272 C 
BRANCH  11  12
HETATM   12  C   UNL     1      25.899  47.758  49.672  1.00  0.00    -0.022 A 
HETATM   13  C   UNL     1      24.789  48.491  49.154  1.00  0.00    -0.018 A 
HETATM   14  C   UNL     1      25.045  49.707  48.468  1.00  0.00    -0.025 A 
HETATM   15  C   UNL     1      23.436  48.085  49.275  1.00  0.00     0.013 A 
HETATM   16  C   UNL     1      23.984  50.452  47.932  1.00  0.00     0.012 A 
HETATM   17  C   UNL     1      26.360  50.169  48.325  1.00  0.00     0.012 A 
HETATM   18  C   UNL     1      22.666  50.022  48.062  1.00  0.00     0.001 A 
HETATM   19  C   UNL     1      22.392  48.842  48.738  1.00  0.00     0.001 A 
HETATM   20  C   UNL     1      27.433  49.451  48.844  1.00  0.00     0.002 A 
HETATM   21  C   UNL     1      27.207  48.252  49.507  1.00  0.00     0.010 A 
ENDBRANCH  11  12
ENDBRANCH   8  11
ENDBRANCH   7   8
ENDBRANCH   3   7
BRANCH   4  22
HETATM   22  O   UNL     1      26.703  41.300  49.700  1.00  0.00    -0.360 OA
HETATM   23  H   UNL     1      26.901  41.868  48.928  1.00  0.00     0.217 HD
ENDBRANCH   4  22
BRANCH   1  24
HETATM   24  C   UNL     1      29.177  43.723  54.178  1.00  0.00     0.070 A 
HETATM   25  N   UNL     1      28.575  44.860  54.621  1.00  0.00    -0.224 NA
HETATM   26  C   UNL     1      29.165  45.515  55.649  1.00  0.00     0.164 A 
HETATM   27  C   UNL     1      30.329  45.094  56.267  1.00  0.00     0.058 A 
HETATM   28  C   UNL     1      30.928  43.928  55.812  1.00  0.00     0.007 A 
HETATM   29  C   UNL     1      30.347  43.232  54.756  1.00  0.00     0.032 A 
BRANCH  26  30
HETATM   30  O   UNL     1      28.605  46.675  56.143  1.00  0.00    -0.339 OA
HETATM   31  C   UNL     1      27.495  47.139  55.385  1.00  0.00     0.211 C 
ENDBRANCH  26  30
ENDBRANCH   1  24
TORSDOF 7
ENDMDL
MODEL 10
REMARK VINA RESULT:      -9.4     11.864     14.298
REMARK  7 active torsions:
REMARK  status: ('A' for Active; 'I' for Inactive)
REMARK    1  A    between atoms: O_2  and  C_3 
REMARK    2  A    between atoms: C_5  and  C_6 
REMARK    3  A    between atoms: C_8  and  C_9 
REMARK    4  A    between atoms: C_9  and  N_10 
REMARK    5  A    between atoms: N_10  and  C_13 
REMARK    6  A    between atoms: C_13  and  C_14 
REMARK    7  A    between atoms: C_24  and  O_25 
ROOT
HETATM    1  C   UNL     1      31.753  51.641  39.917  1.00  0.00    -0.007 A 
HETATM    2  C   UNL     1      30.547  51.806  40.627  1.00  0.00     0.025 A 
HETATM    3  C   UNL     1      29.307  51.937  39.976  1.00  0.00     0.001 A 
HETATM    4  C   UNL     1      29.280  51.885  38.583  1.00  0.00     0.073 A 
HETATM    5  C   UNL     1      30.447  51.699  37.851  1.00  0.00     0.038 A 
HETATM    6  C   UNL     1      31.673  51.584  38.516  1.00  0.00     0.016 A 
ENDROOT
BRANCH   3   7
HETATM    7  C   UNL     1      28.065  52.184  40.780  1.00  0.00     0.274 C 
BRANCH   7   8
HETATM    8  N   UNL     1      27.090  51.062  40.685  1.00  0.00    -0.067 N 
HETATM    9  H   UNL     1      26.174  51.373  41.026  1.00  0.00     0.277 HD
HETATM   10  H   UNL     1      26.950  50.815  39.698  1.00  0.00     0.277 HD
BRANCH   8  11
HETATM   11  C   UNL     1      27.469  49.824  41.426  1.00  0.00     0.272 C 
BRANCH  11  12
HETATM   12  C   UNL     1      28.408  48.992  40.591  1.00  0.00    -0.022 A 
HETATM   13  C   UNL     1      29.731  48.682  41.026  1.00  0.00    -0.018 A 
HETATM   14  C   UNL     1      30.585  47.977  40.138  1.00  0.00    -0.025 A 
HETATM   15  C   UNL     1      30.260  49.034  42.293  1.00  0.00     0.013 A 
HETATM   16  C   UNL     1      31.898  47.663  40.520  1.00  0.00     0.012 A 
HETATM   17  C   UNL     1      30.118  47.590  38.874  1.00  0.00     0.012 A 
HETATM   18  C   UNL     1      32.389  48.029  41.771  1.00  0.00     0.001 A 
HETATM   19  C   UNL     1      31.568  48.709  42.659  1.00  0.00     0.001 A 
HETATM   20  C   UNL     1      28.822  47.889  38.466  1.00  0.00     0.002 A 
HETATM   21  C   UNL     1      27.974  48.590  39.313  1.00  0.00     0.010 A 
ENDBRANCH  11  12
ENDBRANCH   8  11
ENDBRANCH   7   8
ENDBRANCH   3   7
BRANCH   4  22
HETATM   22  O   UNL     1      28.084  52.056  37.950  1.00  0.00    -0.360 OA
HETATM   23  H   UNL     1      27.448  51.398  38.295  1.00  0.00     0.217 HD
ENDBRANCH   4  22
BRANCH   1  24
HETATM   24  C   UNL     1      33.037  51.569  40.645  1.00  0.00     0.070 A 
HETATM   25  N   UNL     1      32.955  51.845  41.975  1.00  0.00    -0.224 NA
HETATM   26  C   UNL     1      34.104  51.806  42.691  1.00  0.00     0.164 A 
HETATM   27  C   UNL     1      35.340  51.501  42.149  1.00  0.00     0.058 A 
HETATM   28  C   UNL     1      35.410  51.211  40.795  1.00  0.00     0.007 A 
HETATM   29  C   UNL     1      34.246  51.244  40.031  1.00  0.00     0.032 A 
BRANCH  26  30
HETATM   30  O   UNL     1      34.086  52.078  44.043  1.00  0.00    -0.339 OA
HETATM   31  C   UNL     1      32.814  51.885  44.646  1.00  0.00     0.211 C 
ENDBRANCH  26  30
ENDBRANCH   1  24
TORSDOF 7
ENDMDL
