MODEL 1
REMARK VINA RESULT:      -8.9      0.000      0.000
REMARK  6 active torsions:
REMARK  status: ('A' for Active; 'I' for Inactive)
REMARK    1  A    between atoms: C_6  and  C_7 
REMARK    2  A    between atoms: N_8  and  N_9 
REMARK       I    between atoms: N_9  and  C_10 
REMARK    3  A    between atoms: C_10  and  C_11 
REMARK    4  A    between atoms: C_14  and  O_15 
REMARK    5  A    between atoms: O_15  and  C_16 
REMARK    6  A    between atoms: C_16  and  C_17 
ROOT
HETATM    1  C   UNL     1      26.309  41.526  51.137  1.00  0.00     0.244 C 
HETATM    2  N   UNL     1      26.336  41.977  49.750  1.00  0.00    -0.225 N 
HETATM    3  C   UNL     1      27.263  41.517  48.833  1.00  0.00     0.276 C 
HETATM    4  O   UNL     1      27.472  42.072  47.755  1.00  0.00    -0.266 OA
HETATM    5  C   UNL     1      27.961  40.269  49.211  1.00  0.00     0.060 A 
HETATM    6  C   UNL     1      27.466  39.561  50.316  1.00  0.00     0.045 A 
HETATM    7  N   UNL     1      26.378  40.055  51.048  1.00  0.00    -0.362 N 
HETATM    8  C   UNL     1      29.017  39.774  48.439  1.00  0.00     0.019 A 
HETATM    9  C   UNL     1      29.585  38.545  48.768  1.00  0.00     0.001 A 
HETATM   10  C   UNL     1      29.078  37.810  49.841  1.00  0.00     0.002 A 
HETATM   11  C   UNL     1      28.014  38.308  50.601  1.00  0.00     0.030 A 
HETATM   12  H   UNL     1      26.169  39.578  51.912  1.00  0.00     0.162 HD
ENDROOT
BRANCH   2  13
HETATM   13  N   UNL     1      25.500  43.037  49.334  1.00  0.00    -0.258 N 
HETATM   14  C   UNL     1      25.888  44.357  49.456  1.00  0.00     0.270 C 
HETATM   15  O   UNL     1      27.031  44.761  49.627  1.00  0.00    -0.266 OA
HETATM   16  H   UNL     1      24.512  42.793  49.342  1.00  0.00     0.190 HD
BRANCH  14  17
HETATM   17  C   UNL     1      24.786  45.333  49.274  1.00  0.00     0.033 A 
HETATM   18  C   UNL     1      23.614  44.986  48.595  1.00  0.00     0.020 A 
HETATM   19  C   UNL     1      22.605  45.939  48.413  1.00  0.00     0.038 A 
HETATM   20  C   UNL     1      22.765  47.236  48.905  1.00  0.00     0.069 A 
HETATM   21  C   UNL     1      23.936  47.570  49.595  1.00  0.00     0.038 A 
HETATM   22  C   UNL     1      24.942  46.621  49.790  1.00  0.00     0.020 A 
BRANCH  20  23
HETATM   23  O   UNL     1      21.869  48.261  48.780  1.00  0.00    -0.348 OA
BRANCH  23  24
HETATM   24  C   UNL     1      22.262  49.536  49.283  1.00  0.00     0.202 C 
BRANCH  24  25
HETATM   25  C   UNL     1      21.800  50.568  48.299  1.00  0.00    -0.011 C 
HETATM   26  C   UNL     1      20.775  51.407  48.497  1.00  0.00     0.009 C 
ENDBRANCH  24  25
ENDBRANCH  23  24
ENDBRANCH  20  23
ENDBRANCH  14  17
ENDBRANCH   2  13
BRANCH   1  27
HETATM   27  C   UNL     1      27.398  42.101  52.088  1.00  0.00    -0.009 A 
HETATM   28  C   UNL     1      27.243  43.234  52.927  1.00  0.00    -0.051 A 
HETATM   29  C   UNL     1      28.296  43.622  53.791  1.00  0.00     0.014 A 
HETATM   30  C   UNL     1      25.999  44.074  53.003  1.00  0.00     0.049 C 
HETATM   31  C   UNL     1      29.492  42.909  53.875  1.00  0.00    -0.061 A 
HETATM   32  C   UNL     1      30.564  43.316  54.840  1.00  0.00     0.048 C 
HETATM   33  C   UNL     1      29.632  41.766  53.101  1.00  0.00     0.007 A 
HETATM   34  C   UNL     1      28.607  41.371  52.236  1.00  0.00     0.012 A 
ENDBRANCH   1  27
TORSDOF 6
ENDMDL
MODEL 2
REMARK VINA RESULT:      -8.6      3.848     11.149
REMARK  6 active torsions:
REMARK  status: ('A' for Active; 'I' for Inactive)
REMARK    1  A    between atoms: C_6  and  C_7 
REMARK    2  A    between atoms: N_8  and  N_9 
REMARK       I    between atoms: N_9  and  C_10 
REMARK    3  A    between atoms: C_10  and  C_11 
REMARK    4  A    between atoms: C_14  and  O_15 
REMARK    5  A    between atoms: O_15  and  C_16 
REMARK    6  A    between atoms: C_16  and  C_17 
ROOT
HETATM    1  C   UNL     1      19.757  48.435  49.728  1.00  0.00     0.244 C 
HETATM    2  N   UNL     1      20.940  49.261  49.510  1.00  0.00    -0.225 N 
HETATM    3  C   UNL     1      20.871  50.535  48.977  1.00  0.00     0.276 C 
HETATM    4  O   UNL     1      21.855  51.132  48.542  1.00  0.00    -0.266 OA
HETATM    5  C   UNL     1      19.534  51.165  49.010  1.00  0.00     0.060 A 
HETATM    6  C   UNL     1      18.539  50.530  49.768  1.00  0.00     0.045 A 
HETATM    7  N   UNL     1      18.809  49.322  50.427  1.00  0.00    -0.362 N 
HETATM    8  C   UNL     1      19.301  52.391  48.380  1.00  0.00     0.019 A 
HETATM    9  C   UNL     1      18.057  53.002  48.516  1.00  0.00     0.001 A 
HETATM   10  C   UNL     1      17.069  52.402  49.299  1.00  0.00     0.002 A 
HETATM   11  C   UNL     1      17.314  51.180  49.934  1.00  0.00     0.030 A 
HETATM   12  H   UNL     1      18.015  48.846  50.828  1.00  0.00     0.162 HD
ENDROOT
BRANCH   2  13
HETATM   13  N   UNL     1      22.229  48.714  49.694  1.00  0.00    -0.258 N 
HETATM   14  C   UNL     1      22.830  47.934  48.725  1.00  0.00     0.270 C 
HETATM   15  O   UNL     1      22.505  47.869  47.546  1.00  0.00    -0.266 OA
HETATM   16  H   UNL     1      22.475  48.590  50.674  1.00  0.00     0.190 HD
BRANCH  14  17
HETATM   17  C   UNL     1      24.022  47.190  49.199  1.00  0.00     0.033 A 
HETATM   18  C   UNL     1      25.177  47.860  49.616  1.00  0.00     0.020 A 
HETATM   19  C   UNL     1      26.297  47.128  50.029  1.00  0.00     0.038 A 
HETATM   20  C   UNL     1      26.266  45.731  50.022  1.00  0.00     0.069 A 
HETATM   21  C   UNL     1      25.102  45.071  49.614  1.00  0.00     0.038 A 
HETATM   22  C   UNL     1      23.977  45.794  49.212  1.00  0.00     0.020 A 
BRANCH  20  23
HETATM   23  O   UNL     1      27.292  44.902  50.381  1.00  0.00    -0.348 OA
BRANCH  23  24
HETATM   24  C   UNL     1      27.015  43.913  51.369  1.00  0.00     0.202 C 
BRANCH  24  25
HETATM   25  C   UNL     1      27.210  44.552  52.711  1.00  0.00    -0.011 C 
HETATM   26  C   UNL     1      28.059  44.114  53.649  1.00  0.00     0.009 C 
ENDBRANCH  24  25
ENDBRANCH  23  24
ENDBRANCH  20  23
ENDBRANCH  14  17
ENDBRANCH   2  13
BRANCH   1  27
HETATM   27  C   UNL     1      19.116  47.775  48.473  1.00  0.00    -0.009 A 
HETATM   28  C   UNL     1      19.315  46.435  48.055  1.00  0.00    -0.051 A 
HETATM   29  C   UNL     1      18.625  45.938  46.922  1.00  0.00     0.014 A 
HETATM   30  C   UNL     1      20.206  45.447  48.755  1.00  0.00     0.049 C 
HETATM   31  C   UNL     1      17.720  46.718  46.200  1.00  0.00    -0.061 A 
HETATM   32  C   UNL     1      16.967  46.143  45.039  1.00  0.00     0.048 C 
HETATM   33  C   UNL     1      17.475  48.012  46.634  1.00  0.00     0.007 A 
HETATM   34  C   UNL     1      18.152  48.522  47.746  1.00  0.00     0.012 A 
ENDBRANCH   1  27
TORSDOF 6
ENDMDL
MODEL 3
REMARK VINA RESULT:      -8.5      2.740      8.185
REMARK  6 active torsions:
REMARK  status: ('A' for Active; 'I' for Inactive)
REMARK    1  A    between atoms: C_6  and  C_7 
REMARK    2  A    between atoms: N_8  and  N_9 
REMARK       I    between atoms: N_9  and  C_10 
REMARK    3  A    between atoms: C_10  and  C_11 
REMARK    4  A    between atoms: C_14  and  O_15 
REMARK    5  A    between atoms: O_15  and  C_16 
REMARK    6  A    between atoms: C_16  and  C_17 
ROOT
HETATM    1  C   UNL     1      24.368  43.041  50.386  1.00  0.00     0.244 C 
HETATM    2  N   UNL     1      25.027  44.292  50.747  1.00  0.00    -0.225 N 
HETATM    3  C   UNL     1      24.761  45.487  50.106  1.00  0.00     0.276 C 
HETATM    4  O   UNL     1      25.484  46.478  50.209  1.00  0.00    -0.266 OA
HETATM    5  C   UNL     1      23.508  45.520  49.322  1.00  0.00     0.060 A 
HETATM    6  C   UNL     1      22.614  44.451  49.486  1.00  0.00     0.045 A 
HETATM    7  N   UNL     1      22.934  43.381  50.333  1.00  0.00    -0.362 N 
HETATM    8  C   UNL     1      23.192  46.619  48.517  1.00  0.00     0.019 A 
HETATM    9  C   UNL     1      21.959  46.660  47.871  1.00  0.00     0.001 A 
HETATM   10  C   UNL     1      21.043  45.622  48.055  1.00  0.00     0.002 A 
HETATM   11  C   UNL     1      21.363  44.531  48.871  1.00  0.00     0.030 A 
HETATM   12  H   UNL     1      22.321  42.581  50.291  1.00  0.00     0.162 HD
ENDROOT
BRANCH   2  13
HETATM   13  N   UNL     1      26.093  44.288  51.674  1.00  0.00    -0.258 N 
HETATM   14  C   UNL     1      25.874  44.417  53.032  1.00  0.00     0.270 C 
HETATM   15  O   UNL     1      24.809  44.250  53.611  1.00  0.00    -0.266 OA
HETATM   16  H   UNL     1      26.976  44.590  51.268  1.00  0.00     0.190 HD
BRANCH  14  17
HETATM   17  C   UNL     1      27.097  44.710  53.818  1.00  0.00     0.033 A 
HETATM   18  C   UNL     1      28.105  43.754  53.974  1.00  0.00     0.020 A 
HETATM   19  C   UNL     1      29.234  44.051  54.749  1.00  0.00     0.038 A 
HETATM   20  C   UNL     1      29.354  45.297  55.368  1.00  0.00     0.069 A 
HETATM   21  C   UNL     1      28.345  46.251  55.195  1.00  0.00     0.038 A 
HETATM   22  C   UNL     1      27.223  45.967  54.415  1.00  0.00     0.020 A 
BRANCH  20  23
HETATM   23  O   UNL     1      30.391  45.705  56.161  1.00  0.00    -0.348 OA
BRANCH  23  24
HETATM   24  C   UNL     1      30.213  45.599  57.572  1.00  0.00     0.202 C 
BRANCH  24  25
HETATM   25  C   UNL     1      31.219  44.609  58.077  1.00  0.00    -0.011 C 
HETATM   26  C   UNL     1      31.749  43.619  57.348  1.00  0.00     0.009 C 
ENDBRANCH  24  25
ENDBRANCH  23  24
ENDBRANCH  20  23
ENDBRANCH  14  17
ENDBRANCH   2  13
BRANCH   1  27
HETATM   27  C   UNL     1      24.847  42.342  49.081  1.00  0.00    -0.009 A 
HETATM   28  C   UNL     1      26.127  41.766  48.877  1.00  0.00    -0.051 A 
HETATM   29  C   UNL     1      26.419  41.107  47.658  1.00  0.00     0.014 A 
HETATM   30  C   UNL     1      27.234  41.768  49.894  1.00  0.00     0.049 C 
HETATM   31  C   UNL     1      25.475  40.973  46.639  1.00  0.00    -0.061 A 
HETATM   32  C   UNL     1      25.802  40.222  45.384  1.00  0.00     0.048 C 
HETATM   33  C   UNL     1      24.203  41.482  46.850  1.00  0.00     0.007 A 
HETATM   34  C   UNL     1      23.898  42.144  48.044  1.00  0.00     0.012 A 
ENDBRANCH   1  27
TORSDOF 6
ENDMDL
MODEL 4
REMARK VINA RESULT:      -8.4      1.969      4.449
REMARK  6 active torsions:
REMARK  status: ('A' for Active; 'I' for Inactive)
REMARK    1  A    between atoms: C_6  and  C_7 
REMARK    2  A    between atoms: N_8  and  N_9 
REMARK       I    between atoms: N_9  and  C_10 
REMARK    3  A    between atoms: C_10  and  C_11 
REMARK    4  A    between atoms: C_14  and  O_15 
REMARK    5  A    between atoms: O_15  and  C_16 
REMARK    6  A    between atoms: C_16  and  C_17 
ROOT
HETATM    1  C   UNL     1      26.812  43.841  49.983  1.00  0.00     0.244 C 
HETATM    2  N   UNL     1      25.789  44.494  50.793  1.00  0.00    -0.225 N 
HETATM    3  C   UNL     1      25.715  44.341  52.166  1.00  0.00     0.276 C 
HETATM    4  O   UNL     1      24.722  44.656  52.822  1.00  0.00    -0.266 OA
HETATM    5  C   UNL     1      26.937  43.818  52.812  1.00  0.00     0.060 A 
HETATM    6  C   UNL     1      28.102  43.751  52.033  1.00  0.00     0.045 A 
HETATM    7  N   UNL     1      28.078  44.129  50.683  1.00  0.00    -0.362 N 
HETATM    8  C   UNL     1      26.948  43.488  54.170  1.00  0.00     0.019 A 
HETATM    9  C   UNL     1      28.143  43.094  54.768  1.00  0.00     0.001 A 
HETATM   10  C   UNL     1      29.318  43.060  54.016  1.00  0.00     0.002 A 
HETATM   11  C   UNL     1      29.301  43.402  52.659  1.00  0.00     0.030 A 
HETATM   12  H   UNL     1      28.905  43.918  50.146  1.00  0.00     0.162 HD
ENDROOT
BRANCH   2  13
HETATM   13  N   UNL     1      24.728  45.187  50.170  1.00  0.00    -0.258 N 
HETATM   14  C   UNL     1      24.909  46.436  49.608  1.00  0.00     0.270 C 
HETATM   15  O   UNL     1      25.982  46.945  49.310  1.00  0.00    -0.266 OA
HETATM   16  H   UNL     1      23.812  44.912  50.517  1.00  0.00     0.190 HD
BRANCH  14  17
HETATM   17  C   UNL     1      23.647  47.146  49.288  1.00  0.00     0.033 A 
HETATM   18  C   UNL     1      22.550  46.467  48.748  1.00  0.00     0.020 A 
HETATM   19  C   UNL     1      21.383  47.171  48.427  1.00  0.00     0.038 A 
HETATM   20  C   UNL     1      21.312  48.550  48.641  1.00  0.00     0.069 A 
HETATM   21  C   UNL     1      22.411  49.217  49.193  1.00  0.00     0.038 A 
HETATM   22  C   UNL     1      23.573  48.520  49.526  1.00  0.00     0.020 A 
BRANCH  20  23
HETATM   23  O   UNL     1      20.244  49.355  48.356  1.00  0.00    -0.348 OA
BRANCH  23  24
HETATM   24  C   UNL     1      20.518  50.599  47.717  1.00  0.00     0.202 C 
BRANCH  24  25
HETATM   25  C   UNL     1      20.033  51.688  48.627  1.00  0.00    -0.011 C 
HETATM   26  C   UNL     1      18.961  52.455  48.395  1.00  0.00     0.009 C 
ENDBRANCH  24  25
ENDBRANCH  23  24
ENDBRANCH  20  23
ENDBRANCH  14  17
ENDBRANCH   2  13
BRANCH   1  27
HETATM   27  C   UNL     1      26.633  42.319  49.711  1.00  0.00    -0.009 A 
HETATM   28  C   UNL     1      25.590  41.736  48.947  1.00  0.00    -0.051 A 
HETATM   29  C   UNL     1      25.574  40.337  48.727  1.00  0.00     0.014 A 
HETATM   30  C   UNL     1      24.475  42.508  48.299  1.00  0.00     0.049 C 
HETATM   31  C   UNL     1      26.572  39.495  49.216  1.00  0.00    -0.061 A 
HETATM   32  C   UNL     1      26.551  38.025  48.918  1.00  0.00     0.048 C 
HETATM   33  C   UNL     1      27.626  40.061  49.917  1.00  0.00     0.007 A 
HETATM   34  C   UNL     1      27.656  41.439  50.151  1.00  0.00     0.012 A 
ENDBRANCH   1  27
TORSDOF 6
ENDMDL
MODEL 5
REMARK VINA RESULT:      -8.2      3.529      6.433
REMARK  6 active torsions:
REMARK  status: ('A' for Active; 'I' for Inactive)
REMARK    1  A    between atoms: C_6  and  C_7 
REMARK    2  A    between atoms: N_8  and  N_9 
REMARK       I    between atoms: N_9  and  C_10 
REMARK    3  A    between atoms: C_10  and  C_11 
REMARK    4  A    between atoms: C_14  and  O_15 
REMARK    5  A    between atoms: O_15  and  C_16 
REMARK    6  A    between atoms: C_16  and  C_17 
ROOT
HETATM    1  C   UNL     1      25.843  43.505  52.042  1.00  0.00     0.244 C 
HETATM    2  N   UNL     1      26.461  42.341  51.417  1.00  0.00    -0.225 N 
HETATM    3  C   UNL     1      27.803  42.041  51.562  1.00  0.00     0.276 C 
HETATM    4  O   UNL     1      28.391  41.236  50.840  1.00  0.00    -0.266 OA
HETATM    5  C   UNL     1      28.485  42.717  52.687  1.00  0.00     0.060 A 
HETATM    6  C   UNL     1      27.682  43.394  53.617  1.00  0.00     0.045 A 
HETATM    7  N   UNL     1      26.292  43.453  53.446  1.00  0.00    -0.362 N 
HETATM    8  C   UNL     1      29.868  42.607  52.859  1.00  0.00     0.019 A 
HETATM    9  C   UNL     1      30.462  43.173  53.984  1.00  0.00     0.001 A 
HETATM   10  C   UNL     1      29.672  43.816  54.939  1.00  0.00     0.002 A 
HETATM   11  C   UNL     1      28.287  43.912  54.764  1.00  0.00     0.030 A 
HETATM   12  H   UNL     1      25.793  44.075  54.064  1.00  0.00     0.162 HD
ENDROOT
BRANCH   2  13
HETATM   13  N   UNL     1      25.728  41.559  50.497  1.00  0.00    -0.258 N 
HETATM   14  C   UNL     1      25.826  41.761  49.134  1.00  0.00     0.270 C 
HETATM   15  O   UNL     1      26.717  42.371  48.557  1.00  0.00    -0.266 OA
HETATM   16  H   UNL     1      24.877  41.168  50.895  1.00  0.00     0.190 HD
BRANCH  14  17
HETATM   17  C   UNL     1      24.769  41.085  48.343  1.00  0.00     0.033 A 
HETATM   18  C   UNL     1      23.431  41.481  48.433  1.00  0.00     0.020 A 
HETATM   19  C   UNL     1      22.452  40.803  47.696  1.00  0.00     0.038 A 
HETATM   20  C   UNL     1      22.807  39.730  46.875  1.00  0.00     0.069 A 
HETATM   21  C   UNL     1      24.150  39.350  46.783  1.00  0.00     0.038 A 
HETATM   22  C   UNL     1      25.133  40.029  47.505  1.00  0.00     0.020 A 
BRANCH  20  23
HETATM   23  O   UNL     1      21.951  38.976  46.121  1.00  0.00    -0.348 OA
BRANCH  23  24
HETATM   24  C   UNL     1      21.237  37.938  46.789  1.00  0.00     0.202 C 
BRANCH  24  25
HETATM   25  C   UNL     1      19.803  38.365  46.878  1.00  0.00    -0.011 C 
HETATM   26  C   UNL     1      19.018  38.188  47.949  1.00  0.00     0.009 C 
ENDBRANCH  24  25
ENDBRANCH  23  24
ENDBRANCH  20  23
ENDBRANCH  14  17
ENDBRANCH   2  13
BRANCH   1  27
HETATM   27  C   UNL     1      26.128  44.891  51.394  1.00  0.00    -0.009 A 
HETATM   28  C   UNL     1      25.940  46.148  52.022  1.00  0.00    -0.051 A 
HETATM   29  C   UNL     1      26.292  47.338  51.340  1.00  0.00     0.014 A 
HETATM   30  C   UNL     1      25.406  46.333  53.415  1.00  0.00     0.049 C 
HETATM   31  C   UNL     1      26.852  47.326  50.063  1.00  0.00    -0.061 A 
HETATM   32  C   UNL     1      27.263  48.602  49.392  1.00  0.00     0.048 C 
HETATM   33  C   UNL     1      27.093  46.100  49.462  1.00  0.00     0.007 A 
HETATM   34  C   UNL     1      26.745  44.914  50.115  1.00  0.00     0.012 A 
ENDBRANCH   1  27
TORSDOF 6
ENDMDL
MODEL 6
REMARK VINA RESULT:      -8.2     17.997     21.094
REMARK  6 active torsions:
REMARK  status: ('A' for Active; 'I' for Inactive)
REMARK    1  A    between atoms: C_6  and  C_7 
REMARK    2  A    between atoms: N_8  and  N_9 
REMARK       I    between atoms: N_9  and  C_10 
REMARK    3  A    between atoms: C_10  and  C_11 
REMARK    4  A    between atoms: C_14  and  O_15 
REMARK    5  A    between atoms: O_15  and  C_16 
REMARK    6  A    between atoms: C_16  and  C_17 
ROOT
HETATM    1  C   UNL     1      40.622  37.984  65.212  1.00  0.00     0.244 C 
HETATM    2  N   UNL     1      41.045  39.363  64.995  1.00  0.00    -0.225 N 
HETATM    3  C   UNL     1      42.360  39.770  65.132  1.00  0.00     0.276 C 
HETATM    4  O   UNL     1      42.689  40.953  65.218  1.00  0.00    -0.266 OA
HETATM    5  C   UNL     1      43.364  38.685  65.117  1.00  0.00     0.060 A 
HETATM    6  C   UNL     1      42.928  37.406  64.739  1.00  0.00     0.045 A 
HETATM    7  N   UNL     1      41.579  37.176  64.433  1.00  0.00    -0.362 N 
HETATM    8  C   UNL     1      44.711  38.948  65.384  1.00  0.00     0.019 A 
HETATM    9  C   UNL     1      45.644  37.921  65.262  1.00  0.00     0.001 A 
HETATM   10  C   UNL     1      45.232  36.652  64.849  1.00  0.00     0.002 A 
HETATM   11  C   UNL     1      43.883  36.401  64.574  1.00  0.00     0.030 A 
HETATM   12  H   UNL     1      41.307  36.212  64.315  1.00  0.00     0.162 HD
ENDROOT
BRANCH   2  13
HETATM   13  N   UNL     1      40.082  40.375  64.790  1.00  0.00    -0.258 N 
HETATM   14  C   UNL     1      39.589  40.663  63.532  1.00  0.00     0.270 C 
HETATM   15  O   UNL     1      39.666  39.943  62.544  1.00  0.00    -0.266 OA
HETATM   16  H   UNL     1      40.100  41.096  65.508  1.00  0.00     0.190 HD
BRANCH  14  17
HETATM   17  C   UNL     1      38.841  41.941  63.451  1.00  0.00     0.033 A 
HETATM   18  C   UNL     1      39.342  43.030  62.731  1.00  0.00     0.020 A 
HETATM   19  C   UNL     1      38.627  44.233  62.699  1.00  0.00     0.038 A 
HETATM   20  C   UNL     1      37.416  44.350  63.386  1.00  0.00     0.069 A 
HETATM   21  C   UNL     1      36.917  43.250  64.092  1.00  0.00     0.038 A 
HETATM   22  C   UNL     1      37.619  42.044  64.119  1.00  0.00     0.020 A 
BRANCH  20  23
HETATM   23  O   UNL     1      36.632  45.469  63.450  1.00  0.00    -0.348 OA
BRANCH  23  24
HETATM   24  C   UNL     1      36.715  46.255  64.636  1.00  0.00     0.202 C 
BRANCH  24  25
HETATM   25  C   UNL     1      36.622  47.695  64.227  1.00  0.00    -0.011 C 
HETATM   26  C   UNL     1      37.502  48.644  64.571  1.00  0.00     0.009 C 
ENDBRANCH  24  25
ENDBRANCH  23  24
ENDBRANCH  20  23
ENDBRANCH  14  17
ENDBRANCH   2  13
BRANCH   1  27
HETATM   27  C   UNL     1      40.521  37.500  66.688  1.00  0.00    -0.009 A 
HETATM   28  C   UNL     1      40.203  36.181  67.102  1.00  0.00    -0.051 A 
HETATM   29  C   UNL     1      40.199  35.855  68.480  1.00  0.00     0.014 A 
HETATM   30  C   UNL     1      39.886  35.048  66.166  1.00  0.00     0.049 C 
HETATM   31  C   UNL     1      40.528  36.785  69.466  1.00  0.00    -0.061 A 
HETATM   32  C   UNL     1      40.566  36.391  70.912  1.00  0.00     0.048 C 
HETATM   33  C   UNL     1      40.896  38.062  69.069  1.00  0.00     0.007 A 
HETATM   34  C   UNL     1      40.898  38.406  67.714  1.00  0.00     0.012 A 
ENDBRANCH   1  27
TORSDOF 6
ENDMDL
MODEL 7
REMARK VINA RESULT:      -8.1      8.986     11.617
REMARK  6 active torsions:
REMARK  status: ('A' for Active; 'I' for Inactive)
REMARK    1  A    between atoms: C_6  and  C_7 
REMARK    2  A    between atoms: N_8  and  N_9 
REMARK       I    between atoms: N_9  and  C_10 
REMARK    3  A    between atoms: C_10  and  C_11 
REMARK    4  A    between atoms: C_14  and  O_15 
REMARK    5  A    between atoms: O_15  and  C_16 
REMARK    6  A    between atoms: C_16  and  C_17 
ROOT
HETATM    1  C   UNL     1      18.181  48.708  49.149  1.00  0.00     0.244 C 
HETATM    2  N   UNL     1      17.090  48.928  48.205  1.00  0.00    -0.225 N 
HETATM    3  C   UNL     1      16.973  48.220  47.024  1.00  0.00     0.276 C 
HETATM    4  O   UNL     1      16.231  48.568  46.105  1.00  0.00    -0.266 OA
HETATM    5  C   UNL     1      17.763  46.972  46.951  1.00  0.00     0.060 A 
HETATM    6  C   UNL     1      18.356  46.513  48.137  1.00  0.00     0.045 A 
HETATM    7  N   UNL     1      18.228  47.245  49.326  1.00  0.00    -0.362 N 
HETATM    8  C   UNL     1      17.840  46.238  45.764  1.00  0.00     0.019 A 
HETATM    9  C   UNL     1      18.511  45.017  45.759  1.00  0.00     0.001 A 
HETATM   10  C   UNL     1      19.072  44.527  46.940  1.00  0.00     0.002 A 
HETATM   11  C   UNL     1      18.981  45.264  48.126  1.00  0.00     0.030 A 
HETATM   12  H   UNL     1      18.797  46.939  50.100  1.00  0.00     0.162 HD
ENDROOT
BRANCH   2  13
HETATM   13  N   UNL     1      16.194  50.002  48.398  1.00  0.00    -0.258 N 
HETATM   14  C   UNL     1      16.464  51.268  47.917  1.00  0.00     0.270 C 
HETATM   15  O   UNL     1      17.289  51.553  47.058  1.00  0.00    -0.266 OA
HETATM   16  H   UNL     1      15.598  49.883  49.215  1.00  0.00     0.190 HD
BRANCH  14  17
HETATM   17  C   UNL     1      15.590  52.328  48.473  1.00  0.00     0.033 A 
HETATM   18  C   UNL     1      14.910  53.221  47.637  1.00  0.00     0.020 A 
HETATM   19  C   UNL     1      14.116  54.231  48.194  1.00  0.00     0.038 A 
HETATM   20  C   UNL     1      14.002  54.352  49.581  1.00  0.00     0.069 A 
HETATM   21  C   UNL     1      14.676  53.447  50.407  1.00  0.00     0.038 A 
HETATM   22  C   UNL     1      15.460  52.430  49.860  1.00  0.00     0.020 A 
BRANCH  20  23
HETATM   23  O   UNL     1      13.278  55.300  50.249  1.00  0.00    -0.348 OA
BRANCH  23  24
HETATM   24  C   UNL     1      13.587  56.666  49.980  1.00  0.00     0.202 C 
BRANCH  24  25
HETATM   25  C   UNL     1      14.910  56.961  50.620  1.00  0.00    -0.011 C 
HETATM   26  C   UNL     1      15.175  58.042  51.363  1.00  0.00     0.009 C 
ENDBRANCH  24  25
ENDBRANCH  23  24
ENDBRANCH  20  23
ENDBRANCH  14  17
ENDBRANCH   2  13
BRANCH   1  27
HETATM   27  C   UNL     1      19.573  49.291  48.769  1.00  0.00    -0.009 A 
HETATM   28  C   UNL     1      20.052  50.577  49.124  1.00  0.00    -0.051 A 
HETATM   29  C   UNL     1      21.365  50.967  48.762  1.00  0.00     0.014 A 
HETATM   30  C   UNL     1      19.267  51.592  49.908  1.00  0.00     0.049 C 
HETATM   31  C   UNL     1      22.234  50.113  48.082  1.00  0.00    -0.061 A 
HETATM   32  C   UNL     1      23.635  50.539  47.763  1.00  0.00     0.048 C 
HETATM   33  C   UNL     1      21.796  48.833  47.780  1.00  0.00     0.007 A 
HETATM   34  C   UNL     1      20.501  48.432  48.121  1.00  0.00     0.012 A 
ENDBRANCH   1  27
TORSDOF 6
ENDMDL
MODEL 8
REMARK VINA RESULT:      -8.1      3.317      9.480
REMARK  6 active torsions:
REMARK  status: ('A' for Active; 'I' for Inactive)
REMARK    1  A    between atoms: C_6  and  C_7 
REMARK    2  A    between atoms: N_8  and  N_9 
REMARK       I    between atoms: N_9  and  C_10 
REMARK    3  A    between atoms: C_10  and  C_11 
REMARK    4  A    between atoms: C_14  and  O_15 
REMARK    5  A    between atoms: O_15  and  C_16 
REMARK    6  A    between atoms: C_16  and  C_17 
ROOT
HETATM    1  C   UNL     1      22.513  45.690  48.799  1.00  0.00     0.244 C 
HETATM    2  N   UNL     1      23.691  46.395  49.294  1.00  0.00    -0.225 N 
HETATM    3  C   UNL     1      23.935  47.727  49.015  1.00  0.00     0.276 C 
HETATM    4  O   UNL     1      25.032  48.257  49.190  1.00  0.00    -0.266 OA
HETATM    5  C   UNL     1      22.768  48.498  48.537  1.00  0.00     0.060 A 
HETATM    6  C   UNL     1      21.508  47.889  48.632  1.00  0.00     0.045 A 
HETATM    7  N   UNL     1      21.385  46.582  49.124  1.00  0.00    -0.362 N 
HETATM    8  C   UNL     1      22.911  49.815  48.090  1.00  0.00     0.019 A 
HETATM    9  C   UNL     1      21.776  50.545  47.742  1.00  0.00     0.001 A 
HETATM   10  C   UNL     1      20.512  49.966  47.868  1.00  0.00     0.002 A 
HETATM   11  C   UNL     1      20.378  48.651  48.326  1.00  0.00     0.030 A 
HETATM   12  H   UNL     1      20.477  46.154  49.028  1.00  0.00     0.162 HD
ENDROOT
BRANCH   2  13
HETATM   13  N   UNL     1      24.717  45.682  49.952  1.00  0.00    -0.258 N 
HETATM   14  C   UNL     1      24.441  44.783  50.964  1.00  0.00     0.270 C 
HETATM   15  O   UNL     1      23.352  44.277  51.204  1.00  0.00    -0.266 OA
HETATM   16  H   UNL     1      25.616  46.158  49.924  1.00  0.00     0.190 HD
BRANCH  14  17
HETATM   17  C   UNL     1      25.629  44.370  51.750  1.00  0.00     0.033 A 
HETATM   18  C   UNL     1      25.583  44.287  53.145  1.00  0.00     0.020 A 
HETATM   19  C   UNL     1      26.731  43.924  53.860  1.00  0.00     0.038 A 
HETATM   20  C   UNL     1      27.922  43.648  53.186  1.00  0.00     0.069 A 
HETATM   21  C   UNL     1      27.955  43.722  51.789  1.00  0.00     0.038 A 
HETATM   22  C   UNL     1      26.811  44.072  51.068  1.00  0.00     0.020 A 
BRANCH  20  23
HETATM   23  O   UNL     1      29.113  43.301  53.763  1.00  0.00    -0.348 OA
BRANCH  23  24
HETATM   24  C   UNL     1      29.517  44.038  54.915  1.00  0.00     0.202 C 
BRANCH  24  25
HETATM   25  C   UNL     1      30.718  43.349  55.489  1.00  0.00    -0.011 C 
HETATM   26  C   UNL     1      31.297  43.667  56.654  1.00  0.00     0.009 C 
ENDBRANCH  24  25
ENDBRANCH  23  24
ENDBRANCH  20  23
ENDBRANCH  14  17
ENDBRANCH   2  13
BRANCH   1  27
HETATM   27  C   UNL     1      22.514  45.281  47.297  1.00  0.00    -0.009 A 
HETATM   28  C   UNL     1      23.164  44.144  46.754  1.00  0.00    -0.051 A 
HETATM   29  C   UNL     1      23.040  43.851  45.374  1.00  0.00     0.014 A 
HETATM   30  C   UNL     1      23.980  43.166  47.554  1.00  0.00     0.049 C 
HETATM   31  C   UNL     1      22.269  44.632  44.514  1.00  0.00    -0.061 A 
HETATM   32  C   UNL     1      22.116  44.262  43.069  1.00  0.00     0.048 C 
HETATM   33  C   UNL     1      21.583  45.714  45.045  1.00  0.00     0.007 A 
HETATM   34  C   UNL     1      21.699  46.024  46.403  1.00  0.00     0.012 A 
ENDBRANCH   1  27
TORSDOF 6
ENDMDL
MODEL 9
REMARK VINA RESULT:      -8.0     17.904     20.730
REMARK  6 active torsions:
REMARK  status: ('A' for Active; 'I' for Inactive)
REMARK    1  A    between atoms: C_6  and  C_7 
REMARK    2  A    between atoms: N_8  and  N_9 
REMARK       I    between atoms: N_9  and  C_10 
REMARK    3  A    between atoms: C_10  and  C_11 
REMARK    4  A    between atoms: C_14  and  O_15 
REMARK    5  A    between atoms: O_15  and  C_16 
REMARK    6  A    between atoms: C_16  and  C_17 
ROOT
HETATM    1  C   UNL     1      39.124  45.989  66.528  1.00  0.00     0.244 C 
HETATM    2  N   UNL     1      37.983  46.628  65.880  1.00  0.00    -0.225 N 
HETATM    3  C   UNL     1      37.371  46.102  64.758  1.00  0.00     0.276 C 
HETATM    4  O   UNL     1      36.599  46.749  64.051  1.00  0.00    -0.266 OA
HETATM    5  C   UNL     1      37.664  44.679  64.485  1.00  0.00     0.060 A 
HETATM    6  C   UNL     1      38.324  43.951  65.487  1.00  0.00     0.045 A 
HETATM    7  N   UNL     1      38.721  44.578  66.677  1.00  0.00    -0.362 N 
HETATM    8  C   UNL     1      37.220  44.066  63.310  1.00  0.00     0.019 A 
HETATM    9  C   UNL     1      37.427  42.700  63.132  1.00  0.00     0.001 A 
HETATM   10  C   UNL     1      38.048  41.954  64.137  1.00  0.00     0.002 A 
HETATM   11  C   UNL     1      38.479  42.574  65.314  1.00  0.00     0.030 A 
HETATM   12  H   UNL     1      39.317  44.039  67.286  1.00  0.00     0.162 HD
ENDROOT
BRANCH   2  13
HETATM   13  N   UNL     1      37.563  47.912  66.295  1.00  0.00    -0.258 N 
HETATM   14  C   UNL     1      38.191  49.059  65.850  1.00  0.00     0.270 C 
HETATM   15  O   UNL     1      38.929  49.147  64.877  1.00  0.00    -0.266 OA
HETATM   16  H   UNL     1      37.089  47.905  67.195  1.00  0.00     0.190 HD
BRANCH  14  17
HETATM   17  C   UNL     1      37.839  50.279  66.616  1.00  0.00     0.033 A 
HETATM   18  C   UNL     1      37.279  50.196  67.895  1.00  0.00     0.020 A 
HETATM   19  C   UNL     1      36.929  51.366  68.580  1.00  0.00     0.038 A 
HETATM   20  C   UNL     1      37.135  52.615  67.990  1.00  0.00     0.069 A 
HETATM   21  C   UNL     1      37.707  52.687  66.715  1.00  0.00     0.038 A 
HETATM   22  C   UNL     1      38.069  51.526  66.031  1.00  0.00     0.020 A 
BRANCH  20  23
HETATM   23  O   UNL     1      36.822  53.827  68.541  1.00  0.00    -0.348 OA
BRANCH  23  24
HETATM   24  C   UNL     1      37.260  54.992  67.844  1.00  0.00     0.202 C 
BRANCH  24  25
HETATM   25  C   UNL     1      36.051  55.839  67.584  1.00  0.00    -0.011 C 
HETATM   26  C   UNL     1      35.913  56.675  66.546  1.00  0.00     0.009 C 
ENDBRANCH  24  25
ENDBRANCH  23  24
ENDBRANCH  20  23
ENDBRANCH  14  17
ENDBRANCH   2  13
BRANCH   1  27
HETATM   27  C   UNL     1      40.504  46.126  65.823  1.00  0.00    -0.009 A 
HETATM   28  C   UNL     1      41.516  47.058  66.168  1.00  0.00    -0.051 A 
HETATM   29  C   UNL     1      42.755  47.042  65.483  1.00  0.00     0.014 A 
HETATM   30  C   UNL     1      41.393  48.082  67.262  1.00  0.00     0.049 C 
HETATM   31  C   UNL     1      43.040  46.113  64.482  1.00  0.00    -0.061 A 
HETATM   32  C   UNL     1      44.382  46.091  63.814  1.00  0.00     0.048 C 
HETATM   33  C   UNL     1      42.080  45.161  64.175  1.00  0.00     0.007 A 
HETATM   34  C   UNL     1      40.847  45.165  64.835  1.00  0.00     0.012 A 
ENDBRANCH   1  27
TORSDOF 6
ENDMDL
MODEL 10
REMARK VINA RESULT:      -7.8      2.880      7.718
REMARK  6 active torsions:
REMARK  status: ('A' for Active; 'I' for Inactive)
REMARK    1  A    between atoms: C_6  and  C_7 
REMARK    2  A    between atoms: N_8  and  N_9 
REMARK       I    between atoms: N_9  and  C_10 
REMARK    3  A    between atoms: C_10  and  C_11 
REMARK    4  A    between atoms: C_14  and  O_15 
REMARK    5  A    between atoms: O_15  and  C_16 
REMARK    6  A    between atoms: C_16  and  C_17 
ROOT
HETATM    1  C   UNL     1      25.046  41.477  49.177  1.00  0.00     0.244 C 
HETATM    2  N   UNL     1      24.969  42.843  49.684  1.00  0.00    -0.225 N 
HETATM    3  C   UNL     1      24.303  43.851  49.012  1.00  0.00     0.276 C 
HETATM    4  O   UNL     1      24.451  45.044  49.277  1.00  0.00    -0.266 OA
HETATM    5  C   UNL     1      23.349  43.400  47.976  1.00  0.00     0.060 A 
HETATM    6  C   UNL     1      23.040  42.032  47.934  1.00  0.00     0.045 A 
HETATM    7  N   UNL     1      23.656  41.136  48.820  1.00  0.00    -0.362 N 
HETATM    8  C   UNL     1      22.716  44.318  47.133  1.00  0.00     0.019 A 
HETATM    9  C   UNL     1      21.749  43.867  46.237  1.00  0.00     0.001 A 
HETATM   10  C   UNL     1      21.403  42.515  46.210  1.00  0.00     0.002 A 
HETATM   11  C   UNL     1      22.034  41.605  47.065  1.00  0.00     0.030 A 
HETATM   12  H   UNL     1      23.503  40.156  48.639  1.00  0.00     0.162 HD
ENDROOT
BRANCH   2  13
HETATM   13  N   UNL     1      25.721  43.220  50.818  1.00  0.00    -0.258 N 
HETATM   14  C   UNL     1      26.985  43.765  50.701  1.00  0.00     0.270 C 
HETATM   15  O   UNL     1      27.470  44.253  49.689  1.00  0.00    -0.266 OA
HETATM   16  H   UNL     1      25.462  42.707  51.658  1.00  0.00     0.190 HD
BRANCH  14  17
HETATM   17  C   UNL     1      27.749  43.805  51.972  1.00  0.00     0.033 A 
HETATM   18  C   UNL     1      28.870  42.993  52.170  1.00  0.00     0.020 A 
HETATM   19  C   UNL     1      29.551  43.031  53.393  1.00  0.00     0.038 A 
HETATM   20  C   UNL     1      29.113  43.875  54.416  1.00  0.00     0.069 A 
HETATM   21  C   UNL     1      27.998  44.692  54.203  1.00  0.00     0.038 A 
HETATM   22  C   UNL     1      27.320  44.668  52.983  1.00  0.00     0.020 A 
BRANCH  20  23
HETATM   23  O   UNL     1      29.675  43.993  55.657  1.00  0.00    -0.348 OA
BRANCH  23  24
HETATM   24  C   UNL     1      31.098  43.953  55.736  1.00  0.00     0.202 C 
BRANCH  24  25
HETATM   25  C   UNL     1      31.464  43.845  57.185  1.00  0.00    -0.011 C 
HETATM   26  C   UNL     1      31.119  44.731  58.128  1.00  0.00     0.009 C 
ENDBRANCH  24  25
ENDBRANCH  23  24
ENDBRANCH  20  23
ENDBRANCH  14  17
ENDBRANCH   2  13
BRANCH   1  27
HETATM   27  C   UNL     1      26.028  41.214  47.999  1.00  0.00    -0.009 A 
HETATM   28  C   UNL     1      27.399  40.875  48.130  1.00  0.00    -0.051 A 
HETATM   29  C   UNL     1      28.173  40.605  46.975  1.00  0.00     0.014 A 
HETATM   30  C   UNL     1      28.121  40.741  49.441  1.00  0.00     0.049 C 
HETATM   31  C   UNL     1      27.629  40.633  45.691  1.00  0.00    -0.061 A 
HETATM   32  C   UNL     1      28.464  40.289  44.495  1.00  0.00     0.048 C 
HETATM   33  C   UNL     1      26.276  40.908  45.555  1.00  0.00     0.007 A 
HETATM   34  C   UNL     1      25.497  41.185  46.682  1.00  0.00     0.012 A 
ENDBRANCH   1  27
TORSDOF 6
ENDMDL
