MODEL 1
REMARK VINA RESULT:     -10.6      0.000      0.000
REMARK  3 active torsions:
REMARK  status: ('A' for Active; 'I' for Inactive)
REMARK    1  A    between atoms: C_9  and  C_10 
REMARK       I    between atoms: C_10  and  N_11 
REMARK    2  A    between atoms: N_11  and  C_12 
REMARK    3  A    between atoms: C_19  and  C_20 
REMARK       I    between atoms: C_20  and  N_21 
ROOT
HETATM    1  C   UNL     1      26.055  47.426  50.776  1.00  0.00     0.035 A 
HETATM    2  C   UNL     1      24.819  47.726  50.187  1.00  0.00     0.046 A 
HETATM    3  C   UNL     1      24.754  48.656  49.131  1.00  0.00     0.030 A 
HETATM    4  C   UNL     1      25.931  49.232  48.673  1.00  0.00     0.063 A 
HETATM    5  N   UNL     1      25.549  50.072  47.664  1.00  0.00    -0.277 N 
HETATM    6  H   UNL     1      26.147  50.658  47.093  1.00  0.00     0.189 HD
HETATM    7  N   UNL     1      24.222  50.117  47.446  1.00  0.00    -0.168 NA
HETATM    8  C   UNL     1      23.717  49.247  48.350  1.00  0.00     0.156 A 
HETATM    9  C   UNL     1      27.183  48.939  49.219  1.00  0.00     0.034 A 
HETATM   10  C   UNL     1      27.219  48.034  50.291  1.00  0.00     0.032 A 
ENDROOT
BRANCH   1  11
HETATM   11  N   UNL     1      26.168  46.601  51.913  1.00  0.00    -0.325 N 
HETATM   12  C   UNL     1      25.915  46.979  53.223  1.00  0.00     0.252 C 
HETATM   13  O   UNL     1      25.231  47.937  53.572  1.00  0.00    -0.270 OA
HETATM   14  H   UNL     1      26.467  45.641  51.777  1.00  0.00     0.169 HD
BRANCH  12  15
HETATM   15  C   UNL     1      26.710  46.145  54.227  1.00  0.00     0.225 C 
HETATM   16  C   UNL     1      27.766  45.275  53.541  1.00  0.00     0.083 C 
HETATM   17  C   UNL     1      28.657  45.096  54.709  1.00  0.00    -0.021 A 
HETATM   18  C   UNL     1      28.390  46.088  55.638  1.00  0.00     0.076 A 
HETATM   19  C   UNL     1      29.644  44.155  54.929  1.00  0.00     0.017 A 
HETATM   20  C   UNL     1      29.102  46.191  56.813  1.00  0.00     0.044 A 
HETATM   21  O   UNL     1      27.357  46.917  55.264  1.00  0.00    -0.336 OA
HETATM   22  C   UNL     1      30.095  45.230  57.081  1.00  0.00    -0.053 A 
HETATM   23  C   UNL     1      30.372  44.210  56.127  1.00  0.00    -0.055 A 
HETATM   24  C   UNL     1      30.865  45.316  58.371  1.00  0.00     0.049 C 
HETATM   25  C   UNL     1      31.411  43.153  56.391  1.00  0.00     0.049 C 
ENDBRANCH  12  15
ENDBRANCH   1  11
BRANCH   8  26
HETATM   26  C   UNL     1      22.269  49.018  48.473  1.00  0.00     0.270 C 
HETATM   27  N   UNL     1      21.725  49.481  49.640  1.00  0.00    -0.365 N 
HETATM   28  H   UNL     1      22.336  49.914  50.324  1.00  0.00     0.159 HD
HETATM   29  H   UNL     1      20.745  49.334  49.824  1.00  0.00     0.159 HD
HETATM   30  O   UNL     1      21.578  48.447  47.637  1.00  0.00    -0.266 OA
ENDBRANCH   8  26
TORSDOF 3
ENDMDL
MODEL 2
REMARK VINA RESULT:     -10.3      2.079      2.662
REMARK  3 active torsions:
REMARK  status: ('A' for Active; 'I' for Inactive)
REMARK    1  A    between atoms: C_9  and  C_10 
REMARK       I    between atoms: C_10  and  N_11 
REMARK    2  A    between atoms: N_11  and  C_12 
REMARK    3  A    between atoms: C_19  and  C_20 
REMARK       I    between atoms: C_20  and  N_21 
ROOT
HETATM    1  C   UNL     1      24.934  45.944  50.866  1.00  0.00     0.035 A 
HETATM    2  C   UNL     1      24.652  47.168  50.243  1.00  0.00     0.046 A 
HETATM    3  C   UNL     1      23.661  47.232  49.243  1.00  0.00     0.030 A 
HETATM    4  C   UNL     1      22.959  46.080  48.921  1.00  0.00     0.063 A 
HETATM    5  N   UNL     1      22.085  46.456  47.939  1.00  0.00    -0.277 N 
HETATM    6  H   UNL     1      21.406  45.871  47.465  1.00  0.00     0.189 HD
HETATM    7  N   UNL     1      22.178  47.747  47.572  1.00  0.00    -0.168 NA
HETATM    8  C   UNL     1      23.154  48.239  48.369  1.00  0.00     0.156 A 
HETATM    9  C   UNL     1      23.196  44.848  49.538  1.00  0.00     0.034 A 
HETATM   10  C   UNL     1      24.209  44.801  50.507  1.00  0.00     0.032 A 
ENDROOT
BRANCH   1  11
HETATM   11  N   UNL     1      25.995  45.791  51.781  1.00  0.00    -0.325 N 
HETATM   12  C   UNL     1      26.981  44.818  51.731  1.00  0.00     0.252 C 
HETATM   13  O   UNL     1      27.305  44.178  50.734  1.00  0.00    -0.270 OA
HETATM   14  H   UNL     1      26.051  46.442  52.558  1.00  0.00     0.169 HD
BRANCH  12  15
HETATM   15  C   UNL     1      27.553  44.505  53.113  1.00  0.00     0.225 C 
HETATM   16  C   UNL     1      28.841  43.682  53.026  1.00  0.00     0.083 C 
HETATM   17  C   UNL     1      29.392  44.047  54.350  1.00  0.00    -0.021 A 
HETATM   18  C   UNL     1      28.781  45.210  54.789  1.00  0.00     0.076 A 
HETATM   19  C   UNL     1      30.374  43.427  55.098  1.00  0.00     0.017 A 
HETATM   20  C   UNL     1      29.129  45.805  55.981  1.00  0.00     0.044 A 
HETATM   21  O   UNL     1      27.808  45.669  53.931  1.00  0.00    -0.336 OA
HETATM   22  C   UNL     1      30.106  45.183  56.782  1.00  0.00    -0.053 A 
HETATM   23  C   UNL     1      30.738  43.989  56.332  1.00  0.00    -0.055 A 
HETATM   24  C   UNL     1      30.482  45.810  58.097  1.00  0.00     0.049 C 
HETATM   25  C   UNL     1      31.769  43.284  57.171  1.00  0.00     0.049 C 
ENDBRANCH  12  15
ENDBRANCH   1  11
BRANCH   8  26
HETATM   26  C   UNL     1      23.601  49.636  48.266  1.00  0.00     0.270 C 
HETATM   27  N   UNL     1      23.090  50.461  49.232  1.00  0.00    -0.365 N 
HETATM   28  H   UNL     1      22.446  50.073  49.912  1.00  0.00     0.159 HD
HETATM   29  H   UNL     1      23.315  51.443  49.216  1.00  0.00     0.159 HD
HETATM   30  O   UNL     1      24.347  50.070  47.395  1.00  0.00    -0.266 OA
ENDBRANCH   8  26
TORSDOF 3
ENDMDL
MODEL 3
REMARK VINA RESULT:      -9.9      3.738      4.276
REMARK  3 active torsions:
REMARK  status: ('A' for Active; 'I' for Inactive)
REMARK    1  A    between atoms: C_9  and  C_10 
REMARK       I    between atoms: C_10  and  N_11 
REMARK    2  A    between atoms: N_11  and  C_12 
REMARK    3  A    between atoms: C_19  and  C_20 
REMARK       I    between atoms: C_20  and  N_21 
ROOT
HETATM    1  C   UNL     1      24.665  43.305  51.008  1.00  0.00     0.035 A 
HETATM    2  C   UNL     1      23.607  44.034  50.448  1.00  0.00     0.046 A 
HETATM    3  C   UNL     1      22.981  43.569  49.274  1.00  0.00     0.030 A 
HETATM    4  C   UNL     1      23.407  42.372  48.718  1.00  0.00     0.063 A 
HETATM    5  N   UNL     1      22.622  42.191  47.613  1.00  0.00    -0.277 N 
HETATM    6  H   UNL     1      22.649  41.416  46.961  1.00  0.00     0.189 HD
HETATM    7  N   UNL     1      21.743  43.183  47.384  1.00  0.00    -0.168 NA
HETATM    8  C   UNL     1      21.957  44.046  48.403  1.00  0.00     0.156 A 
HETATM    9  C   UNL     1      24.441  41.606  49.263  1.00  0.00     0.034 A 
HETATM   10  C   UNL     1      25.072  42.106  50.412  1.00  0.00     0.032 A 
ENDROOT
BRANCH   1  11
HETATM   11  N   UNL     1      25.410  43.781  52.106  1.00  0.00    -0.325 N 
HETATM   12  C   UNL     1      26.724  44.221  52.070  1.00  0.00     0.252 C 
HETATM   13  O   UNL     1      27.325  44.602  51.068  1.00  0.00    -0.270 OA
HETATM   14  H   UNL     1      24.958  43.803  53.015  1.00  0.00     0.169 HD
BRANCH  12  15
HETATM   15  C   UNL     1      27.427  44.049  53.416  1.00  0.00     0.225 C 
HETATM   16  C   UNL     1      28.754  43.299  53.278  1.00  0.00     0.083 C 
HETATM   17  C   UNL     1      29.387  43.798  54.519  1.00  0.00    -0.021 A 
HETATM   18  C   UNL     1      28.740  44.953  54.925  1.00  0.00     0.076 A 
HETATM   19  C   UNL     1      30.465  43.295  55.222  1.00  0.00     0.017 A 
HETATM   20  C   UNL     1      29.146  45.659  56.036  1.00  0.00     0.044 A 
HETATM   21  O   UNL     1      27.673  45.287  54.122  1.00  0.00    -0.336 OA
HETATM   22  C   UNL     1      30.224  45.158  56.791  1.00  0.00    -0.053 A 
HETATM   23  C   UNL     1      30.892  43.972  56.376  1.00  0.00    -0.055 A 
HETATM   24  C   UNL     1      30.664  45.906  58.020  1.00  0.00     0.049 C 
HETATM   25  C   UNL     1      32.032  43.395  57.172  1.00  0.00     0.049 C 
ENDBRANCH  12  15
ENDBRANCH   1  11
BRANCH   8  26
HETATM   26  C   UNL     1      21.210  45.308  48.514  1.00  0.00     0.270 C 
HETATM   27  N   UNL     1      20.183  45.274  49.418  1.00  0.00    -0.365 N 
HETATM   28  H   UNL     1      19.999  44.409  49.913  1.00  0.00     0.159 HD
HETATM   29  H   UNL     1      19.595  46.085  49.532  1.00  0.00     0.159 HD
HETATM   30  O   UNL     1      21.442  46.317  47.859  1.00  0.00    -0.266 OA
ENDBRANCH   8  26
TORSDOF 3
ENDMDL
MODEL 4
REMARK VINA RESULT:      -9.4      3.046      9.378
REMARK  3 active torsions:
REMARK  status: ('A' for Active; 'I' for Inactive)
REMARK    1  A    between atoms: C_9  and  C_10 
REMARK       I    between atoms: C_10  and  N_11 
REMARK    2  A    between atoms: N_11  and  C_12 
REMARK    3  A    between atoms: C_19  and  C_20 
REMARK       I    between atoms: C_20  and  N_21 
ROOT
HETATM    1  C   UNL     1      25.779  46.314  51.900  1.00  0.00     0.035 A 
HETATM    2  C   UNL     1      26.558  45.150  51.953  1.00  0.00     0.046 A 
HETATM    3  C   UNL     1      27.290  44.849  53.119  1.00  0.00     0.030 A 
HETATM    4  C   UNL     1      27.193  45.703  54.208  1.00  0.00     0.063 A 
HETATM    5  N   UNL     1      27.999  45.153  55.166  1.00  0.00    -0.277 N 
HETATM    6  H   UNL     1      28.171  45.506  56.100  1.00  0.00     0.189 HD
HETATM    7  N   UNL     1      28.637  44.032  54.784  1.00  0.00    -0.168 NA
HETATM    8  C   UNL     1      28.210  43.834  53.516  1.00  0.00     0.156 A 
HETATM    9  C   UNL     1      26.408  46.859  54.201  1.00  0.00     0.034 A 
HETATM   10  C   UNL     1      25.715  47.155  53.017  1.00  0.00     0.032 A 
ENDROOT
BRANCH   1  11
HETATM   11  N   UNL     1      25.126  46.732  50.723  1.00  0.00    -0.325 N 
HETATM   12  C   UNL     1      25.514  47.781  49.903  1.00  0.00     0.252 C 
HETATM   13  O   UNL     1      26.639  48.272  49.853  1.00  0.00    -0.270 OA
HETATM   14  H   UNL     1      24.289  46.232  50.440  1.00  0.00     0.169 HD
BRANCH  12  15
HETATM   15  C   UNL     1      24.335  48.383  49.140  1.00  0.00     0.225 C 
HETATM   16  C   UNL     1      23.103  47.477  49.182  1.00  0.00     0.083 C 
HETATM   17  C   UNL     1      22.087  48.519  48.913  1.00  0.00    -0.021 A 
HETATM   18  C   UNL     1      22.629  49.762  49.198  1.00  0.00     0.076 A 
HETATM   19  C   UNL     1      20.782  48.388  48.481  1.00  0.00     0.017 A 
HETATM   20  C   UNL     1      21.891  50.918  49.076  1.00  0.00     0.044 A 
HETATM   21  O   UNL     1      23.948  49.703  49.587  1.00  0.00    -0.336 OA
HETATM   22  C   UNL     1      20.565  50.822  48.610  1.00  0.00    -0.053 A 
HETATM   23  C   UNL     1      20.006  49.546  48.318  1.00  0.00    -0.055 A 
HETATM   24  C   UNL     1      19.754  52.080  48.451  1.00  0.00     0.049 C 
HETATM   25  C   UNL     1      18.601  49.408  47.796  1.00  0.00     0.049 C 
ENDBRANCH  12  15
ENDBRANCH   1  11
BRANCH   8  26
HETATM   26  C   UNL     1      28.700  42.710  52.704  1.00  0.00     0.270 C 
HETATM   27  N   UNL     1      30.064  42.599  52.665  1.00  0.00    -0.365 N 
HETATM   28  H   UNL     1      30.622  43.286  53.160  1.00  0.00     0.159 HD
HETATM   29  H   UNL     1      30.488  41.878  52.103  1.00  0.00     0.159 HD
HETATM   30  O   UNL     1      27.985  41.931  52.084  1.00  0.00    -0.266 OA
ENDBRANCH   8  26
TORSDOF 3
ENDMDL
MODEL 5
REMARK VINA RESULT:      -9.3      3.198      9.440
REMARK  3 active torsions:
REMARK  status: ('A' for Active; 'I' for Inactive)
REMARK    1  A    between atoms: C_9  and  C_10 
REMARK       I    between atoms: C_10  and  N_11 
REMARK    2  A    between atoms: N_11  and  C_12 
REMARK    3  A    between atoms: C_19  and  C_20 
REMARK       I    between atoms: C_20  and  N_21 
ROOT
HETATM    1  C   UNL     1      28.136  44.520  53.624  1.00  0.00     0.035 A 
HETATM    2  C   UNL     1      28.541  45.126  54.821  1.00  0.00     0.046 A 
HETATM    3  C   UNL     1      29.631  44.595  55.540  1.00  0.00     0.030 A 
HETATM    4  C   UNL     1      30.303  43.497  55.022  1.00  0.00     0.063 A 
HETATM    5  N   UNL     1      31.291  43.223  55.927  1.00  0.00    -0.277 N 
HETATM    6  H   UNL     1      31.984  42.486  55.875  1.00  0.00     0.189 HD
HETATM    7  N   UNL     1      31.300  44.028  57.005  1.00  0.00    -0.168 NA
HETATM    8  C   UNL     1      30.275  44.880  56.780  1.00  0.00     0.156 A 
HETATM    9  C   UNL     1      29.942  42.883  53.820  1.00  0.00     0.034 A 
HETATM   10  C   UNL     1      28.834  43.408  53.139  1.00  0.00     0.032 A 
ENDROOT
BRANCH   1  11
HETATM   11  N   UNL     1      26.980  44.928  52.927  1.00  0.00    -0.325 N 
HETATM   12  C   UNL     1      26.851  45.030  51.551  1.00  0.00     0.252 C 
HETATM   13  O   UNL     1      27.558  44.463  50.722  1.00  0.00    -0.270 OA
HETATM   14  H   UNL     1      26.160  45.180  53.471  1.00  0.00     0.169 HD
BRANCH  12  15
HETATM   15  C   UNL     1      25.798  46.060  51.144  1.00  0.00     0.225 C 
HETATM   16  C   UNL     1      26.417  47.257  50.419  1.00  0.00     0.083 C 
HETATM   17  C   UNL     1      25.200  47.701  49.706  1.00  0.00    -0.021 A 
HETATM   18  C   UNL     1      24.294  46.655  49.661  1.00  0.00     0.076 A 
HETATM   19  C   UNL     1      24.919  48.918  49.115  1.00  0.00     0.017 A 
HETATM   20  C   UNL     1      23.081  46.773  49.019  1.00  0.00     0.044 A 
HETATM   21  O   UNL     1      24.731  45.531  50.325  1.00  0.00    -0.336 OA
HETATM   22  C   UNL     1      22.751  48.010  48.433  1.00  0.00    -0.053 A 
HETATM   23  C   UNL     1      23.681  49.087  48.475  1.00  0.00    -0.055 A 
HETATM   24  C   UNL     1      21.420  48.161  47.747  1.00  0.00     0.049 C 
HETATM   25  C   UNL     1      23.352  50.429  47.879  1.00  0.00     0.049 C 
ENDBRANCH  12  15
ENDBRANCH   1  11
BRANCH   8  26
HETATM   26  C   UNL     1      29.912  45.923  57.752  1.00  0.00     0.270 C 
HETATM   27  N   UNL     1      30.956  46.359  58.522  1.00  0.00    -0.365 N 
HETATM   28  H   UNL     1      31.867  45.935  58.391  1.00  0.00     0.159 HD
HETATM   29  H   UNL     1      30.790  47.047  59.240  1.00  0.00     0.159 HD
HETATM   30  O   UNL     1      28.782  46.373  57.906  1.00  0.00    -0.266 OA
ENDBRANCH   8  26
TORSDOF 3
ENDMDL
MODEL 6
REMARK VINA RESULT:      -9.3      2.328      2.572
REMARK  3 active torsions:
REMARK  status: ('A' for Active; 'I' for Inactive)
REMARK    1  A    between atoms: C_9  and  C_10 
REMARK       I    between atoms: C_10  and  N_11 
REMARK    2  A    between atoms: N_11  and  C_12 
REMARK    3  A    between atoms: C_19  and  C_20 
REMARK       I    between atoms: C_20  and  N_21 
ROOT
HETATM    1  C   UNL     1      25.595  45.921  50.893  1.00  0.00     0.035 A 
HETATM    2  C   UNL     1      24.485  45.408  50.209  1.00  0.00     0.046 A 
HETATM    3  C   UNL     1      23.717  46.255  49.385  1.00  0.00     0.030 A 
HETATM    4  C   UNL     1      24.104  47.580  49.243  1.00  0.00     0.063 A 
HETATM    5  N   UNL     1      23.182  48.133  48.398  1.00  0.00    -0.277 N 
HETATM    6  H   UNL     1      23.150  49.089  48.064  1.00  0.00     0.189 HD
HETATM    7  N   UNL     1      22.210  47.290  48.002  1.00  0.00    -0.168 NA
HETATM    8  C   UNL     1      22.527  46.124  48.609  1.00  0.00     0.156 A 
HETATM    9  C   UNL     1      25.218  48.121  49.890  1.00  0.00     0.034 A 
HETATM   10  C   UNL     1      25.948  47.266  50.730  1.00  0.00     0.032 A 
ENDROOT
BRANCH   1  11
HETATM   11  N   UNL     1      26.326  45.157  51.825  1.00  0.00    -0.325 N 
HETATM   12  C   UNL     1      25.789  44.337  52.806  1.00  0.00     0.252 C 
HETATM   13  O   UNL     1      24.655  43.866  52.804  1.00  0.00    -0.270 OA
HETATM   14  H   UNL     1      27.339  45.207  51.792  1.00  0.00     0.169 HD
BRANCH  12  15
HETATM   15  C   UNL     1      26.726  44.181  54.004  1.00  0.00     0.225 C 
HETATM   16  C   UNL     1      28.033  43.482  53.621  1.00  0.00     0.083 C 
HETATM   17  C   UNL     1      28.859  43.994  54.737  1.00  0.00    -0.021 A 
HETATM   18  C   UNL     1      28.254  45.121  55.268  1.00  0.00     0.076 A 
HETATM   19  C   UNL     1      30.062  43.526  55.229  1.00  0.00     0.017 A 
HETATM   20  C   UNL     1      28.826  45.832  56.300  1.00  0.00     0.044 A 
HETATM   21  O   UNL     1      27.050  45.421  54.673  1.00  0.00    -0.336 OA
HETATM   22  C   UNL     1      30.038  45.365  56.844  1.00  0.00    -0.053 A 
HETATM   23  C   UNL     1      30.663  44.208  56.299  1.00  0.00    -0.055 A 
HETATM   24  C   UNL     1      30.664  46.119  57.986  1.00  0.00     0.049 C 
HETATM   25  C   UNL     1      31.947  43.668  56.871  1.00  0.00     0.049 C 
ENDBRANCH  12  15
ENDBRANCH   1  11
BRANCH   8  26
HETATM   26  C   UNL     1      21.687  44.926  48.464  1.00  0.00     0.270 C 
HETATM   27  N   UNL     1      22.263  43.921  47.736  1.00  0.00    -0.365 N 
HETATM   28  H   UNL     1      23.185  44.073  47.343  1.00  0.00     0.159 HD
HETATM   29  H   UNL     1      21.743  43.077  47.556  1.00  0.00     0.159 HD
HETATM   30  O   UNL     1      20.556  44.806  48.922  1.00  0.00    -0.266 OA
ENDBRANCH   8  26
TORSDOF 3
ENDMDL
MODEL 7
REMARK VINA RESULT:      -9.2      3.033      9.632
REMARK  3 active torsions:
REMARK  status: ('A' for Active; 'I' for Inactive)
REMARK    1  A    between atoms: C_9  and  C_10 
REMARK       I    between atoms: C_10  and  N_11 
REMARK    2  A    between atoms: N_11  and  C_12 
REMARK    3  A    between atoms: C_19  and  C_20 
REMARK       I    between atoms: C_20  and  N_21 
ROOT
HETATM    1  C   UNL     1      24.690  46.783  50.461  1.00  0.00     0.035 A 
HETATM    2  C   UNL     1      25.299  47.168  51.663  1.00  0.00     0.046 A 
HETATM    3  C   UNL     1      25.852  46.190  52.513  1.00  0.00     0.030 A 
HETATM    4  C   UNL     1      25.812  44.861  52.118  1.00  0.00     0.063 A 
HETATM    5  N   UNL     1      26.418  44.169  53.130  1.00  0.00    -0.277 N 
HETATM    6  H   UNL     1      26.573  43.168  53.183  1.00  0.00     0.189 HD
HETATM    7  N   UNL     1      26.821  44.929  54.165  1.00  0.00    -0.168 NA
HETATM    8  C   UNL     1      26.473  46.184  53.797  1.00  0.00     0.156 A 
HETATM    9  C   UNL     1      25.236  44.442  50.916  1.00  0.00     0.034 A 
HETATM   10  C   UNL     1      24.662  45.430  50.102  1.00  0.00     0.032 A 
ENDROOT
BRANCH   1  11
HETATM   11  N   UNL     1      24.011  47.699  49.632  1.00  0.00    -0.325 N 
HETATM   12  C   UNL     1      24.495  48.925  49.204  1.00  0.00     0.252 C 
HETATM   13  O   UNL     1      25.677  49.254  49.165  1.00  0.00    -0.270 OA
HETATM   14  H   UNL     1      23.077  47.454  49.318  1.00  0.00     0.169 HD
BRANCH  12  15
HETATM   15  C   UNL     1      23.370  49.916  48.904  1.00  0.00     0.225 C 
HETATM   16  C   UNL     1      22.525  49.477  47.706  1.00  0.00     0.083 C 
HETATM   17  C   UNL     1      21.304  50.242  48.041  1.00  0.00    -0.021 A 
HETATM   18  C   UNL     1      21.334  50.576  49.385  1.00  0.00     0.076 A 
HETATM   19  C   UNL     1      20.235  50.593  47.239  1.00  0.00     0.017 A 
HETATM   20  C   UNL     1      20.299  51.259  49.985  1.00  0.00     0.044 A 
HETATM   21  O   UNL     1      22.487  50.170  50.019  1.00  0.00    -0.336 OA
HETATM   22  C   UNL     1      19.208  51.658  49.189  1.00  0.00    -0.053 A 
HETATM   23  C   UNL     1      19.174  51.315  47.808  1.00  0.00    -0.055 A 
HETATM   24  C   UNL     1      18.081  52.425  49.826  1.00  0.00     0.049 C 
HETATM   25  C   UNL     1      18.035  51.744  46.922  1.00  0.00     0.049 C 
ENDBRANCH  12  15
ENDBRANCH   1  11
BRANCH   8  26
HETATM   26  C   UNL     1      26.711  47.338  54.677  1.00  0.00     0.270 C 
HETATM   27  N   UNL     1      28.033  47.601  54.913  1.00  0.00    -0.365 N 
HETATM   28  H   UNL     1      28.731  46.993  54.500  1.00  0.00     0.159 HD
HETATM   29  H   UNL     1      28.287  48.352  55.535  1.00  0.00     0.159 HD
HETATM   30  O   UNL     1      25.830  48.017  55.192  1.00  0.00    -0.266 OA
ENDBRANCH   8  26
TORSDOF 3
ENDMDL
MODEL 8
REMARK VINA RESULT:      -9.0      2.224      3.740
REMARK  3 active torsions:
REMARK  status: ('A' for Active; 'I' for Inactive)
REMARK    1  A    between atoms: C_9  and  C_10 
REMARK       I    between atoms: C_10  and  N_11 
REMARK    2  A    between atoms: N_11  and  C_12 
REMARK    3  A    between atoms: C_19  and  C_20 
REMARK       I    between atoms: C_20  and  N_21 
ROOT
HETATM    1  C   UNL     1      23.832  48.764  49.128  1.00  0.00     0.035 A 
HETATM    2  C   UNL     1      22.519  48.290  49.250  1.00  0.00     0.046 A 
HETATM    3  C   UNL     1      21.439  49.121  48.893  1.00  0.00     0.030 A 
HETATM    4  C   UNL     1      21.705  50.387  48.392  1.00  0.00     0.063 A 
HETATM    5  N   UNL     1      20.479  50.938  48.141  1.00  0.00    -0.277 N 
HETATM    6  H   UNL     1      20.285  51.858  47.763  1.00  0.00     0.189 HD
HETATM    7  N   UNL     1      19.436  50.152  48.464  1.00  0.00    -0.168 NA
HETATM    8  C   UNL     1      20.016  49.024  48.935  1.00  0.00     0.156 A 
HETATM    9  C   UNL     1      23.002  50.885  48.234  1.00  0.00     0.034 A 
HETATM   10  C   UNL     1      24.060  50.051  48.627  1.00  0.00     0.032 A 
ENDROOT
BRANCH   1  11
HETATM   11  N   UNL     1      24.945  48.029  49.585  1.00  0.00    -0.325 N 
HETATM   12  C   UNL     1      24.910  46.762  50.147  1.00  0.00     0.252 C 
HETATM   13  O   UNL     1      24.001  45.946  50.018  1.00  0.00    -0.270 OA
HETATM   14  H   UNL     1      25.862  48.457  49.508  1.00  0.00     0.169 HD
BRANCH  12  15
HETATM   15  C   UNL     1      26.086  46.518  51.091  1.00  0.00     0.225 C 
HETATM   16  C   UNL     1      25.836  47.104  52.482  1.00  0.00     0.083 C 
HETATM   17  C   UNL     1      26.786  46.249  53.227  1.00  0.00    -0.021 A 
HETATM   18  C   UNL     1      27.067  45.122  52.472  1.00  0.00     0.076 A 
HETATM   19  C   UNL     1      27.338  46.429  54.480  1.00  0.00     0.017 A 
HETATM   20  C   UNL     1      27.897  44.127  52.939  1.00  0.00     0.044 A 
HETATM   21  O   UNL     1      26.452  45.127  51.241  1.00  0.00    -0.336 OA
HETATM   22  C   UNL     1      28.500  44.293  54.200  1.00  0.00    -0.053 A 
HETATM   23  C   UNL     1      28.212  45.449  54.979  1.00  0.00    -0.055 A 
HETATM   24  C   UNL     1      29.427  43.224  54.713  1.00  0.00     0.049 C 
HETATM   25  C   UNL     1      28.856  45.670  56.321  1.00  0.00     0.049 C 
ENDBRANCH  12  15
ENDBRANCH   1  11
BRANCH   8  26
HETATM   26  C   UNL     1      19.215  47.897  49.436  1.00  0.00     0.270 C 
HETATM   27  N   UNL     1      18.790  48.043  50.729  1.00  0.00    -0.365 N 
HETATM   28  H   UNL     1      19.065  48.874  51.241  1.00  0.00     0.159 HD
HETATM   29  H   UNL     1      18.265  47.302  51.166  1.00  0.00     0.159 HD
HETATM   30  O   UNL     1      18.946  46.889  48.793  1.00  0.00    -0.266 OA
ENDBRANCH   8  26
TORSDOF 3
ENDMDL
MODEL 9
REMARK VINA RESULT:      -8.9      2.840      9.307
REMARK  3 active torsions:
REMARK  status: ('A' for Active; 'I' for Inactive)
REMARK    1  A    between atoms: C_9  and  C_10 
REMARK       I    between atoms: C_10  and  N_11 
REMARK    2  A    between atoms: N_11  and  C_12 
REMARK    3  A    between atoms: C_19  and  C_20 
REMARK       I    between atoms: C_20  and  N_21 
ROOT
HETATM    1  C   UNL     1      25.908  46.578  52.963  1.00  0.00     0.035 A 
HETATM    2  C   UNL     1      26.788  45.506  53.165  1.00  0.00     0.046 A 
HETATM    3  C   UNL     1      27.647  45.508  54.282  1.00  0.00     0.030 A 
HETATM    4  C   UNL     1      27.575  46.563  55.181  1.00  0.00     0.063 A 
HETATM    5  N   UNL     1      28.511  46.283  56.137  1.00  0.00    -0.277 N 
HETATM    6  H   UNL     1      28.735  46.835  56.957  1.00  0.00     0.189 HD
HETATM    7  N   UNL     1      29.208  45.152  55.923  1.00  0.00    -0.168 NA
HETATM    8  C   UNL     1      28.686  44.663  54.775  1.00  0.00     0.156 A 
HETATM    9  C   UNL     1      26.693  47.636  55.024  1.00  0.00     0.034 A 
HETATM   10  C   UNL     1      25.871  47.629  53.887  1.00  0.00     0.032 A 
ENDROOT
BRANCH   1  11
HETATM   11  N   UNL     1      25.115  46.694  51.802  1.00  0.00    -0.325 N 
HETATM   12  C   UNL     1      25.582  46.743  50.498  1.00  0.00     0.252 C 
HETATM   13  O   UNL     1      26.679  46.345  50.115  1.00  0.00    -0.270 OA
HETATM   14  H   UNL     1      24.109  46.755  51.918  1.00  0.00     0.169 HD
BRANCH  12  15
HETATM   15  C   UNL     1      24.626  47.492  49.571  1.00  0.00     0.225 C 
HETATM   16  C   UNL     1      23.406  46.645  49.201  1.00  0.00     0.083 C 
HETATM   17  C   UNL     1      22.498  47.759  48.847  1.00  0.00    -0.021 A 
HETATM   18  C   UNL     1      22.974  48.928  49.417  1.00  0.00     0.076 A 
HETATM   19  C   UNL     1      21.330  47.744  48.110  1.00  0.00     0.017 A 
HETATM   20  C   UNL     1      22.302  50.123  49.285  1.00  0.00     0.044 A 
HETATM   21  O   UNL     1      24.162  48.759  50.090  1.00  0.00    -0.336 OA
HETATM   22  C   UNL     1      21.123  50.149  48.514  1.00  0.00    -0.053 A 
HETATM   23  C   UNL     1      20.631  48.948  47.930  1.00  0.00    -0.055 A 
HETATM   24  C   UNL     1      20.391  51.452  48.343  1.00  0.00     0.049 C 
HETATM   25  C   UNL     1      19.388  48.942  47.081  1.00  0.00     0.049 C 
ENDBRANCH  12  15
ENDBRANCH   1  11
BRANCH   8  26
HETATM   26  C   UNL     1      29.198  43.430  54.159  1.00  0.00     0.270 C 
HETATM   27  N   UNL     1      30.510  43.165  54.442  1.00  0.00    -0.365 N 
HETATM   28  H   UNL     1      31.027  43.823  55.016  1.00  0.00     0.159 HD
HETATM   29  H   UNL     1      30.954  42.358  54.032  1.00  0.00     0.159 HD
HETATM   30  O   UNL     1      28.545  42.688  53.434  1.00  0.00    -0.266 OA
ENDBRANCH   8  26
TORSDOF 3
ENDMDL
MODEL 10
REMARK VINA RESULT:      -8.7      5.276      5.983
REMARK  3 active torsions:
REMARK  status: ('A' for Active; 'I' for Inactive)
REMARK    1  A    between atoms: C_9  and  C_10 
REMARK       I    between atoms: C_10  and  N_11 
REMARK    2  A    between atoms: N_11  and  C_12 
REMARK    3  A    between atoms: C_19  and  C_20 
REMARK       I    between atoms: C_20  and  N_21 
ROOT
HETATM    1  C   UNL     1      25.964  41.186  50.282  1.00  0.00     0.035 A 
HETATM    2  C   UNL     1      25.080  41.674  49.309  1.00  0.00     0.046 A 
HETATM    3  C   UNL     1      24.936  40.988  48.087  1.00  0.00     0.030 A 
HETATM    4  C   UNL     1      25.654  39.817  47.889  1.00  0.00     0.063 A 
HETATM    5  N   UNL     1      25.307  39.393  46.636  1.00  0.00    -0.277 N 
HETATM    6  H   UNL     1      25.636  38.563  46.155  1.00  0.00     0.189 HD
HETATM    7  N   UNL     1      24.450  40.203  45.988  1.00  0.00    -0.168 NA
HETATM    8  C   UNL     1      24.215  41.198  46.875  1.00  0.00     0.156 A 
HETATM    9  C   UNL     1      26.525  39.288  48.844  1.00  0.00     0.034 A 
HETATM   10  C   UNL     1      26.677  40.006  50.040  1.00  0.00     0.032 A 
ENDROOT
BRANCH   1  11
HETATM   11  N   UNL     1      26.243  41.893  51.469  1.00  0.00    -0.325 N 
HETATM   12  C   UNL     1      27.093  42.982  51.589  1.00  0.00     0.252 C 
HETATM   13  O   UNL     1      27.449  43.717  50.671  1.00  0.00    -0.270 OA
HETATM   14  H   UNL     1      25.793  41.583  52.325  1.00  0.00     0.169 HD
BRANCH  12  15
HETATM   15  C   UNL     1      27.678  43.105  52.995  1.00  0.00     0.225 C 
HETATM   16  C   UNL     1      29.069  42.475  53.094  1.00  0.00     0.083 C 
HETATM   17  C   UNL     1      29.540  43.230  54.276  1.00  0.00    -0.021 A 
HETATM   18  C   UNL     1      28.765  44.368  54.423  1.00  0.00     0.076 A 
HETATM   19  C   UNL     1      30.586  42.958  55.137  1.00  0.00     0.017 A 
HETATM   20  C   UNL     1      29.005  45.284  55.423  1.00  0.00     0.044 A 
HETATM   21  O   UNL     1      27.753  44.460  53.494  1.00  0.00    -0.336 OA
HETATM   22  C   UNL     1      30.045  45.022  56.336  1.00  0.00    -0.053 A 
HETATM   23  C   UNL     1      30.845  43.854  56.186  1.00  0.00    -0.055 A 
HETATM   24  C   UNL     1      30.305  46.003  57.447  1.00  0.00     0.049 C 
HETATM   25  C   UNL     1      31.949  43.531  57.156  1.00  0.00     0.049 C 
ENDBRANCH  12  15
ENDBRANCH   1  11
BRANCH   8  26
HETATM   26  C   UNL     1      23.338  42.332  46.545  1.00  0.00     0.270 C 
HETATM   27  N   UNL     1      22.190  42.388  47.288  1.00  0.00    -0.365 N 
HETATM   28  H   UNL     1      22.018  41.660  47.972  1.00  0.00     0.159 HD
HETATM   29  H   UNL     1      21.514  43.112  47.104  1.00  0.00     0.159 HD
HETATM   30  O   UNL     1      23.569  43.164  45.675  1.00  0.00    -0.266 OA
ENDBRANCH   8  26
TORSDOF 3
ENDMDL
