MODEL 1
REMARK VINA RESULT:      -9.3      0.000      0.000
REMARK  8 active torsions:
REMARK  status: ('A' for Active; 'I' for Inactive)
REMARK    1  A    between atoms: C_4  and  C_5 
REMARK    2  A    between atoms: C_5  and  N_6 
REMARK       I    between atoms: N_6  and  C_7 
REMARK    3  A    between atoms: C_7  and  C_8 
REMARK    4  A    between atoms: C_11  and  C_12 
REMARK    5  A    between atoms: C_12  and  O_13 
REMARK    6  A    between atoms: O_13  and  C_14 
REMARK    7  A    between atoms: C_25  and  C_26 
REMARK    8  A    between atoms: C_26  and  O_27 
ROOT
HETATM    1  N   UNL     1      24.491  48.305  49.505  1.00  0.00    -0.351 N 
HETATM    2  C   UNL     1      25.802  47.919  49.633  1.00  0.00     0.251 C 
HETATM    3  O   UNL     1      26.697  48.355  48.914  1.00  0.00    -0.268 OA
HETATM    4  H   UNL     1      23.737  47.835  49.992  1.00  0.00     0.163 HD
ENDROOT
BRANCH   2   5
HETATM    5  C   UNL     1      26.099  46.893  50.670  1.00  0.00     0.032 A 
HETATM    6  C   UNL     1      26.645  45.673  50.255  1.00  0.00     0.017 A 
HETATM    7  C   UNL     1      26.915  44.667  51.186  1.00  0.00     0.010 A 
HETATM    8  C   UNL     1      26.644  44.867  52.546  1.00  0.00    -0.034 A 
HETATM    9  C   UNL     1      26.139  46.107  52.963  1.00  0.00     0.010 A 
HETATM   10  C   UNL     1      25.865  47.114  52.032  1.00  0.00     0.017 A 
BRANCH   8  11
HETATM   11  C   UNL     1      26.923  43.772  53.547  1.00  0.00     0.214 C 
BRANCH  11  12
HETATM   12  O   UNL     1      28.304  43.435  53.480  1.00  0.00    -0.347 OA
BRANCH  12  13
HETATM   13  C   UNL     1      29.099  43.876  54.503  1.00  0.00     0.069 A 
HETATM   14  C   UNL     1      28.982  45.097  55.169  1.00  0.00     0.037 A 
HETATM   15  C   UNL     1      29.867  45.422  56.202  1.00  0.00     0.003 A 
HETATM   16  C   UNL     1      30.870  44.528  56.576  1.00  0.00     0.000 A 
HETATM   17  C   UNL     1      30.991  43.309  55.914  1.00  0.00     0.003 A 
HETATM   18  C   UNL     1      30.109  42.986  54.882  1.00  0.00     0.037 A 
ENDBRANCH  12  13
ENDBRANCH  11  12
ENDBRANCH   8  11
ENDBRANCH   2   5
BRANCH   1  19
HETATM   19  C   UNL     1      24.076  49.209  48.455  1.00  0.00     0.182 C 
BRANCH  19  20
HETATM   20  C   UNL     1      22.645  49.669  48.632  1.00  0.00     0.052 A 
HETATM   21  N   UNL     1      21.696  48.729  48.898  1.00  0.00    -0.256 NA
HETATM   22  C   UNL     1      20.406  49.131  49.048  1.00  0.00     0.040 A 
HETATM   23  C   UNL     1      19.426  48.032  49.343  1.00  0.00     0.071 C 
HETATM   24  C   UNL     1      20.015  50.472  48.947  1.00  0.00    -0.006 A 
HETATM   25  C   UNL     1      21.016  51.415  48.664  1.00  0.00     0.014 A 
HETATM   26  C   UNL     1      22.338  51.016  48.506  1.00  0.00     0.029 A 
BRANCH  24  27
HETATM   27  C   UNL     1      18.581  50.925  49.104  1.00  0.00     0.149 C 
HETATM   28  C   UNL     1      18.389  52.382  48.700  1.00  0.00     0.044 C 
BRANCH  27  29
HETATM   29  O   UNL     1      18.163  50.774  50.462  1.00  0.00    -0.391 OA
HETATM   30  H   UNL     1      18.116  49.819  50.645  1.00  0.00     0.210 HD
ENDBRANCH  27  29
ENDBRANCH  24  27
ENDBRANCH  19  20
ENDBRANCH   1  19
TORSDOF 8
ENDMDL
MODEL 2
REMARK VINA RESULT:      -9.2      1.786      2.630
REMARK  8 active torsions:
REMARK  status: ('A' for Active; 'I' for Inactive)
REMARK    1  A    between atoms: C_4  and  C_5 
REMARK    2  A    between atoms: C_5  and  N_6 
REMARK       I    between atoms: N_6  and  C_7 
REMARK    3  A    between atoms: C_7  and  C_8 
REMARK    4  A    between atoms: C_11  and  C_12 
REMARK    5  A    between atoms: C_12  and  O_13 
REMARK    6  A    between atoms: O_13  and  C_14 
REMARK    7  A    between atoms: C_25  and  C_26 
REMARK    8  A    between atoms: C_26  and  O_27 
ROOT
HETATM    1  N   UNL     1      23.924  46.129  50.122  1.00  0.00    -0.351 N 
HETATM    2  C   UNL     1      25.271  45.875  50.210  1.00  0.00     0.251 C 
HETATM    3  O   UNL     1      25.963  45.609  49.232  1.00  0.00    -0.268 OA
HETATM    4  H   UNL     1      23.331  46.197  50.941  1.00  0.00     0.163 HD
ENDROOT
BRANCH   2   5
HETATM    5  C   UNL     1      25.866  45.889  51.575  1.00  0.00     0.032 A 
HETATM    6  C   UNL     1      25.997  47.121  52.226  1.00  0.00     0.017 A 
HETATM    7  C   UNL     1      26.575  47.190  53.497  1.00  0.00     0.010 A 
HETATM    8  C   UNL     1      27.029  46.027  54.134  1.00  0.00    -0.034 A 
HETATM    9  C   UNL     1      26.855  44.791  53.497  1.00  0.00     0.010 A 
HETATM   10  C   UNL     1      26.280  44.719  52.224  1.00  0.00     0.017 A 
BRANCH   8  11
HETATM   11  C   UNL     1      27.668  46.107  55.500  1.00  0.00     0.214 C 
BRANCH  11  12
HETATM   12  O   UNL     1      29.074  46.260  55.336  1.00  0.00    -0.347 OA
BRANCH  12  13
HETATM   13  C   UNL     1      29.875  45.408  56.046  1.00  0.00     0.069 A 
HETATM   14  C   UNL     1      30.364  45.620  57.336  1.00  0.00     0.037 A 
HETATM   15  C   UNL     1      31.177  44.660  57.947  1.00  0.00     0.003 A 
HETATM   16  C   UNL     1      31.505  43.485  57.273  1.00  0.00     0.000 A 
HETATM   17  C   UNL     1      31.021  43.269  55.985  1.00  0.00     0.003 A 
HETATM   18  C   UNL     1      30.209  44.228  55.376  1.00  0.00     0.037 A 
ENDBRANCH  12  13
ENDBRANCH  11  12
ENDBRANCH   8  11
ENDBRANCH   2   5
BRANCH   1  19
HETATM   19  C   UNL     1      23.225  46.028  48.861  1.00  0.00     0.182 C 
BRANCH  19  20
HETATM   20  C   UNL     1      22.451  47.287  48.536  1.00  0.00     0.052 A 
HETATM   21  N   UNL     1      23.150  48.440  48.342  1.00  0.00    -0.256 NA
HETATM   22  C   UNL     1      22.462  49.578  48.060  1.00  0.00     0.040 A 
HETATM   23  C   UNL     1      23.310  50.801  47.859  1.00  0.00     0.071 C 
HETATM   24  C   UNL     1      21.067  49.612  47.955  1.00  0.00    -0.006 A 
HETATM   25  C   UNL     1      20.375  48.409  48.169  1.00  0.00     0.014 A 
HETATM   26  C   UNL     1      21.067  47.239  48.459  1.00  0.00     0.029 A 
BRANCH  24  27
HETATM   27  C   UNL     1      20.295  50.877  47.651  1.00  0.00     0.149 C 
HETATM   28  C   UNL     1      19.897  51.629  48.915  1.00  0.00     0.044 C 
BRANCH  27  29
HETATM   29  O   UNL     1      19.109  50.565  46.919  1.00  0.00    -0.391 OA
HETATM   30  H   UNL     1      18.541  50.030  47.501  1.00  0.00     0.210 HD
ENDBRANCH  27  29
ENDBRANCH  24  27
ENDBRANCH  19  20
ENDBRANCH   1  19
TORSDOF 8
ENDMDL
MODEL 3
REMARK VINA RESULT:      -9.1      0.895      1.564
REMARK  8 active torsions:
REMARK  status: ('A' for Active; 'I' for Inactive)
REMARK    1  A    between atoms: C_4  and  C_5 
REMARK    2  A    between atoms: C_5  and  N_6 
REMARK       I    between atoms: N_6  and  C_7 
REMARK    3  A    between atoms: C_7  and  C_8 
REMARK    4  A    between atoms: C_11  and  C_12 
REMARK    5  A    between atoms: C_12  and  O_13 
REMARK    6  A    between atoms: O_13  and  C_14 
REMARK    7  A    between atoms: C_25  and  C_26 
REMARK    8  A    between atoms: C_26  and  O_27 
ROOT
HETATM    1  N   UNL     1      23.844  48.329  49.171  1.00  0.00    -0.351 N 
HETATM    2  C   UNL     1      25.192  48.269  49.426  1.00  0.00     0.251 C 
HETATM    3  O   UNL     1      25.991  49.084  48.974  1.00  0.00    -0.268 OA
HETATM    4  H   UNL     1      23.212  47.576  49.415  1.00  0.00     0.163 HD
ENDROOT
BRANCH   2   5
HETATM    5  C   UNL     1      25.666  47.124  50.252  1.00  0.00     0.032 A 
HETATM    6  C   UNL     1      25.361  47.124  51.618  1.00  0.00     0.017 A 
HETATM    7  C   UNL     1      25.807  46.087  52.441  1.00  0.00     0.010 A 
HETATM    8  C   UNL     1      26.564  45.034  51.908  1.00  0.00    -0.034 A 
HETATM    9  C   UNL     1      26.828  45.015  50.532  1.00  0.00     0.010 A 
HETATM   10  C   UNL     1      26.385  46.054  49.707  1.00  0.00     0.017 A 
BRANCH   8  11
HETATM   11  C   UNL     1      27.058  43.922  52.803  1.00  0.00     0.214 C 
BRANCH  11  12
HETATM   12  O   UNL     1      27.219  44.437  54.121  1.00  0.00    -0.347 OA
BRANCH  12  13
HETATM   13  C   UNL     1      28.461  44.317  54.684  1.00  0.00     0.069 A 
HETATM   14  C   UNL     1      29.352  43.259  54.494  1.00  0.00     0.037 A 
HETATM   15  C   UNL     1      30.595  43.264  55.134  1.00  0.00     0.003 A 
HETATM   16  C   UNL     1      30.954  44.325  55.964  1.00  0.00     0.000 A 
HETATM   17  C   UNL     1      30.068  45.383  56.158  1.00  0.00     0.003 A 
HETATM   18  C   UNL     1      28.827  45.376  55.519  1.00  0.00     0.037 A 
ENDBRANCH  12  13
ENDBRANCH  11  12
ENDBRANCH   8  11
ENDBRANCH   2   5
BRANCH   1  19
HETATM   19  C   UNL     1      23.294  49.332  48.287  1.00  0.00     0.182 C 
BRANCH  19  20
HETATM   20  C   UNL     1      21.910  49.772  48.715  1.00  0.00     0.052 A 
HETATM   21  N   UNL     1      21.071  48.835  49.238  1.00  0.00    -0.256 NA
HETATM   22  C   UNL     1      19.824  49.220  49.617  1.00  0.00     0.040 A 
HETATM   23  C   UNL     1      18.966  48.126  50.185  1.00  0.00     0.071 C 
HETATM   24  C   UNL     1      19.369  50.538  49.496  1.00  0.00    -0.006 A 
HETATM   25  C   UNL     1      20.255  51.478  48.946  1.00  0.00     0.014 A 
HETATM   26  C   UNL     1      21.533  51.097  48.554  1.00  0.00     0.029 A 
BRANCH  24  27
HETATM   27  C   UNL     1      17.978  50.970  49.907  1.00  0.00     0.149 C 
HETATM   28  C   UNL     1      16.974  50.843  48.768  1.00  0.00     0.044 C 
BRANCH  27  29
HETATM   29  O   UNL     1      17.995  52.330  50.345  1.00  0.00    -0.391 OA
HETATM   30  H   UNL     1      18.384  52.860  49.627  1.00  0.00     0.210 HD
ENDBRANCH  27  29
ENDBRANCH  24  27
ENDBRANCH  19  20
ENDBRANCH   1  19
TORSDOF 8
ENDMDL
MODEL 4
REMARK VINA RESULT:      -9.0      1.569      2.178
REMARK  8 active torsions:
REMARK  status: ('A' for Active; 'I' for Inactive)
REMARK    1  A    between atoms: C_4  and  C_5 
REMARK    2  A    between atoms: C_5  and  N_6 
REMARK       I    between atoms: N_6  and  C_7 
REMARK    3  A    between atoms: C_7  and  C_8 
REMARK    4  A    between atoms: C_11  and  C_12 
REMARK    5  A    between atoms: C_12  and  O_13 
REMARK    6  A    between atoms: O_13  and  C_14 
REMARK    7  A    between atoms: C_25  and  C_26 
REMARK    8  A    between atoms: C_26  and  O_27 
ROOT
HETATM    1  N   UNL     1      23.716  46.842  49.842  1.00  0.00    -0.351 N 
HETATM    2  C   UNL     1      24.560  45.782  50.065  1.00  0.00     0.251 C 
HETATM    3  O   UNL     1      24.696  44.861  49.266  1.00  0.00    -0.268 OA
HETATM    4  H   UNL     1      23.491  47.517  50.563  1.00  0.00     0.163 HD
ENDROOT
BRANCH   2   5
HETATM    5  C   UNL     1      25.285  45.767  51.366  1.00  0.00     0.032 A 
HETATM    6  C   UNL     1      25.601  46.994  51.960  1.00  0.00     0.017 A 
HETATM    7  C   UNL     1      26.305  47.033  53.166  1.00  0.00     0.010 A 
HETATM    8  C   UNL     1      26.703  45.845  53.795  1.00  0.00    -0.034 A 
HETATM    9  C   UNL     1      26.345  44.618  53.219  1.00  0.00     0.010 A 
HETATM   10  C   UNL     1      25.643  44.577  52.010  1.00  0.00     0.017 A 
BRANCH   8  11
HETATM   11  C   UNL     1      27.478  45.892  55.090  1.00  0.00     0.214 C 
BRANCH  11  12
HETATM   12  O   UNL     1      28.861  45.719  54.799  1.00  0.00    -0.347 OA
BRANCH  12  13
HETATM   13  C   UNL     1      29.653  45.254  55.814  1.00  0.00     0.069 A 
HETATM   14  C   UNL     1      30.537  44.176  55.739  1.00  0.00     0.037 A 
HETATM   15  C   UNL     1      31.290  43.806  56.858  1.00  0.00     0.003 A 
HETATM   16  C   UNL     1      31.163  44.510  58.054  1.00  0.00     0.000 A 
HETATM   17  C   UNL     1      30.281  45.585  58.134  1.00  0.00     0.003 A 
HETATM   18  C   UNL     1      29.530  45.954  57.017  1.00  0.00     0.037 A 
ENDBRANCH  12  13
ENDBRANCH  11  12
ENDBRANCH   8  11
ENDBRANCH   2   5
BRANCH   1  19
HETATM   19  C   UNL     1      22.878  46.897  48.664  1.00  0.00     0.182 C 
BRANCH  19  20
HETATM   20  C   UNL     1      21.786  47.937  48.790  1.00  0.00     0.052 A 
HETATM   21  N   UNL     1      20.506  47.562  48.515  1.00  0.00    -0.256 NA
HETATM   22  C   UNL     1      19.520  48.492  48.616  1.00  0.00     0.040 A 
HETATM   23  C   UNL     1      18.139  47.993  48.299  1.00  0.00     0.071 C 
HETATM   24  C   UNL     1      19.766  49.817  48.996  1.00  0.00    -0.006 A 
HETATM   25  C   UNL     1      21.097  50.173  49.265  1.00  0.00     0.014 A 
HETATM   26  C   UNL     1      22.114  49.232  49.164  1.00  0.00     0.029 A 
BRANCH  24  27
HETATM   27  C   UNL     1      18.674  50.859  49.102  1.00  0.00     0.149 C 
HETATM   28  C   UNL     1      19.166  52.250  48.721  1.00  0.00     0.044 C 
BRANCH  27  29
HETATM   29  O   UNL     1      18.168  50.908  50.437  1.00  0.00    -0.391 OA
HETATM   30  H   UNL     1      17.476  50.226  50.509  1.00  0.00     0.210 HD
ENDBRANCH  27  29
ENDBRANCH  24  27
ENDBRANCH  19  20
ENDBRANCH   1  19
TORSDOF 8
ENDMDL
MODEL 5
REMARK VINA RESULT:      -8.7      1.759     10.450
REMARK  8 active torsions:
REMARK  status: ('A' for Active; 'I' for Inactive)
REMARK    1  A    between atoms: C_4  and  C_5 
REMARK    2  A    between atoms: C_5  and  N_6 
REMARK       I    between atoms: N_6  and  C_7 
REMARK    3  A    between atoms: C_7  and  C_8 
REMARK    4  A    between atoms: C_11  and  C_12 
REMARK    5  A    between atoms: C_12  and  O_13 
REMARK    6  A    between atoms: O_13  and  C_14 
REMARK    7  A    between atoms: C_25  and  C_26 
REMARK    8  A    between atoms: C_26  and  O_27 
ROOT
HETATM    1  N   UNL     1      24.518  48.767  49.305  1.00  0.00    -0.351 N 
HETATM    2  C   UNL     1      24.067  49.670  48.374  1.00  0.00     0.251 C 
HETATM    3  O   UNL     1      24.754  50.051  47.431  1.00  0.00    -0.268 OA
HETATM    4  H   UNL     1      24.011  48.572  50.161  1.00  0.00     0.163 HD
ENDROOT
BRANCH   2   5
HETATM    5  C   UNL     1      22.699  50.220  48.583  1.00  0.00     0.032 A 
HETATM    6  C   UNL     1      21.834  50.271  47.485  1.00  0.00     0.017 A 
HETATM    7  C   UNL     1      20.549  50.804  47.622  1.00  0.00     0.010 A 
HETATM    8  C   UNL     1      20.112  51.292  48.861  1.00  0.00    -0.034 A 
HETATM    9  C   UNL     1      20.967  51.197  49.969  1.00  0.00     0.010 A 
HETATM   10  C   UNL     1      22.254  50.667  49.832  1.00  0.00     0.017 A 
BRANCH   8  11
HETATM   11  C   UNL     1      18.730  51.882  49.003  1.00  0.00     0.214 C 
BRANCH  11  12
HETATM   12  O   UNL     1      17.950  51.020  49.827  1.00  0.00    -0.347 OA
BRANCH  12  13
HETATM   13  C   UNL     1      17.404  49.918  49.226  1.00  0.00     0.069 A 
HETATM   14  C   UNL     1      17.829  48.598  49.387  1.00  0.00     0.037 A 
HETATM   15  C   UNL     1      17.177  47.562  48.710  1.00  0.00     0.003 A 
HETATM   16  C   UNL     1      16.099  47.840  47.871  1.00  0.00     0.000 A 
HETATM   17  C   UNL     1      15.672  49.156  47.706  1.00  0.00     0.003 A 
HETATM   18  C   UNL     1      16.324  50.189  48.382  1.00  0.00     0.037 A 
ENDBRANCH  12  13
ENDBRANCH  11  12
ENDBRANCH   8  11
ENDBRANCH   2   5
BRANCH   1  19
HETATM   19  C   UNL     1      25.871  48.259  49.262  1.00  0.00     0.182 C 
BRANCH  19  20
HETATM   20  C   UNL     1      26.111  47.186  50.301  1.00  0.00     0.052 A 
HETATM   21  N   UNL     1      25.936  47.511  51.612  1.00  0.00    -0.256 NA
HETATM   22  C   UNL     1      26.159  46.555  52.553  1.00  0.00     0.040 A 
HETATM   23  C   UNL     1      25.941  46.996  53.972  1.00  0.00     0.071 C 
HETATM   24  C   UNL     1      26.554  45.252  52.230  1.00  0.00    -0.006 A 
HETATM   25  C   UNL     1      26.733  44.952  50.870  1.00  0.00     0.014 A 
HETATM   26  C   UNL     1      26.509  45.920  49.898  1.00  0.00     0.029 A 
BRANCH  24  27
HETATM   27  C   UNL     1      26.812  44.187  53.273  1.00  0.00     0.149 C 
HETATM   28  C   UNL     1      28.280  44.116  53.674  1.00  0.00     0.044 C 
BRANCH  27  29
HETATM   29  O   UNL     1      26.416  42.907  52.777  1.00  0.00    -0.391 OA
HETATM   30  H   UNL     1      25.600  42.655  53.244  1.00  0.00     0.210 HD
ENDBRANCH  27  29
ENDBRANCH  24  27
ENDBRANCH  19  20
ENDBRANCH   1  19
TORSDOF 8
ENDMDL
MODEL 6
REMARK VINA RESULT:      -8.4      1.722      2.280
REMARK  8 active torsions:
REMARK  status: ('A' for Active; 'I' for Inactive)
REMARK    1  A    between atoms: C_4  and  C_5 
REMARK    2  A    between atoms: C_5  and  N_6 
REMARK       I    between atoms: N_6  and  C_7 
REMARK    3  A    between atoms: C_7  and  C_8 
REMARK    4  A    between atoms: C_11  and  C_12 
REMARK    5  A    between atoms: C_12  and  O_13 
REMARK    6  A    between atoms: O_13  and  C_14 
REMARK    7  A    between atoms: C_25  and  C_26 
REMARK    8  A    between atoms: C_26  and  O_27 
ROOT
HETATM    1  N   UNL     1      23.101  47.860  49.799  1.00  0.00    -0.351 N 
HETATM    2  C   UNL     1      24.460  47.749  49.964  1.00  0.00     0.251 C 
HETATM    3  O   UNL     1      25.266  48.369  49.277  1.00  0.00    -0.268 OA
HETATM    4  H   UNL     1      22.447  47.238  50.258  1.00  0.00     0.163 HD
ENDROOT
BRANCH   2   5
HETATM    5  C   UNL     1      24.932  46.789  51.000  1.00  0.00     0.032 A 
HETATM    6  C   UNL     1      25.775  47.268  52.009  1.00  0.00     0.017 A 
HETATM    7  C   UNL     1      26.267  46.402  52.989  1.00  0.00     0.010 A 
HETATM    8  C   UNL     1      25.921  45.043  52.973  1.00  0.00    -0.034 A 
HETATM    9  C   UNL     1      25.041  44.577  51.987  1.00  0.00     0.010 A 
HETATM   10  C   UNL     1      24.549  45.442  51.004  1.00  0.00     0.017 A 
BRANCH   8  11
HETATM   11  C   UNL     1      26.467  44.107  54.024  1.00  0.00     0.214 C 
BRANCH  11  12
HETATM   12  O   UNL     1      27.791  43.732  53.656  1.00  0.00    -0.347 OA
BRANCH  12  13
HETATM   13  C   UNL     1      28.789  44.035  54.543  1.00  0.00     0.069 A 
HETATM   14  C   UNL     1      28.907  45.217  55.275  1.00  0.00     0.037 A 
HETATM   15  C   UNL     1      29.983  45.396  56.151  1.00  0.00     0.003 A 
HETATM   16  C   UNL     1      30.943  44.395  56.299  1.00  0.00     0.000 A 
HETATM   17  C   UNL     1      30.829  43.215  55.570  1.00  0.00     0.003 A 
HETATM   18  C   UNL     1      29.756  43.037  54.695  1.00  0.00     0.037 A 
ENDBRANCH  12  13
ENDBRANCH  11  12
ENDBRANCH   8  11
ENDBRANCH   2   5
BRANCH   1  19
HETATM   19  C   UNL     1      22.540  48.675  48.745  1.00  0.00     0.182 C 
BRANCH  19  20
HETATM   20  C   UNL     1      21.055  48.437  48.570  1.00  0.00     0.052 A 
HETATM   21  N   UNL     1      20.638  47.769  47.460  1.00  0.00    -0.256 NA
HETATM   22  C   UNL     1      19.305  47.560  47.290  1.00  0.00     0.040 A 
HETATM   23  C   UNL     1      18.932  46.812  46.042  1.00  0.00     0.071 C 
HETATM   24  C   UNL     1      18.347  47.998  48.212  1.00  0.00    -0.006 A 
HETATM   25  C   UNL     1      18.810  48.691  49.341  1.00  0.00     0.014 A 
HETATM   26  C   UNL     1      20.169  48.912  49.526  1.00  0.00     0.029 A 
BRANCH  24  27
HETATM   27  C   UNL     1      16.863  47.776  48.024  1.00  0.00     0.149 C 
HETATM   28  C   UNL     1      16.099  49.086  47.867  1.00  0.00     0.044 C 
BRANCH  27  29
HETATM   29  O   UNL     1      16.325  47.071  49.145  1.00  0.00    -0.391 OA
HETATM   30  H   UNL     1      15.473  46.692  48.866  1.00  0.00     0.210 HD
ENDBRANCH  27  29
ENDBRANCH  24  27
ENDBRANCH  19  20
ENDBRANCH   1  19
TORSDOF 8
ENDMDL
MODEL 7
REMARK VINA RESULT:      -8.3      1.869      2.919
REMARK  8 active torsions:
REMARK  status: ('A' for Active; 'I' for Inactive)
REMARK    1  A    between atoms: C_4  and  C_5 
REMARK    2  A    between atoms: C_5  and  N_6 
REMARK       I    between atoms: N_6  and  C_7 
REMARK    3  A    between atoms: C_7  and  C_8 
REMARK    4  A    between atoms: C_11  and  C_12 
REMARK    5  A    between atoms: C_12  and  O_13 
REMARK    6  A    between atoms: O_13  and  C_14 
REMARK    7  A    between atoms: C_25  and  C_26 
REMARK    8  A    between atoms: C_26  and  O_27 
ROOT
HETATM    1  N   UNL     1      23.072  50.153  49.184  1.00  0.00    -0.351 N 
HETATM    2  C   UNL     1      24.158  49.592  48.559  1.00  0.00     0.251 C 
HETATM    3  O   UNL     1      24.614  50.022  47.504  1.00  0.00    -0.268 OA
HETATM    4  H   UNL     1      22.607  49.708  49.966  1.00  0.00     0.163 HD
ENDROOT
BRANCH   2   5
HETATM    5  C   UNL     1      24.747  48.382  49.199  1.00  0.00     0.032 A 
HETATM    6  C   UNL     1      26.138  48.316  49.330  1.00  0.00     0.017 A 
HETATM    7  C   UNL     1      26.741  47.190  49.898  1.00  0.00     0.010 A 
HETATM    8  C   UNL     1      25.960  46.116  50.344  1.00  0.00    -0.034 A 
HETATM    9  C   UNL     1      24.563  46.206  50.251  1.00  0.00     0.010 A 
HETATM   10  C   UNL     1      23.958  47.330  49.680  1.00  0.00     0.017 A 
BRANCH   8  11
HETATM   11  C   UNL     1      26.615  44.894  50.942  1.00  0.00     0.214 C 
BRANCH  11  12
HETATM   12  O   UNL     1      26.675  45.057  52.355  1.00  0.00    -0.347 OA
BRANCH  12  13
HETATM   13  C   UNL     1      27.748  44.500  52.997  1.00  0.00     0.069 A 
HETATM   14  C   UNL     1      28.156  44.768  54.304  1.00  0.00     0.037 A 
HETATM   15  C   UNL     1      29.277  44.123  54.837  1.00  0.00     0.003 A 
HETATM   16  C   UNL     1      29.993  43.208  54.068  1.00  0.00     0.000 A 
HETATM   17  C   UNL     1      29.591  42.937  52.762  1.00  0.00     0.003 A 
HETATM   18  C   UNL     1      28.473  43.582  52.230  1.00  0.00     0.037 A 
ENDBRANCH  12  13
ENDBRANCH  11  12
ENDBRANCH   8  11
ENDBRANCH   2   5
BRANCH   1  19
HETATM   19  C   UNL     1      22.355  51.259  48.589  1.00  0.00     0.182 C 
BRANCH  19  20
HETATM   20  C   UNL     1      20.880  50.960  48.427  1.00  0.00     0.052 A 
HETATM   21  N   UNL     1      19.988  51.754  49.083  1.00  0.00    -0.256 NA
HETATM   22  C   UNL     1      18.662  51.486  48.952  1.00  0.00     0.040 A 
HETATM   23  C   UNL     1      17.749  52.411  49.704  1.00  0.00     0.071 C 
HETATM   24  C   UNL     1      18.176  50.434  48.167  1.00  0.00    -0.006 A 
HETATM   25  C   UNL     1      19.122  49.630  47.511  1.00  0.00     0.014 A 
HETATM   26  C   UNL     1      20.481  49.892  47.638  1.00  0.00     0.029 A 
BRANCH  24  27
HETATM   27  C   UNL     1      16.702  50.125  48.025  1.00  0.00     0.149 C 
HETATM   28  C   UNL     1      16.409  48.636  48.154  1.00  0.00     0.044 C 
BRANCH  27  29
HETATM   29  O   UNL     1      16.227  50.570  46.753  1.00  0.00    -0.391 OA
HETATM   30  H   UNL     1      16.957  50.464  46.118  1.00  0.00     0.210 HD
ENDBRANCH  27  29
ENDBRANCH  24  27
ENDBRANCH  19  20
ENDBRANCH   1  19
TORSDOF 8
ENDMDL
MODEL 8
REMARK VINA RESULT:      -8.2      2.279      2.860
REMARK  8 active torsions:
REMARK  status: ('A' for Active; 'I' for Inactive)
REMARK    1  A    between atoms: C_4  and  C_5 
REMARK    2  A    between atoms: C_5  and  N_6 
REMARK       I    between atoms: N_6  and  C_7 
REMARK    3  A    between atoms: C_7  and  C_8 
REMARK    4  A    between atoms: C_11  and  C_12 
REMARK    5  A    between atoms: C_12  and  O_13 
REMARK    6  A    between atoms: O_13  and  C_14 
REMARK    7  A    between atoms: C_25  and  C_26 
REMARK    8  A    between atoms: C_26  and  O_27 
ROOT
HETATM    1  N   UNL     1      23.261  45.214  48.164  1.00  0.00    -0.351 N 
HETATM    2  C   UNL     1      23.241  44.289  49.179  1.00  0.00     0.251 C 
HETATM    3  O   UNL     1      22.227  43.677  49.500  1.00  0.00    -0.268 OA
HETATM    4  H   UNL     1      24.053  45.825  48.003  1.00  0.00     0.163 HD
ENDROOT
BRANCH   2   5
HETATM    5  C   UNL     1      24.514  44.086  49.924  1.00  0.00     0.032 A 
HETATM    6  C   UNL     1      25.549  45.007  49.726  1.00  0.00     0.017 A 
HETATM    7  C   UNL     1      26.773  44.845  50.381  1.00  0.00     0.010 A 
HETATM    8  C   UNL     1      26.978  43.760  51.244  1.00  0.00    -0.034 A 
HETATM    9  C   UNL     1      25.923  42.865  51.473  1.00  0.00     0.010 A 
HETATM   10  C   UNL     1      24.698  43.023  50.816  1.00  0.00     0.017 A 
BRANCH   8  11
HETATM   11  C   UNL     1      28.306  43.579  51.937  1.00  0.00     0.214 C 
BRANCH  11  12
HETATM   12  O   UNL     1      28.066  43.192  53.287  1.00  0.00    -0.347 OA
BRANCH  12  13
HETATM   13  C   UNL     1      28.932  43.674  54.231  1.00  0.00     0.069 A 
HETATM   14  C   UNL     1      30.045  43.005  54.745  1.00  0.00     0.037 A 
HETATM   15  C   UNL     1      30.849  43.617  55.711  1.00  0.00     0.003 A 
HETATM   16  C   UNL     1      30.546  44.899  56.168  1.00  0.00     0.000 A 
HETATM   17  C   UNL     1      29.436  45.570  55.659  1.00  0.00     0.003 A 
HETATM   18  C   UNL     1      28.634  44.958  54.695  1.00  0.00     0.037 A 
ENDBRANCH  12  13
ENDBRANCH  11  12
ENDBRANCH   8  11
ENDBRANCH   2   5
BRANCH   1  19
HETATM   19  C   UNL     1      22.053  45.571  47.453  1.00  0.00     0.182 C 
BRANCH  19  20
HETATM   20  C   UNL     1      21.295  46.687  48.142  1.00  0.00     0.052 A 
HETATM   21  N   UNL     1      19.942  46.577  48.242  1.00  0.00    -0.256 NA
HETATM   22  C   UNL     1      19.252  47.579  48.850  1.00  0.00     0.040 A 
HETATM   23  C   UNL     1      17.766  47.376  48.921  1.00  0.00     0.071 C 
HETATM   24  C   UNL     1      19.877  48.713  49.381  1.00  0.00    -0.006 A 
HETATM   25  C   UNL     1      21.272  48.799  49.253  1.00  0.00     0.014 A 
HETATM   26  C   UNL     1      21.988  47.783  48.633  1.00  0.00     0.029 A 
BRANCH  24  27
HETATM   27  C   UNL     1      19.115  49.835  50.050  1.00  0.00     0.149 C 
HETATM   28  C   UNL     1      19.809  51.182  49.888  1.00  0.00     0.044 C 
BRANCH  27  29
HETATM   29  O   UNL     1      18.969  49.567  51.446  1.00  0.00    -0.391 OA
HETATM   30  H   UNL     1      19.818  49.781  51.872  1.00  0.00     0.210 HD
ENDBRANCH  27  29
ENDBRANCH  24  27
ENDBRANCH  19  20
ENDBRANCH   1  19
TORSDOF 8
ENDMDL
MODEL 9
REMARK VINA RESULT:      -8.1      5.568      8.459
REMARK  8 active torsions:
REMARK  status: ('A' for Active; 'I' for Inactive)
REMARK    1  A    between atoms: C_4  and  C_5 
REMARK    2  A    between atoms: C_5  and  N_6 
REMARK       I    between atoms: N_6  and  C_7 
REMARK    3  A    between atoms: C_7  and  C_8 
REMARK    4  A    between atoms: C_11  and  C_12 
REMARK    5  A    between atoms: C_12  and  O_13 
REMARK    6  A    between atoms: O_13  and  C_14 
REMARK    7  A    between atoms: C_25  and  C_26 
REMARK    8  A    between atoms: C_26  and  O_27 
ROOT
HETATM    1  N   UNL     1      25.960  43.463  50.271  1.00  0.00    -0.351 N 
HETATM    2  C   UNL     1      25.224  43.589  51.424  1.00  0.00     0.251 C 
HETATM    3  O   UNL     1      24.079  43.162  51.531  1.00  0.00    -0.268 OA
HETATM    4  H   UNL     1      26.840  43.946  50.134  1.00  0.00     0.163 HD
ENDROOT
BRANCH   2   5
HETATM    5  C   UNL     1      25.866  44.321  52.551  1.00  0.00     0.032 A 
HETATM    6  C   UNL     1      26.163  45.677  52.373  1.00  0.00     0.017 A 
HETATM    7  C   UNL     1      26.791  46.402  53.390  1.00  0.00     0.010 A 
HETATM    8  C   UNL     1      27.130  45.779  54.599  1.00  0.00    -0.034 A 
HETATM    9  C   UNL     1      26.790  44.433  54.789  1.00  0.00     0.010 A 
HETATM   10  C   UNL     1      26.165  43.705  53.772  1.00  0.00     0.017 A 
BRANCH   8  11
HETATM   11  C   UNL     1      27.822  46.561  55.690  1.00  0.00     0.214 C 
BRANCH  11  12
HETATM   12  O   UNL     1      29.225  46.530  55.450  1.00  0.00    -0.347 OA
BRANCH  12  13
HETATM   13  C   UNL     1      29.960  45.644  56.191  1.00  0.00     0.069 A 
HETATM   14  C   UNL     1      30.340  45.802  57.525  1.00  0.00     0.037 A 
HETATM   15  C   UNL     1      31.094  44.812  58.163  1.00  0.00     0.003 A 
HETATM   16  C   UNL     1      31.470  43.661  57.472  1.00  0.00     0.000 A 
HETATM   17  C   UNL     1      31.095  43.499  56.141  1.00  0.00     0.003 A 
HETATM   18  C   UNL     1      30.343  44.488  55.504  1.00  0.00     0.037 A 
ENDBRANCH  12  13
ENDBRANCH  11  12
ENDBRANCH   8  11
ENDBRANCH   2   5
BRANCH   1  19
HETATM   19  C   UNL     1      25.390  42.872  49.081  1.00  0.00     0.182 C 
BRANCH  19  20
HETATM   20  C   UNL     1      25.940  41.488  48.813  1.00  0.00     0.052 A 
HETATM   21  N   UNL     1      25.746  40.946  47.579  1.00  0.00    -0.256 NA
HETATM   22  C   UNL     1      26.228  39.699  47.333  1.00  0.00     0.040 A 
HETATM   23  C   UNL     1      25.973  39.180  45.947  1.00  0.00     0.071 C 
HETATM   24  C   UNL     1      26.920  38.953  48.293  1.00  0.00    -0.006 A 
HETATM   25  C   UNL     1      27.097  39.536  49.558  1.00  0.00     0.014 A 
HETATM   26  C   UNL     1      26.608  40.810  49.822  1.00  0.00     0.029 A 
BRANCH  24  27
HETATM   27  C   UNL     1      27.451  37.561  48.029  1.00  0.00     0.149 C 
HETATM   28  C   UNL     1      26.510  36.478  48.540  1.00  0.00     0.044 C 
BRANCH  27  29
HETATM   29  O   UNL     1      28.722  37.391  48.660  1.00  0.00    -0.391 OA
HETATM   30  H   UNL     1      28.779  36.463  48.950  1.00  0.00     0.210 HD
ENDBRANCH  27  29
ENDBRANCH  24  27
ENDBRANCH  19  20
ENDBRANCH   1  19
TORSDOF 8
ENDMDL
MODEL 10
REMARK VINA RESULT:      -7.9      7.293      9.593
REMARK  8 active torsions:
REMARK  status: ('A' for Active; 'I' for Inactive)
REMARK    1  A    between atoms: C_4  and  C_5 
REMARK    2  A    between atoms: C_5  and  N_6 
REMARK       I    between atoms: N_6  and  C_7 
REMARK    3  A    between atoms: C_7  and  C_8 
REMARK    4  A    between atoms: C_11  and  C_12 
REMARK    5  A    between atoms: C_12  and  O_13 
REMARK    6  A    between atoms: O_13  and  C_14 
REMARK    7  A    between atoms: C_25  and  C_26 
REMARK    8  A    between atoms: C_26  and  O_27 
ROOT
HETATM    1  N   UNL     1      27.004  39.693  50.314  1.00  0.00    -0.351 N 
HETATM    2  C   UNL     1      28.139  39.982  51.031  1.00  0.00     0.251 C 
HETATM    3  O   UNL     1      29.154  39.294  50.975  1.00  0.00    -0.268 OA
HETATM    4  H   UNL     1      26.124  40.169  50.476  1.00  0.00     0.163 HD
ENDROOT
BRANCH   2   5
HETATM    5  C   UNL     1      28.075  41.161  51.938  1.00  0.00     0.032 A 
HETATM    6  C   UNL     1      27.687  42.391  51.395  1.00  0.00     0.017 A 
HETATM    7  C   UNL     1      27.638  43.534  52.198  1.00  0.00     0.010 A 
HETATM    8  C   UNL     1      27.977  43.461  53.556  1.00  0.00    -0.034 A 
HETATM    9  C   UNL     1      28.323  42.218  54.105  1.00  0.00     0.010 A 
HETATM   10  C   UNL     1      28.375  41.074  53.302  1.00  0.00     0.017 A 
BRANCH   8  11
HETATM   11  C   UNL     1      27.939  44.701  54.418  1.00  0.00     0.214 C 
BRANCH  11  12
HETATM   12  O   UNL     1      29.268  45.188  54.571  1.00  0.00    -0.347 OA
BRANCH  12  13
HETATM   13  C   UNL     1      29.821  45.095  55.820  1.00  0.00     0.069 A 
HETATM   14  C   UNL     1      29.513  45.899  56.919  1.00  0.00     0.037 A 
HETATM   15  C   UNL     1      30.156  45.693  58.143  1.00  0.00     0.003 A 
HETATM   16  C   UNL     1      31.108  44.683  58.276  1.00  0.00     0.000 A 
HETATM   17  C   UNL     1      31.420  43.878  57.182  1.00  0.00     0.003 A 
HETATM   18  C   UNL     1      30.778  44.085  55.960  1.00  0.00     0.037 A 
ENDBRANCH  12  13
ENDBRANCH  11  12
ENDBRANCH   8  11
ENDBRANCH   2   5
BRANCH   1  19
HETATM   19  C   UNL     1      26.920  38.506  49.492  1.00  0.00     0.182 C 
BRANCH  19  20
HETATM   20  C   UNL     1      27.351  38.769  48.065  1.00  0.00     0.052 A 
HETATM   21  N   UNL     1      27.895  37.740  47.358  1.00  0.00    -0.256 NA
HETATM   22  C   UNL     1      28.294  37.970  46.079  1.00  0.00     0.040 A 
HETATM   23  C   UNL     1      28.879  36.782  45.371  1.00  0.00     0.071 C 
HETATM   24  C   UNL     1      28.165  39.219  45.459  1.00  0.00    -0.006 A 
HETATM   25  C   UNL     1      27.609  40.260  46.218  1.00  0.00     0.014 A 
HETATM   26  C   UNL     1      27.197  40.038  47.527  1.00  0.00     0.029 A 
BRANCH  24  27
HETATM   27  C   UNL     1      28.616  39.483  44.040  1.00  0.00     0.149 C 
HETATM   28  C   UNL     1      28.968  40.948  43.810  1.00  0.00     0.044 C 
BRANCH  27  29
HETATM   29  O   UNL     1      27.587  39.116  43.120  1.00  0.00    -0.391 OA
HETATM   30  H   UNL     1      26.845  38.761  43.641  1.00  0.00     0.210 HD
ENDBRANCH  27  29
ENDBRANCH  24  27
ENDBRANCH  19  20
ENDBRANCH   1  19
TORSDOF 8
ENDMDL
