MODEL 1
REMARK VINA RESULT:      -8.2      0.000      0.000
REMARK  9 active torsions:
REMARK  status: ('A' for Active; 'I' for Inactive)
REMARK    1  A    between atoms: C_2  and  C_3 
REMARK    2  A    between atoms: C_3  and  C_4 
REMARK    3  A    between atoms: C_4  and  N_5 
REMARK    4  A    between atoms: C_9  and  C_10 
REMARK    5  A    between atoms: C_13  and  C_14 
REMARK    6  A    between atoms: C_14  and  O_15 
REMARK    7  A    between atoms: C_20  and  C_21 
REMARK       I    between atoms: C_21  and  N_22 
REMARK    8  A    between atoms: N_22  and  C_23 
REMARK    9  A    between atoms: C_24  and  O_25 
ROOT
HETATM    1  N   UNL     1      26.129  41.290  50.436  1.00  0.00    -0.303 N 
HETATM    2  C   UNL     1      24.929  41.959  50.673  1.00  0.00     0.323 C 
HETATM    3  O   UNL     1      23.843  41.626  50.201  1.00  0.00    -0.247 OA
HETATM    4  N   UNL     1      24.976  43.023  51.513  1.00  0.00    -0.330 N 
HETATM    5  C   UNL     1      26.180  43.692  51.939  1.00  0.00     0.160 C 
HETATM    6  C   UNL     1      27.355  42.775  51.812  1.00  0.00     0.059 C 
HETATM    7  C   UNL     1      27.336  41.659  51.053  1.00  0.00     0.026 C 
HETATM    8  C   UNL     1      28.565  40.814  50.808  1.00  0.00     0.069 C 
HETATM    9  H   UNL     1      24.097  43.514  51.601  1.00  0.00     0.165 HD
ENDROOT
BRANCH   6  10
HETATM   10  C   UNL     1      28.553  43.214  52.581  1.00  0.00     0.256 C 
HETATM   11  N   UNL     1      28.268  43.466  53.903  1.00  0.00    -0.321 N 
HETATM   12  H   UNL     1      27.325  43.291  54.240  1.00  0.00     0.169 HD
HETATM   13  O   UNL     1      29.630  43.347  52.018  1.00  0.00    -0.267 OA
BRANCH  11  14
HETATM   14  C   UNL     1      29.152  43.915  54.910  1.00  0.00     0.068 A 
HETATM   15  C   UNL     1      28.846  45.146  55.528  1.00  0.00     0.095 A 
HETATM   16  C   UNL     1      29.687  45.651  56.524  1.00  0.00     0.039 A 
HETATM   17  C   UNL     1      30.823  44.936  56.912  1.00  0.00     0.003 A 
HETATM   18  C   UNL     1      31.120  43.718  56.308  1.00  0.00     0.002 A 
HETATM   19  C   UNL     1      30.289  43.208  55.310  1.00  0.00     0.032 A 
BRANCH  15  20
HETATM   20  O   UNL     1      27.701  45.764  55.077  1.00  0.00    -0.354 OA
HETATM   21  C   UNL     1      27.767  47.172  54.886  1.00  0.00     0.210 C 
ENDBRANCH  15  20
ENDBRANCH  11  14
ENDBRANCH   6  10
BRANCH   5  22
HETATM   22  C   UNL     1      26.339  45.016  51.203  1.00  0.00    -0.031 A 
HETATM   23  C   UNL     1      25.839  46.197  51.775  1.00  0.00     0.010 A 
HETATM   24  C   UNL     1      26.047  47.432  51.156  1.00  0.00     0.018 A 
HETATM   25  C   UNL     1      26.760  47.510  49.955  1.00  0.00     0.039 A 
HETATM   26  C   UNL     1      27.232  46.336  49.359  1.00  0.00     0.018 A 
HETATM   27  C   UNL     1      27.019  45.099  49.976  1.00  0.00     0.010 A 
BRANCH  25  28
HETATM   28  C   UNL     1      27.007  48.857  49.372  1.00  0.00     0.292 C 
HETATM   29  O   UNL     1      28.119  49.282  49.099  1.00  0.00    -0.259 OA
BRANCH  28  30
HETATM   30  O   UNL     1      25.835  49.506  49.157  1.00  0.00    -0.323 OA
HETATM   31  C   UNL     1      25.728  50.089  47.858  1.00  0.00     0.213 C 
ENDBRANCH  28  30
ENDBRANCH  25  28
ENDBRANCH   5  22
BRANCH   1  32
HETATM   32  C   UNL     1      26.029  40.088  49.596  1.00  0.00     0.133 C 
BRANCH  32  33
HETATM   33  C   UNL     1      26.277  40.397  48.116  1.00  0.00     0.020 C 
BRANCH  33  34
HETATM   34  C   UNL     1      27.089  39.290  47.446  1.00  0.00    -0.003 C 
HETATM   35  C   UNL     1      27.184  38.055  48.329  1.00  0.00     0.005 C 
ENDBRANCH  33  34
ENDBRANCH  32  33
ENDBRANCH   1  32
TORSDOF 9
ENDMDL
MODEL 2
REMARK VINA RESULT:      -7.8      2.306      2.825
REMARK  9 active torsions:
REMARK  status: ('A' for Active; 'I' for Inactive)
REMARK    1  A    between atoms: C_2  and  C_3 
REMARK    2  A    between atoms: C_3  and  C_4 
REMARK    3  A    between atoms: C_4  and  N_5 
REMARK    4  A    between atoms: C_9  and  C_10 
REMARK    5  A    between atoms: C_13  and  C_14 
REMARK    6  A    between atoms: C_14  and  O_15 
REMARK    7  A    between atoms: C_20  and  C_21 
REMARK       I    between atoms: C_21  and  N_22 
REMARK    8  A    between atoms: N_22  and  C_23 
REMARK    9  A    between atoms: C_24  and  O_25 
ROOT
HETATM    1  N   UNL     1      24.571  41.592  48.668  1.00  0.00    -0.303 N 
HETATM    2  C   UNL     1      23.316  41.955  49.156  1.00  0.00     0.323 C 
HETATM    3  O   UNL     1      22.252  41.491  48.751  1.00  0.00    -0.247 OA
HETATM    4  N   UNL     1      23.291  42.856  50.172  1.00  0.00    -0.330 N 
HETATM    5  C   UNL     1      24.403  43.676  50.582  1.00  0.00     0.160 C 
HETATM    6  C   UNL     1      25.694  43.049  50.158  1.00  0.00     0.059 C 
HETATM    7  C   UNL     1      25.767  42.091  49.209  1.00  0.00     0.026 C 
HETATM    8  C   UNL     1      27.080  41.566  48.677  1.00  0.00     0.069 C 
HETATM    9  H   UNL     1      22.360  43.136  50.445  1.00  0.00     0.165 HD
ENDROOT
BRANCH   6  10
HETATM   10  C   UNL     1      26.890  43.590  50.861  1.00  0.00     0.256 C 
HETATM   11  N   UNL     1      27.092  43.002  52.087  1.00  0.00    -0.321 N 
HETATM   12  H   UNL     1      26.472  42.250  52.375  1.00  0.00     0.169 HD
HETATM   13  O   UNL     1      27.549  44.485  50.352  1.00  0.00    -0.267 OA
BRANCH  11  14
HETATM   14  C   UNL     1      28.111  43.282  53.026  1.00  0.00     0.068 A 
HETATM   15  C   UNL     1      27.812  44.224  54.033  1.00  0.00     0.095 A 
HETATM   16  C   UNL     1      28.782  44.554  54.985  1.00  0.00     0.039 A 
HETATM   17  C   UNL     1      30.039  43.948  54.945  1.00  0.00     0.003 A 
HETATM   18  C   UNL     1      30.331  43.012  53.957  1.00  0.00     0.002 A 
HETATM   19  C   UNL     1      29.372  42.680  52.999  1.00  0.00     0.032 A 
BRANCH  15  20
HETATM   20  O   UNL     1      26.543  44.756  53.986  1.00  0.00    -0.354 OA
HETATM   21  C   UNL     1      26.425  46.154  54.223  1.00  0.00     0.210 C 
ENDBRANCH  15  20
ENDBRANCH  11  14
ENDBRANCH   6  10
BRANCH   5  22
HETATM   22  C   UNL     1      24.214  45.106  50.096  1.00  0.00    -0.031 A 
HETATM   23  C   UNL     1      23.408  45.362  48.975  1.00  0.00     0.010 A 
HETATM   24  C   UNL     1      23.156  46.673  48.562  1.00  0.00     0.018 A 
HETATM   25  C   UNL     1      23.703  47.753  49.264  1.00  0.00     0.039 A 
HETATM   26  C   UNL     1      24.535  47.507  50.362  1.00  0.00     0.018 A 
HETATM   27  C   UNL     1      24.792  46.195  50.771  1.00  0.00     0.010 A 
BRANCH  25  28
HETATM   28  C   UNL     1      23.351  49.129  48.820  1.00  0.00     0.292 C 
HETATM   29  O   UNL     1      23.302  49.469  47.649  1.00  0.00    -0.259 OA
BRANCH  28  30
HETATM   30  O   UNL     1      23.058  49.914  49.888  1.00  0.00    -0.323 OA
HETATM   31  C   UNL     1      21.878  50.700  49.720  1.00  0.00     0.213 C 
ENDBRANCH  28  30
ENDBRANCH  25  28
ENDBRANCH   5  22
BRANCH   1  32
HETATM   32  C   UNL     1      24.570  40.548  47.634  1.00  0.00     0.133 C 
BRANCH  32  33
HETATM   33  C   UNL     1      24.417  41.133  46.226  1.00  0.00     0.020 C 
BRANCH  33  34
HETATM   34  C   UNL     1      25.606  40.766  45.340  1.00  0.00    -0.003 C 
HETATM   35  C   UNL     1      26.049  39.329  45.568  1.00  0.00     0.005 C 
ENDBRANCH  33  34
ENDBRANCH  32  33
ENDBRANCH   1  32
TORSDOF 9
ENDMDL
MODEL 3
REMARK VINA RESULT:      -7.6      2.897      7.378
REMARK  9 active torsions:
REMARK  status: ('A' for Active; 'I' for Inactive)
REMARK    1  A    between atoms: C_2  and  C_3 
REMARK    2  A    between atoms: C_3  and  C_4 
REMARK    3  A    between atoms: C_4  and  N_5 
REMARK    4  A    between atoms: C_9  and  C_10 
REMARK    5  A    between atoms: C_13  and  C_14 
REMARK    6  A    between atoms: C_14  and  O_15 
REMARK    7  A    between atoms: C_20  and  C_21 
REMARK       I    between atoms: C_21  and  N_22 
REMARK    8  A    between atoms: N_22  and  C_23 
REMARK    9  A    between atoms: C_24  and  O_25 
ROOT
HETATM    1  N   UNL     1      28.322  42.301  52.142  1.00  0.00    -0.303 N 
HETATM    2  C   UNL     1      28.313  40.925  51.912  1.00  0.00     0.323 C 
HETATM    3  O   UNL     1      29.212  40.158  52.251  1.00  0.00    -0.247 OA
HETATM    4  N   UNL     1      27.212  40.413  51.305  1.00  0.00    -0.330 N 
HETATM    5  C   UNL     1      26.204  41.186  50.625  1.00  0.00     0.160 C 
HETATM    6  C   UNL     1      26.205  42.597  51.125  1.00  0.00     0.059 C 
HETATM    7  C   UNL     1      27.242  43.132  51.805  1.00  0.00     0.026 C 
HETATM    8  C   UNL     1      27.305  44.594  52.181  1.00  0.00     0.069 C 
HETATM    9  H   UNL     1      27.280  39.426  51.101  1.00  0.00     0.165 HD
ENDROOT
BRANCH   6  10
HETATM   10  C   UNL     1      24.971  43.360  50.790  1.00  0.00     0.256 C 
HETATM   11  N   UNL     1      25.170  44.265  49.774  1.00  0.00    -0.321 N 
HETATM   12  H   UNL     1      26.081  44.300  49.323  1.00  0.00     0.169 HD
HETATM   13  O   UNL     1      23.942  43.171  51.422  1.00  0.00    -0.267 OA
BRANCH  11  14
HETATM   14  C   UNL     1      24.232  45.163  49.218  1.00  0.00     0.068 A 
HETATM   15  C   UNL     1      24.310  46.509  49.634  1.00  0.00     0.095 A 
HETATM   16  C   UNL     1      23.403  47.447  49.129  1.00  0.00     0.039 A 
HETATM   17  C   UNL     1      22.428  47.054  48.210  1.00  0.00     0.003 A 
HETATM   18  C   UNL     1      22.356  45.728  47.793  1.00  0.00     0.002 A 
HETATM   19  C   UNL     1      23.254  44.785  48.295  1.00  0.00     0.032 A 
BRANCH  15  20
HETATM   20  O   UNL     1      25.312  46.791  50.535  1.00  0.00    -0.354 OA
HETATM   21  C   UNL     1      26.283  47.751  50.134  1.00  0.00     0.210 C 
ENDBRANCH  15  20
ENDBRANCH  11  14
ENDBRANCH   6  10
BRANCH   5  22
HETATM   22  C   UNL     1      26.368  41.060  49.116  1.00  0.00    -0.031 A 
HETATM   23  C   UNL     1      27.639  41.207  48.537  1.00  0.00     0.010 A 
HETATM   24  C   UNL     1      27.825  41.014  47.166  1.00  0.00     0.018 A 
HETATM   25  C   UNL     1      26.743  40.668  46.348  1.00  0.00     0.039 A 
HETATM   26  C   UNL     1      25.467  40.552  46.909  1.00  0.00     0.018 A 
HETATM   27  C   UNL     1      25.281  40.751  48.281  1.00  0.00     0.010 A 
BRANCH  25  28
HETATM   28  C   UNL     1      27.009  40.412  44.906  1.00  0.00     0.292 C 
HETATM   29  O   UNL     1      26.155  40.492  44.037  1.00  0.00    -0.259 OA
BRANCH  28  30
HETATM   30  O   UNL     1      28.320  40.125  44.706  1.00  0.00    -0.323 OA
HETATM   31  C   UNL     1      28.869  40.724  43.531  1.00  0.00     0.213 C 
ENDBRANCH  28  30
ENDBRANCH  25  28
ENDBRANCH   5  22
BRANCH   1  32
HETATM   32  C   UNL     1      29.485  42.811  52.883  1.00  0.00     0.133 C 
BRANCH  32  33
HETATM   33  C   UNL     1      29.292  42.708  54.399  1.00  0.00     0.020 C 
BRANCH  33  34
HETATM   34  C   UNL     1      29.986  43.858  55.127  1.00  0.00    -0.003 C 
HETATM   35  C   UNL     1      31.087  43.353  56.047  1.00  0.00     0.005 C 
ENDBRANCH  33  34
ENDBRANCH  32  33
ENDBRANCH   1  32
TORSDOF 9
ENDMDL
MODEL 4
REMARK VINA RESULT:      -7.5      2.415      7.968
REMARK  9 active torsions:
REMARK  status: ('A' for Active; 'I' for Inactive)
REMARK    1  A    between atoms: C_2  and  C_3 
REMARK    2  A    between atoms: C_3  and  C_4 
REMARK    3  A    between atoms: C_4  and  N_5 
REMARK    4  A    between atoms: C_9  and  C_10 
REMARK    5  A    between atoms: C_13  and  C_14 
REMARK    6  A    between atoms: C_14  and  O_15 
REMARK    7  A    between atoms: C_20  and  C_21 
REMARK       I    between atoms: C_21  and  N_22 
REMARK    8  A    between atoms: N_22  and  C_23 
REMARK    9  A    between atoms: C_24  and  O_25 
ROOT
HETATM    1  N   UNL     1      26.305  45.358  53.726  1.00  0.00    -0.303 N 
HETATM    2  C   UNL     1      25.637  44.173  54.038  1.00  0.00     0.323 C 
HETATM    3  O   UNL     1      25.745  43.575  55.106  1.00  0.00    -0.247 OA
HETATM    4  N   UNL     1      24.787  43.684  53.099  1.00  0.00    -0.330 N 
HETATM    5  C   UNL     1      24.738  44.108  51.722  1.00  0.00     0.160 C 
HETATM    6  C   UNL     1      25.311  45.483  51.581  1.00  0.00     0.059 C 
HETATM    7  C   UNL     1      26.097  46.050  52.522  1.00  0.00     0.026 C 
HETATM    8  C   UNL     1      26.794  47.374  52.316  1.00  0.00     0.069 C 
HETATM    9  H   UNL     1      24.379  42.793  53.342  1.00  0.00     0.165 HD
ENDROOT
BRANCH   6  10
HETATM   10  C   UNL     1      24.953  46.162  50.305  1.00  0.00     0.256 C 
HETATM   11  N   UNL     1      24.155  47.265  50.500  1.00  0.00    -0.321 N 
HETATM   12  H   UNL     1      23.930  47.542  51.451  1.00  0.00     0.169 HD
HETATM   13  O   UNL     1      25.336  45.705  49.238  1.00  0.00    -0.267 OA
BRANCH  11  14
HETATM   14  C   UNL     1      23.615  48.128  49.520  1.00  0.00     0.068 A 
HETATM   15  C   UNL     1      24.473  49.118  48.996  1.00  0.00     0.095 A 
HETATM   16  C   UNL     1      23.996  50.011  48.031  1.00  0.00     0.039 A 
HETATM   17  C   UNL     1      22.677  49.918  47.581  1.00  0.00     0.003 A 
HETATM   18  C   UNL     1      21.833  48.937  48.093  1.00  0.00     0.002 A 
HETATM   19  C   UNL     1      22.299  48.044  49.058  1.00  0.00     0.032 A 
BRANCH  15  20
HETATM   20  O   UNL     1      25.754  49.116  49.501  1.00  0.00    -0.354 OA
HETATM   21  C   UNL     1      26.797  49.473  48.601  1.00  0.00     0.210 C 
ENDBRANCH  15  20
ENDBRANCH  11  14
ENDBRANCH   6  10
BRANCH   5  22
HETATM   22  C   UNL     1      25.390  43.066  50.824  1.00  0.00    -0.031 A 
HETATM   23  C   UNL     1      26.778  42.863  50.883  1.00  0.00     0.010 A 
HETATM   24  C   UNL     1      27.384  41.856  50.126  1.00  0.00     0.018 A 
HETATM   25  C   UNL     1      26.613  41.031  49.299  1.00  0.00     0.039 A 
HETATM   26  C   UNL     1      25.234  41.248  49.208  1.00  0.00     0.018 A 
HETATM   27  C   UNL     1      24.629  42.259  49.960  1.00  0.00     0.010 A 
BRANCH  25  28
HETATM   28  C   UNL     1      27.301  39.934  48.565  1.00  0.00     0.292 C 
HETATM   29  O   UNL     1      27.420  39.905  47.351  1.00  0.00    -0.259 OA
BRANCH  28  30
HETATM   30  O   UNL     1      27.799  39.018  49.434  1.00  0.00    -0.323 OA
HETATM   31  C   UNL     1      29.033  38.435  49.014  1.00  0.00     0.213 C 
ENDBRANCH  28  30
ENDBRANCH  25  28
ENDBRANCH   5  22
BRANCH   1  32
HETATM   32  C   UNL     1      27.146  45.910  54.798  1.00  0.00     0.133 C 
BRANCH  32  33
HETATM   33  C   UNL     1      28.560  45.322  54.779  1.00  0.00     0.020 C 
BRANCH  33  34
HETATM   34  C   UNL     1      29.466  46.024  55.790  1.00  0.00    -0.003 C 
HETATM   35  C   UNL     1      28.813  46.107  57.161  1.00  0.00     0.005 C 
ENDBRANCH  33  34
ENDBRANCH  32  33
ENDBRANCH   1  32
TORSDOF 9
ENDMDL
MODEL 5
REMARK VINA RESULT:      -7.4     12.520     16.279
REMARK  9 active torsions:
REMARK  status: ('A' for Active; 'I' for Inactive)
REMARK    1  A    between atoms: C_2  and  C_3 
REMARK    2  A    between atoms: C_3  and  C_4 
REMARK    3  A    between atoms: C_4  and  N_5 
REMARK    4  A    between atoms: C_9  and  C_10 
REMARK    5  A    between atoms: C_13  and  C_14 
REMARK    6  A    between atoms: C_14  and  O_15 
REMARK    7  A    between atoms: C_20  and  C_21 
REMARK       I    between atoms: C_21  and  N_22 
REMARK    8  A    between atoms: N_22  and  C_23 
REMARK    9  A    between atoms: C_24  and  O_25 
ROOT
HETATM    1  N   UNL     1      31.718  51.178  41.822  1.00  0.00    -0.303 N 
HETATM    2  C   UNL     1      32.200  50.058  42.499  1.00  0.00     0.323 C 
HETATM    3  O   UNL     1      31.540  49.387  43.291  1.00  0.00    -0.247 OA
HETATM    4  N   UNL     1      33.474  49.678  42.226  1.00  0.00    -0.330 N 
HETATM    5  C   UNL     1      34.451  50.483  41.537  1.00  0.00     0.160 C 
HETATM    6  C   UNL     1      33.771  51.515  40.693  1.00  0.00     0.059 C 
HETATM    7  C   UNL     1      32.482  51.874  40.870  1.00  0.00     0.026 C 
HETATM    8  C   UNL     1      31.840  53.016  40.118  1.00  0.00     0.069 C 
HETATM    9  H   UNL     1      33.799  48.904  42.788  1.00  0.00     0.165 HD
ENDROOT
BRANCH   6  10
HETATM   10  C   UNL     1      34.649  52.124  39.655  1.00  0.00     0.256 C 
HETATM   11  N   UNL     1      35.246  53.286  40.084  1.00  0.00    -0.321 N 
HETATM   12  H   UNL     1      35.088  53.591  41.041  1.00  0.00     0.169 HD
HETATM   13  O   UNL     1      34.747  51.605  38.553  1.00  0.00    -0.267 OA
BRANCH  11  14
HETATM   14  C   UNL     1      36.117  54.131  39.360  1.00  0.00     0.068 A 
HETATM   15  C   UNL     1      35.669  55.444  39.103  1.00  0.00     0.095 A 
HETATM   16  C   UNL     1      36.479  56.326  38.381  1.00  0.00     0.039 A 
HETATM   17  C   UNL     1      37.732  55.913  37.925  1.00  0.00     0.003 A 
HETATM   18  C   UNL     1      38.178  54.620  38.186  1.00  0.00     0.002 A 
HETATM   19  C   UNL     1      37.375  53.731  38.901  1.00  0.00     0.032 A 
BRANCH  15  20
HETATM   20  O   UNL     1      34.424  55.751  39.604  1.00  0.00    -0.354 OA
HETATM   21  C   UNL     1      34.156  57.126  39.855  1.00  0.00     0.210 C 
ENDBRANCH  15  20
ENDBRANCH  11  14
ENDBRANCH   6  10
BRANCH   5  22
HETATM   22  C   UNL     1      35.461  51.052  42.525  1.00  0.00    -0.031 A 
HETATM   23  C   UNL     1      36.800  50.635  42.473  1.00  0.00     0.010 A 
HETATM   24  C   UNL     1      37.758  51.205  43.316  1.00  0.00     0.018 A 
HETATM   25  C   UNL     1      37.394  52.203  44.226  1.00  0.00     0.039 A 
HETATM   26  C   UNL     1      36.056  52.601  44.310  1.00  0.00     0.018 A 
HETATM   27  C   UNL     1      35.097  52.027  43.470  1.00  0.00     0.010 A 
BRANCH  25  28
HETATM   28  C   UNL     1      38.466  52.820  45.055  1.00  0.00     0.292 C 
HETATM   29  O   UNL     1      39.307  53.586  44.611  1.00  0.00    -0.259 OA
BRANCH  28  30
HETATM   30  O   UNL     1      38.340  52.445  46.353  1.00  0.00    -0.323 OA
HETATM   31  C   UNL     1      39.115  53.231  47.259  1.00  0.00     0.213 C 
ENDBRANCH  28  30
ENDBRANCH  25  28
ENDBRANCH   5  22
BRANCH   1  32
HETATM   32  C   UNL     1      30.308  51.509  42.070  1.00  0.00     0.133 C 
BRANCH  32  33
HETATM   33  C   UNL     1      29.356  50.578  41.311  1.00  0.00     0.020 C 
BRANCH  33  34
HETATM   34  C   UNL     1      28.005  51.247  41.065  1.00  0.00    -0.003 C 
HETATM   35  C   UNL     1      28.064  52.742  41.336  1.00  0.00     0.005 C 
ENDBRANCH  33  34
ENDBRANCH  32  33
ENDBRANCH   1  32
TORSDOF 9
ENDMDL
MODEL 6
REMARK VINA RESULT:      -7.3      2.973      7.701
REMARK  9 active torsions:
REMARK  status: ('A' for Active; 'I' for Inactive)
REMARK    1  A    between atoms: C_2  and  C_3 
REMARK    2  A    between atoms: C_3  and  C_4 
REMARK    3  A    between atoms: C_4  and  N_5 
REMARK    4  A    between atoms: C_9  and  C_10 
REMARK    5  A    between atoms: C_13  and  C_14 
REMARK    6  A    between atoms: C_14  and  O_15 
REMARK    7  A    between atoms: C_20  and  C_21 
REMARK       I    between atoms: C_21  and  N_22 
REMARK    8  A    between atoms: N_22  and  C_23 
REMARK    9  A    between atoms: C_24  and  O_25 
ROOT
HETATM    1  N   UNL     1      28.309  42.292  52.145  1.00  0.00    -0.303 N 
HETATM    2  C   UNL     1      28.293  40.909  51.966  1.00  0.00     0.323 C 
HETATM    3  O   UNL     1      29.191  40.150  52.328  1.00  0.00    -0.247 OA
HETATM    4  N   UNL     1      27.186  40.380  51.385  1.00  0.00    -0.330 N 
HETATM    5  C   UNL     1      26.178  41.131  50.682  1.00  0.00     0.160 C 
HETATM    6  C   UNL     1      26.188  42.559  51.130  1.00  0.00     0.059 C 
HETATM    7  C   UNL     1      27.231  43.115  51.784  1.00  0.00     0.026 C 
HETATM    8  C   UNL     1      27.302  44.589  52.105  1.00  0.00     0.069 C 
HETATM    9  H   UNL     1      27.249  39.385  51.217  1.00  0.00     0.165 HD
ENDROOT
BRANCH   6  10
HETATM   10  C   UNL     1      24.955  43.316  50.774  1.00  0.00     0.256 C 
HETATM   11  N   UNL     1      25.167  44.224  49.764  1.00  0.00    -0.321 N 
HETATM   12  H   UNL     1      26.085  44.265  49.330  1.00  0.00     0.169 HD
HETATM   13  O   UNL     1      23.916  43.119  51.386  1.00  0.00    -0.267 OA
BRANCH  11  14
HETATM   14  C   UNL     1      24.233  45.117  49.192  1.00  0.00     0.068 A 
HETATM   15  C   UNL     1      23.430  44.619  48.144  1.00  0.00     0.095 A 
HETATM   16  C   UNL     1      22.494  45.457  47.528  1.00  0.00     0.039 A 
HETATM   17  C   UNL     1      22.350  46.779  47.953  1.00  0.00     0.003 A 
HETATM   18  C   UNL     1      23.137  47.268  48.992  1.00  0.00     0.002 A 
HETATM   19  C   UNL     1      24.076  46.441  49.610  1.00  0.00     0.032 A 
BRANCH  15  20
HETATM   20  O   UNL     1      23.647  43.302  47.809  1.00  0.00    -0.354 OA
HETATM   21  C   UNL     1      22.517  42.559  47.366  1.00  0.00     0.210 C 
ENDBRANCH  15  20
ENDBRANCH  11  14
ENDBRANCH   6  10
BRANCH   5  22
HETATM   22  C   UNL     1      26.333  40.949  49.178  1.00  0.00    -0.031 A 
HETATM   23  C   UNL     1      27.547  41.281  48.556  1.00  0.00     0.010 A 
HETATM   24  C   UNL     1      27.737  41.044  47.191  1.00  0.00     0.018 A 
HETATM   25  C   UNL     1      26.717  40.469  46.425  1.00  0.00     0.039 A 
HETATM   26  C   UNL     1      25.492  40.166  47.028  1.00  0.00     0.018 A 
HETATM   27  C   UNL     1      25.300  40.408  48.392  1.00  0.00     0.010 A 
BRANCH  25  28
HETATM   28  C   UNL     1      26.996  40.180  44.991  1.00  0.00     0.292 C 
HETATM   29  O   UNL     1      26.618  39.169  44.420  1.00  0.00    -0.259 OA
BRANCH  28  30
HETATM   30  O   UNL     1      27.678  41.205  44.422  1.00  0.00    -0.323 OA
HETATM   31  C   UNL     1      28.848  40.796  43.712  1.00  0.00     0.213 C 
ENDBRANCH  28  30
ENDBRANCH  25  28
ENDBRANCH   5  22
BRANCH   1  32
HETATM   32  C   UNL     1      29.479  42.823  52.860  1.00  0.00     0.133 C 
BRANCH  32  33
HETATM   33  C   UNL     1      29.321  42.717  54.380  1.00  0.00     0.020 C 
BRANCH  33  34
HETATM   34  C   UNL     1      30.037  43.863  55.093  1.00  0.00    -0.003 C 
HETATM   35  C   UNL     1      31.071  43.346  56.082  1.00  0.00     0.005 C 
ENDBRANCH  33  34
ENDBRANCH  32  33
ENDBRANCH   1  32
TORSDOF 9
ENDMDL
MODEL 7
REMARK VINA RESULT:      -7.0      5.375      9.183
REMARK  9 active torsions:
REMARK  status: ('A' for Active; 'I' for Inactive)
REMARK    1  A    between atoms: C_2  and  C_3 
REMARK    2  A    between atoms: C_3  and  C_4 
REMARK    3  A    between atoms: C_4  and  N_5 
REMARK    4  A    between atoms: C_9  and  C_10 
REMARK    5  A    between atoms: C_13  and  C_14 
REMARK    6  A    between atoms: C_14  and  O_15 
REMARK    7  A    between atoms: C_20  and  C_21 
REMARK       I    between atoms: C_21  and  N_22 
REMARK    8  A    between atoms: N_22  and  C_23 
REMARK    9  A    between atoms: C_24  and  O_25 
ROOT
HETATM    1  N   UNL     1      24.624  45.476  50.391  1.00  0.00    -0.303 N 
HETATM    2  C   UNL     1      23.867  44.319  50.573  1.00  0.00     0.323 C 
HETATM    3  O   UNL     1      24.254  43.325  51.185  1.00  0.00    -0.247 OA
HETATM    4  N   UNL     1      22.609  44.324  50.065  1.00  0.00    -0.330 N 
HETATM    5  C   UNL     1      22.099  45.283  49.117  1.00  0.00     0.160 C 
HETATM    6  C   UNL     1      22.894  46.549  49.182  1.00  0.00     0.059 C 
HETATM    7  C   UNL     1      24.118  46.618  49.748  1.00  0.00     0.026 C 
HETATM    8  C   UNL     1      24.980  47.857  49.684  1.00  0.00     0.069 C 
HETATM    9  H   UNL     1      22.125  43.442  50.164  1.00  0.00     0.165 HD
ENDROOT
BRANCH   6  10
HETATM   10  C   UNL     1      22.223  47.719  48.551  1.00  0.00     0.256 C 
HETATM   11  N   UNL     1      21.393  48.384  49.422  1.00  0.00    -0.321 N 
HETATM   12  H   UNL     1      21.347  48.071  50.388  1.00  0.00     0.169 HD
HETATM   13  O   UNL     1      22.415  47.973  47.371  1.00  0.00    -0.267 OA
BRANCH  11  14
HETATM   14  C   UNL     1      20.590  49.517  49.159  1.00  0.00     0.068 A 
HETATM   15  C   UNL     1      19.193  49.352  49.271  1.00  0.00     0.095 A 
HETATM   16  C   UNL     1      18.343  50.431  49.012  1.00  0.00     0.039 A 
HETATM   17  C   UNL     1      18.874  51.672  48.653  1.00  0.00     0.003 A 
HETATM   18  C   UNL     1      20.252  51.838  48.551  1.00  0.00     0.002 A 
HETATM   19  C   UNL     1      21.108  50.765  48.803  1.00  0.00     0.032 A 
BRANCH  15  20
HETATM   20  O   UNL     1      18.775  48.092  49.638  1.00  0.00    -0.354 OA
HETATM   21  C   UNL     1      17.888  47.427  48.747  1.00  0.00     0.210 C 
ENDBRANCH  15  20
ENDBRANCH  11  14
ENDBRANCH   6  10
BRANCH   5  22
HETATM   22  C   UNL     1      22.023  44.665  47.728  1.00  0.00    -0.031 A 
HETATM   23  C   UNL     1      20.777  44.523  47.095  1.00  0.00     0.010 A 
HETATM   24  C   UNL     1      20.694  44.035  45.788  1.00  0.00     0.018 A 
HETATM   25  C   UNL     1      21.853  43.681  45.089  1.00  0.00     0.039 A 
HETATM   26  C   UNL     1      23.096  43.787  45.724  1.00  0.00     0.018 A 
HETATM   27  C   UNL     1      23.179  44.270  47.033  1.00  0.00     0.010 A 
BRANCH  25  28
HETATM   28  C   UNL     1      21.711  43.227  43.679  1.00  0.00     0.292 C 
HETATM   29  O   UNL     1      20.874  42.419  43.310  1.00  0.00    -0.259 OA
BRANCH  28  30
HETATM   30  O   UNL     1      22.604  43.866  42.881  1.00  0.00    -0.323 OA
HETATM   31  C   UNL     1      22.136  45.118  42.378  1.00  0.00     0.213 C 
ENDBRANCH  28  30
ENDBRANCH  25  28
ENDBRANCH   5  22
BRANCH   1  32
HETATM   32  C   UNL     1      25.947  45.475  51.031  1.00  0.00     0.133 C 
BRANCH  32  33
HETATM   33  C   UNL     1      25.897  46.031  52.457  1.00  0.00     0.020 C 
BRANCH  33  34
HETATM   34  C   UNL     1      26.370  44.994  53.475  1.00  0.00    -0.003 C 
HETATM   35  C   UNL     1      25.224  44.504  54.346  1.00  0.00     0.005 C 
ENDBRANCH  33  34
ENDBRANCH  32  33
ENDBRANCH   1  32
TORSDOF 9
ENDMDL
MODEL 8
REMARK VINA RESULT:      -6.7     12.053     15.287
REMARK  9 active torsions:
REMARK  status: ('A' for Active; 'I' for Inactive)
REMARK    1  A    between atoms: C_2  and  C_3 
REMARK    2  A    between atoms: C_3  and  C_4 
REMARK    3  A    between atoms: C_4  and  N_5 
REMARK    4  A    between atoms: C_9  and  C_10 
REMARK    5  A    between atoms: C_13  and  C_14 
REMARK    6  A    between atoms: C_14  and  O_15 
REMARK    7  A    between atoms: C_20  and  C_21 
REMARK       I    between atoms: C_21  and  N_22 
REMARK    8  A    between atoms: N_22  and  C_23 
REMARK    9  A    between atoms: C_24  and  O_25 
ROOT
HETATM    1  N   UNL     1      29.645  51.520  40.358  1.00  0.00    -0.303 N 
HETATM    2  C   UNL     1      29.805  50.711  41.483  1.00  0.00     0.323 C 
HETATM    3  O   UNL     1      30.692  50.855  42.323  1.00  0.00    -0.247 OA
HETATM    4  N   UNL     1      28.889  49.726  41.665  1.00  0.00    -0.330 N 
HETATM    5  C   UNL     1      27.960  49.262  40.666  1.00  0.00     0.160 C 
HETATM    6  C   UNL     1      27.738  50.321  39.632  1.00  0.00     0.059 C 
HETATM    7  C   UNL     1      28.575  51.367  39.462  1.00  0.00     0.026 C 
HETATM    8  C   UNL     1      28.432  52.353  38.326  1.00  0.00     0.069 C 
HETATM    9  H   UNL     1      29.085  49.126  42.454  1.00  0.00     0.165 HD
ENDROOT
BRANCH   6  10
HETATM   10  C   UNL     1      26.523  50.108  38.796  1.00  0.00     0.256 C 
HETATM   11  N   UNL     1      25.413  49.802  39.547  1.00  0.00    -0.321 N 
HETATM   12  H   UNL     1      25.496  49.798  40.561  1.00  0.00     0.169 HD
HETATM   13  O   UNL     1      26.596  50.179  37.578  1.00  0.00    -0.267 OA
BRANCH  11  14
HETATM   14  C   UNL     1      24.107  49.520  39.088  1.00  0.00     0.068 A 
HETATM   15  C   UNL     1      23.819  48.178  38.760  1.00  0.00     0.095 A 
HETATM   16  C   UNL     1      22.548  47.836  38.289  1.00  0.00     0.039 A 
HETATM   17  C   UNL     1      21.563  48.816  38.151  1.00  0.00     0.003 A 
HETATM   18  C   UNL     1      21.845  50.139  38.482  1.00  0.00     0.002 A 
HETATM   19  C   UNL     1      23.111  50.491  38.949  1.00  0.00     0.032 A 
BRANCH  15  20
HETATM   20  O   UNL     1      24.856  47.291  38.941  1.00  0.00    -0.354 OA
HETATM   21  C   UNL     1      25.383  46.676  37.771  1.00  0.00     0.210 C 
ENDBRANCH  15  20
ENDBRANCH  11  14
ENDBRANCH   6  10
BRANCH   5  22
HETATM   22  C   UNL     1      28.414  47.924  40.100  1.00  0.00    -0.031 A 
HETATM   23  C   UNL     1      27.881  46.731  40.615  1.00  0.00     0.010 A 
HETATM   24  C   UNL     1      28.223  45.497  40.054  1.00  0.00     0.018 A 
HETATM   25  C   UNL     1      29.103  45.433  38.968  1.00  0.00     0.039 A 
HETATM   26  C   UNL     1      29.666  46.613  38.470  1.00  0.00     0.018 A 
HETATM   27  C   UNL     1      29.328  47.847  39.035  1.00  0.00     0.010 A 
BRANCH  25  28
HETATM   28  C   UNL     1      29.383  44.099  38.370  1.00  0.00     0.292 C 
HETATM   29  O   UNL     1      29.759  43.940  37.220  1.00  0.00    -0.259 OA
BRANCH  28  30
HETATM   30  O   UNL     1      29.201  43.117  39.289  1.00  0.00    -0.323 OA
HETATM   31  C   UNL     1      28.582  41.942  38.763  1.00  0.00     0.213 C 
ENDBRANCH  28  30
ENDBRANCH  25  28
ENDBRANCH   5  22
BRANCH   1  32
HETATM   32  C   UNL     1      30.597  52.633  40.239  1.00  0.00     0.133 C 
BRANCH  32  33
HETATM   33  C   UNL     1      31.789  52.278  39.345  1.00  0.00     0.020 C 
BRANCH  33  34
HETATM   34  C   UNL     1      33.107  52.370  40.113  1.00  0.00    -0.003 C 
HETATM   35  C   UNL     1      33.669  50.992  40.425  1.00  0.00     0.005 C 
ENDBRANCH  33  34
ENDBRANCH  32  33
ENDBRANCH   1  32
TORSDOF 9
ENDMDL
MODEL 9
REMARK VINA RESULT:      -6.6      3.191      4.175
REMARK  9 active torsions:
REMARK  status: ('A' for Active; 'I' for Inactive)
REMARK    1  A    between atoms: C_2  and  C_3 
REMARK    2  A    between atoms: C_3  and  C_4 
REMARK    3  A    between atoms: C_4  and  N_5 
REMARK    4  A    between atoms: C_9  and  C_10 
REMARK    5  A    between atoms: C_13  and  C_14 
REMARK    6  A    between atoms: C_14  and  O_15 
REMARK    7  A    between atoms: C_20  and  C_21 
REMARK       I    between atoms: C_21  and  N_22 
REMARK    8  A    between atoms: N_22  and  C_23 
REMARK    9  A    between atoms: C_24  and  O_25 
ROOT
HETATM    1  N   UNL     1      25.830  40.295  47.069  1.00  0.00    -0.303 N 
HETATM    2  C   UNL     1      24.492  40.076  47.396  1.00  0.00     0.323 C 
HETATM    3  O   UNL     1      23.741  39.320  46.782  1.00  0.00    -0.247 OA
HETATM    4  N   UNL     1      24.015  40.722  48.491  1.00  0.00    -0.330 N 
HETATM    5  C   UNL     1      24.669  41.819  49.157  1.00  0.00     0.160 C 
HETATM    6  C   UNL     1      26.137  41.801  48.869  1.00  0.00     0.059 C 
HETATM    7  C   UNL     1      26.674  41.110  47.840  1.00  0.00     0.026 C 
HETATM    8  C   UNL     1      28.133  41.210  47.461  1.00  0.00     0.069 C 
HETATM    9  H   UNL     1      23.026  40.584  48.648  1.00  0.00     0.165 HD
ENDROOT
BRANCH   6  10
HETATM   10  C   UNL     1      26.949  42.628  49.804  1.00  0.00     0.256 C 
HETATM   11  N   UNL     1      27.196  41.988  50.996  1.00  0.00    -0.321 N 
HETATM   12  H   UNL     1      26.866  41.034  51.114  1.00  0.00     0.169 HD
HETATM   13  O   UNL     1      27.290  43.758  49.487  1.00  0.00    -0.267 OA
BRANCH  11  14
HETATM   14  C   UNL     1      27.911  42.479  52.112  1.00  0.00     0.068 A 
HETATM   15  C   UNL     1      27.199  43.288  53.022  1.00  0.00     0.095 A 
HETATM   16  C   UNL     1      27.852  43.815  54.141  1.00  0.00     0.039 A 
HETATM   17  C   UNL     1      29.202  43.535  54.362  1.00  0.00     0.003 A 
HETATM   18  C   UNL     1      29.902  42.729  53.468  1.00  0.00     0.002 A 
HETATM   19  C   UNL     1      29.260  42.203  52.346  1.00  0.00     0.032 A 
BRANCH  15  20
HETATM   20  O   UNL     1      25.872  43.496  52.716  1.00  0.00    -0.354 OA
HETATM   21  C   UNL     1      25.362  44.806  52.935  1.00  0.00     0.210 C 
ENDBRANCH  15  20
ENDBRANCH  11  14
ENDBRANCH   6  10
BRANCH   5  22
HETATM   22  C   UNL     1      23.981  43.134  48.813  1.00  0.00    -0.031 A 
HETATM   23  C   UNL     1      23.542  43.368  47.500  1.00  0.00     0.010 A 
HETATM   24  C   UNL     1      22.836  44.532  47.182  1.00  0.00     0.018 A 
HETATM   25  C   UNL     1      22.556  45.482  48.171  1.00  0.00     0.039 A 
HETATM   26  C   UNL     1      23.020  45.273  49.474  1.00  0.00     0.018 A 
HETATM   27  C   UNL     1      23.730  44.111  49.791  1.00  0.00     0.010 A 
BRANCH  25  28
HETATM   28  C   UNL     1      21.747  46.672  47.791  1.00  0.00     0.292 C 
HETATM   29  O   UNL     1      22.021  47.404  46.852  1.00  0.00    -0.259 OA
BRANCH  28  30
HETATM   30  O   UNL     1      20.664  46.790  48.599  1.00  0.00    -0.323 OA
HETATM   31  C   UNL     1      19.433  46.430  47.972  1.00  0.00     0.213 C 
ENDBRANCH  28  30
ENDBRANCH  25  28
ENDBRANCH   5  22
BRANCH   1  32
HETATM   32  C   UNL     1      26.341  39.511  45.936  1.00  0.00     0.133 C 
BRANCH  32  33
HETATM   33  C   UNL     1      26.649  38.063  46.329  1.00  0.00     0.020 C 
BRANCH  33  34
HETATM   34  C   UNL     1      28.132  37.742  46.149  1.00  0.00    -0.003 C 
HETATM   35  C   UNL     1      28.843  37.620  47.488  1.00  0.00     0.005 C 
ENDBRANCH  33  34
ENDBRANCH  32  33
ENDBRANCH   1  32
TORSDOF 9
ENDMDL
MODEL 10
REMARK VINA RESULT:      -6.6     16.172     18.734
REMARK  9 active torsions:
REMARK  status: ('A' for Active; 'I' for Inactive)
REMARK    1  A    between atoms: C_2  and  C_3 
REMARK    2  A    between atoms: C_3  and  C_4 
REMARK    3  A    between atoms: C_4  and  N_5 
REMARK    4  A    between atoms: C_9  and  C_10 
REMARK    5  A    between atoms: C_13  and  C_14 
REMARK    6  A    between atoms: C_14  and  O_15 
REMARK    7  A    between atoms: C_20  and  C_21 
REMARK       I    between atoms: C_21  and  N_22 
REMARK    8  A    between atoms: N_22  and  C_23 
REMARK    9  A    between atoms: C_24  and  O_25 
ROOT
HETATM    1  N   UNL     1      38.379  47.000  65.537  1.00  0.00    -0.303 N 
HETATM    2  C   UNL     1      37.075  47.368  65.207  1.00  0.00     0.323 C 
HETATM    3  O   UNL     1      36.582  48.469  65.444  1.00  0.00    -0.247 OA
HETATM    4  N   UNL     1      36.327  46.447  64.546  1.00  0.00    -0.330 N 
HETATM    5  C   UNL     1      36.653  45.049  64.420  1.00  0.00     0.160 C 
HETATM    6  C   UNL     1      38.123  44.840  64.603  1.00  0.00     0.059 C 
HETATM    7  C   UNL     1      38.928  45.757  65.182  1.00  0.00     0.026 C 
HETATM    8  C   UNL     1      40.380  45.487  65.499  1.00  0.00     0.069 C 
HETATM    9  H   UNL     1      35.372  46.734  64.388  1.00  0.00     0.165 HD
ENDROOT
BRANCH   6  10
HETATM   10  C   UNL     1      38.615  43.524  64.108  1.00  0.00     0.256 C 
HETATM   11  N   UNL     1      38.911  42.653  65.130  1.00  0.00    -0.321 N 
HETATM   12  H   UNL     1      38.731  42.945  66.087  1.00  0.00     0.169 HD
HETATM   13  O   UNL     1      38.748  43.330  62.909  1.00  0.00    -0.267 OA
BRANCH  11  14
HETATM   14  C   UNL     1      39.416  41.337  65.029  1.00  0.00     0.068 A 
HETATM   15  C   UNL     1      40.804  41.167  65.213  1.00  0.00     0.095 A 
HETATM   16  C   UNL     1      41.368  39.891  65.114  1.00  0.00     0.039 A 
HETATM   17  C   UNL     1      40.558  38.787  64.841  1.00  0.00     0.003 A 
HETATM   18  C   UNL     1      39.187  38.953  64.667  1.00  0.00     0.002 A 
HETATM   19  C   UNL     1      38.616  40.223  64.760  1.00  0.00     0.032 A 
BRANCH  15  20
HETATM   20  O   UNL     1      41.508  42.319  65.485  1.00  0.00    -0.354 OA
HETATM   21  C   UNL     1      42.805  42.158  66.049  1.00  0.00     0.210 C 
ENDBRANCH  15  20
ENDBRANCH  11  14
ENDBRANCH   6  10
BRANCH   5  22
HETATM   22  C   UNL     1      35.784  44.217  65.353  1.00  0.00    -0.031 A 
HETATM   23  C   UNL     1      35.508  44.681  66.649  1.00  0.00     0.010 A 
HETATM   24  C   UNL     1      34.646  43.972  67.492  1.00  0.00     0.018 A 
HETATM   25  C   UNL     1      34.043  42.788  67.053  1.00  0.00     0.039 A 
HETATM   26  C   UNL     1      34.339  42.300  65.776  1.00  0.00     0.018 A 
HETATM   27  C   UNL     1      35.205  43.006  64.935  1.00  0.00     0.010 A 
BRANCH  25  28
HETATM   28  C   UNL     1      33.085  42.108  67.967  1.00  0.00     0.292 C 
HETATM   29  O   UNL     1      33.356  41.101  68.601  1.00  0.00    -0.259 OA
BRANCH  28  30
HETATM   30  O   UNL     1      31.912  42.787  68.019  1.00  0.00    -0.323 OA
HETATM   31  C   UNL     1      31.444  43.033  69.345  1.00  0.00     0.213 C 
ENDBRANCH  28  30
ENDBRANCH  25  28
ENDBRANCH   5  22
BRANCH   1  32
HETATM   32  C   UNL     1      39.192  48.049  66.168  1.00  0.00     0.133 C 
BRANCH  32  33
HETATM   33  C   UNL     1      39.638  49.115  65.162  1.00  0.00     0.020 C 
BRANCH  33  34
HETATM   34  C   UNL     1      39.359  50.523  65.685  1.00  0.00    -0.003 C 
HETATM   35  C   UNL     1      38.958  50.504  67.152  1.00  0.00     0.005 C 
ENDBRANCH  33  34
ENDBRANCH  32  33
ENDBRANCH   1  32
TORSDOF 9
ENDMDL
