MODEL 1
REMARK VINA RESULT:     -10.9      0.000      0.000
REMARK  6 active torsions:
REMARK  status: ('A' for Active; 'I' for Inactive)
REMARK    1  A    between atoms: O_2  and  C_3 
REMARK    2  A    between atoms: C_8  and  C_9 
REMARK    3  A    between atoms: C_9  and  N_10 
REMARK    4  A    between atoms: N_13  and  C_26 
REMARK    5  A    between atoms: N_18  and  C_22 
REMARK    6  A    between atoms: C_29  and  C_32 
ROOT
HETATM    1  N   UNL     1      24.801  45.936  51.160  1.00  0.00    -0.318 N 
HETATM    2  C   UNL     1      25.700  46.357  52.158  1.00  0.00     0.326 C 
HETATM    3  O   UNL     1      25.877  47.525  52.458  1.00  0.00    -0.247 OA
HETATM    4  N   UNL     1      26.300  45.196  52.693  1.00  0.00    -0.297 N 
HETATM    5  C   UNL     1      25.656  44.020  52.154  1.00  0.00     0.165 C 
HETATM    6  C   UNL     1      24.985  44.520  50.846  1.00  0.00     0.057 C 
HETATM    7  C   UNL     1      23.665  43.789  50.561  1.00  0.00     0.060 C 
HETATM    8  C   UNL     1      23.871  42.349  50.112  1.00  0.00     0.238 C 
HETATM    9  N   UNL     1      24.814  42.261  48.946  1.00  0.00    -0.063 N 
HETATM   10  H   UNL     1      24.997  41.258  48.758  1.00  0.00     0.280 HD
HETATM   11  C   UNL     1      26.135  42.929  49.191  1.00  0.00     0.238 C 
HETATM   12  C   UNL     1      25.960  44.370  49.654  1.00  0.00     0.060 C 
ENDROOT
BRANCH   4  13
HETATM   13  C   UNL     1      27.296  45.158  53.706  1.00  0.00     0.039 A 
HETATM   14  C   UNL     1      28.292  44.176  53.716  1.00  0.00     0.030 A 
HETATM   15  C   UNL     1      29.250  44.115  54.739  1.00  0.00     0.014 A 
HETATM   16  C   UNL     1      29.241  45.035  55.789  1.00  0.00    -0.023 A 
HETATM   17  C   UNL     1      28.259  46.031  55.778  1.00  0.00     0.014 A 
HETATM   18  C   UNL     1      27.300  46.090  54.752  1.00  0.00     0.030 A 
BRANCH  16  19
HETATM   19  C   UNL     1      30.219  44.972  56.862  1.00  0.00     0.010 A 
HETATM   20  C   UNL     1      31.286  44.072  57.095  1.00  0.00     0.152 A 
HETATM   21  N   UNL     1      31.983  44.365  58.196  1.00  0.00    -0.187 NA
HETATM   22  N   UNL     1      31.360  45.448  58.684  1.00  0.00    -0.289 N 
HETATM   23  H   UNL     1      31.712  45.861  59.542  1.00  0.00     0.188 HD
HETATM   24  C   UNL     1      30.305  45.856  57.919  1.00  0.00     0.123 A 
ENDBRANCH  16  19
ENDBRANCH   4  13
BRANCH   1  25
HETATM   25  C   UNL     1      24.058  46.904  50.361  1.00  0.00     0.167 C 
BRANCH  25  26
HETATM   26  C   UNL     1      24.935  47.923  49.678  1.00  0.00    -0.035 A 
HETATM   27  C   UNL     1      26.332  47.823  49.690  1.00  0.00     0.051 A 
HETATM   28  C   UNL     1      27.103  48.747  48.991  1.00  0.00     0.119 A 
HETATM   29  C   UNL     1      26.518  49.766  48.248  1.00  0.00     0.079 A 
HETATM   30  F   UNL     1      28.438  48.651  49.035  1.00  0.00    -0.206 F 
HETATM   31  C   UNL     1      25.131  49.860  48.197  1.00  0.00     0.071 A 
HETATM   32  C   UNL     1      24.349  48.950  48.920  1.00  0.00     0.045 A 
BRANCH  31  33
HETATM   33  O   UNL     1      24.422  50.797  47.496  1.00  0.00    -0.356 OA
HETATM   34  C   UNL     1      23.057  50.955  47.875  1.00  0.00     0.210 C 
ENDBRANCH  31  33
ENDBRANCH  25  26
ENDBRANCH   1  25
BRANCH   9  35
HETATM   35  C   UNL     1      24.162  42.810  47.678  1.00  0.00     0.235 C 
HETATM   36  C   UNL     1      24.287  41.868  46.445  1.00  0.00     0.203 C 
HETATM   37  O   UNL     1      23.034  41.230  46.817  1.00  0.00    -0.387 OA
HETATM   38  C   UNL     1      22.658  42.439  47.533  1.00  0.00     0.203 C 
ENDBRANCH   9  35
TORSDOF 6
ENDMDL
MODEL 2
REMARK VINA RESULT:     -10.2      2.109      2.722
REMARK  6 active torsions:
REMARK  status: ('A' for Active; 'I' for Inactive)
REMARK    1  A    between atoms: O_2  and  C_3 
REMARK    2  A    between atoms: C_8  and  C_9 
REMARK    3  A    between atoms: C_9  and  N_10 
REMARK    4  A    between atoms: N_13  and  C_26 
REMARK    5  A    between atoms: N_18  and  C_22 
REMARK    6  A    between atoms: C_29  and  C_32 
ROOT
HETATM    1  N   UNL     1      24.669  46.182  49.936  1.00  0.00    -0.318 N 
HETATM    2  C   UNL     1      25.551  46.650  50.928  1.00  0.00     0.326 C 
HETATM    3  O   UNL     1      26.074  47.750  50.902  1.00  0.00    -0.247 OA
HETATM    4  N   UNL     1      25.674  45.624  51.891  1.00  0.00    -0.297 N 
HETATM    5  C   UNL     1      24.734  44.565  51.601  1.00  0.00     0.165 C 
HETATM    6  C   UNL     1      24.403  44.753  50.096  1.00  0.00     0.057 C 
HETATM    7  C   UNL     1      22.951  44.370  49.774  1.00  0.00     0.060 C 
HETATM    8  C   UNL     1      22.712  42.867  49.818  1.00  0.00     0.238 C 
HETATM    9  N   UNL     1      23.686  42.124  48.947  1.00  0.00    -0.063 N 
HETATM   10  H   UNL     1      23.543  41.109  49.104  1.00  0.00     0.280 HD
HETATM   11  C   UNL     1      25.121  42.437  49.251  1.00  0.00     0.238 C 
HETATM   12  C   UNL     1      25.388  43.937  49.225  1.00  0.00     0.060 C 
ENDROOT
BRANCH   4  13
HETATM   13  C   UNL     1      26.493  45.658  53.052  1.00  0.00     0.039 A 
HETATM   14  C   UNL     1      26.443  46.729  53.952  1.00  0.00     0.030 A 
HETATM   15  C   UNL     1      27.281  46.780  55.076  1.00  0.00     0.014 A 
HETATM   16  C   UNL     1      28.200  45.762  55.335  1.00  0.00    -0.023 A 
HETATM   17  C   UNL     1      28.244  44.680  54.450  1.00  0.00     0.014 A 
HETATM   18  C   UNL     1      27.404  44.630  53.325  1.00  0.00     0.030 A 
BRANCH  16  19
HETATM   19  C   UNL     1      29.084  45.813  56.487  1.00  0.00     0.010 A 
HETATM   20  C   UNL     1      28.840  46.190  57.829  1.00  0.00     0.152 A 
HETATM   21  N   UNL     1      29.921  46.078  58.606  1.00  0.00    -0.187 NA
HETATM   22  N   UNL     1      30.870  45.640  57.764  1.00  0.00    -0.289 N 
HETATM   23  H   UNL     1      31.803  45.482  58.129  1.00  0.00     0.188 HD
HETATM   24  C   UNL     1      30.418  45.458  56.488  1.00  0.00     0.123 A 
ENDBRANCH  16  19
ENDBRANCH   4  13
BRANCH   1  25
HETATM   25  C   UNL     1      24.374  46.984  48.754  1.00  0.00     0.167 C 
BRANCH  25  26
HETATM   26  C   UNL     1      23.335  48.051  48.994  1.00  0.00    -0.035 A 
HETATM   27  C   UNL     1      23.673  49.408  49.068  1.00  0.00     0.051 A 
HETATM   28  C   UNL     1      22.676  50.367  49.224  1.00  0.00     0.119 A 
HETATM   29  C   UNL     1      21.332  50.015  49.281  1.00  0.00     0.079 A 
HETATM   30  F   UNL     1      23.020  51.658  49.319  1.00  0.00    -0.206 F 
HETATM   31  C   UNL     1      20.976  48.674  49.173  1.00  0.00     0.071 A 
HETATM   32  C   UNL     1      21.976  47.701  49.044  1.00  0.00     0.045 A 
BRANCH  31  33
HETATM   33  O   UNL     1      19.699  48.186  49.196  1.00  0.00    -0.356 OA
HETATM   34  C   UNL     1      18.883  48.629  50.279  1.00  0.00     0.210 C 
ENDBRANCH  31  33
ENDBRANCH  25  26
ENDBRANCH   1  25
BRANCH   9  35
HETATM   35  C   UNL     1      23.385  42.364  47.469  1.00  0.00     0.235 C 
HETATM   36  C   UNL     1      24.231  41.487  46.502  1.00  0.00     0.203 C 
HETATM   37  O   UNL     1      23.202  40.459  46.547  1.00  0.00    -0.387 OA
HETATM   38  C   UNL     1      22.232  41.481  46.910  1.00  0.00     0.203 C 
ENDBRANCH   9  35
TORSDOF 6
ENDMDL
MODEL 3
REMARK VINA RESULT:     -10.0      3.435      6.122
REMARK  6 active torsions:
REMARK  status: ('A' for Active; 'I' for Inactive)
REMARK    1  A    between atoms: O_2  and  C_3 
REMARK    2  A    between atoms: C_8  and  C_9 
REMARK    3  A    between atoms: C_9  and  N_10 
REMARK    4  A    between atoms: N_13  and  C_26 
REMARK    5  A    between atoms: N_18  and  C_22 
REMARK    6  A    between atoms: C_29  and  C_32 
ROOT
HETATM    1  N   UNL     1      26.385  41.784  50.803  1.00  0.00    -0.318 N 
HETATM    2  C   UNL     1      27.221  41.745  51.934  1.00  0.00     0.326 C 
HETATM    3  O   UNL     1      27.619  40.714  52.445  1.00  0.00    -0.247 OA
HETATM    4  N   UNL     1      27.476  43.083  52.308  1.00  0.00    -0.297 N 
HETATM    5  C   UNL     1      26.939  43.981  51.310  1.00  0.00     0.165 C 
HETATM    6  C   UNL     1      25.869  43.133  50.572  1.00  0.00     0.057 C 
HETATM    7  C   UNL     1      25.774  43.496  49.083  1.00  0.00     0.060 C 
HETATM    8  C   UNL     1      25.118  44.849  48.845  1.00  0.00     0.238 C 
HETATM    9  N   UNL     1      23.781  44.945  49.524  1.00  0.00    -0.063 N 
HETATM   10  H   UNL     1      23.438  45.918  49.416  1.00  0.00     0.280 HD
HETATM   11  C   UNL     1      23.831  44.636  50.991  1.00  0.00     0.238 C 
HETATM   12  C   UNL     1      24.493  43.291  51.261  1.00  0.00     0.060 C 
ENDROOT
BRANCH   4  13
HETATM   13  C   UNL     1      28.250  43.510  53.421  1.00  0.00     0.039 A 
HETATM   14  C   UNL     1      29.428  42.851  53.788  1.00  0.00     0.030 A 
HETATM   15  C   UNL     1      30.170  43.247  54.911  1.00  0.00     0.014 A 
HETATM   16  C   UNL     1      29.755  44.317  55.706  1.00  0.00    -0.023 A 
HETATM   17  C   UNL     1      28.587  44.993  55.336  1.00  0.00     0.014 A 
HETATM   18  C   UNL     1      27.845  44.594  54.211  1.00  0.00     0.030 A 
BRANCH  16  19
HETATM   19  C   UNL     1      30.506  44.727  56.880  1.00  0.00     0.010 A 
HETATM   20  C   UNL     1      31.548  44.082  57.588  1.00  0.00     0.152 A 
HETATM   21  N   UNL     1      32.002  44.803  58.616  1.00  0.00    -0.187 NA
HETATM   22  N   UNL     1      31.246  45.910  58.583  1.00  0.00    -0.289 N 
HETATM   23  H   UNL     1      31.405  46.623  59.287  1.00  0.00     0.188 HD
HETATM   24  C   UNL     1      30.343  45.918  57.559  1.00  0.00     0.123 A 
ENDBRANCH  16  19
ENDBRANCH   4  13
BRANCH   1  25
HETATM   25  C   UNL     1      25.881  40.556  50.199  1.00  0.00     0.167 C 
BRANCH  25  26
HETATM   26  C   UNL     1      26.811  39.965  49.168  1.00  0.00    -0.035 A 
HETATM   27  C   UNL     1      26.745  40.330  47.818  1.00  0.00     0.051 A 
HETATM   28  C   UNL     1      27.666  39.812  46.911  1.00  0.00     0.119 A 
HETATM   29  C   UNL     1      28.680  38.953  47.316  1.00  0.00     0.079 A 
HETATM   30  F   UNL     1      27.571  40.151  45.619  1.00  0.00    -0.206 F 
HETATM   31  C   UNL     1      28.782  38.608  48.661  1.00  0.00     0.071 A 
HETATM   32  C   UNL     1      27.842  39.103  49.575  1.00  0.00     0.045 A 
BRANCH  31  33
HETATM   33  O   UNL     1      29.735  37.790  49.202  1.00  0.00    -0.356 OA
HETATM   34  C   UNL     1      29.789  37.756  50.627  1.00  0.00     0.210 C 
ENDBRANCH  31  33
ENDBRANCH  25  26
ENDBRANCH   1  25
BRANCH   9  35
HETATM   35  C   UNL     1      22.751  44.061  48.823  1.00  0.00     0.235 C 
HETATM   36  C   UNL     1      21.330  44.690  48.741  1.00  0.00     0.203 C 
HETATM   37  O   UNL     1      21.681  45.297  47.467  1.00  0.00    -0.387 OA
HETATM   38  C   UNL     1      22.691  44.266  47.282  1.00  0.00     0.203 C 
ENDBRANCH   9  35
TORSDOF 6
ENDMDL
MODEL 4
REMARK VINA RESULT:      -9.9      3.294      4.991
REMARK  6 active torsions:
REMARK  status: ('A' for Active; 'I' for Inactive)
REMARK    1  A    between atoms: O_2  and  C_3 
REMARK    2  A    between atoms: C_8  and  C_9 
REMARK    3  A    between atoms: C_9  and  N_10 
REMARK    4  A    between atoms: N_13  and  C_26 
REMARK    5  A    between atoms: N_18  and  C_22 
REMARK    6  A    between atoms: C_29  and  C_32 
ROOT
HETATM    1  N   UNL     1      26.927  42.315  49.670  1.00  0.00    -0.318 N 
HETATM    2  C   UNL     1      27.456  43.202  50.625  1.00  0.00     0.326 C 
HETATM    3  O   UNL     1      27.450  44.414  50.497  1.00  0.00    -0.247 OA
HETATM    4  N   UNL     1      27.957  42.418  51.688  1.00  0.00    -0.297 N 
HETATM    5  C   UNL     1      27.591  41.034  51.489  1.00  0.00     0.165 C 
HETATM    6  C   UNL     1      27.300  40.933  49.968  1.00  0.00     0.057 C 
HETATM    7  C   UNL     1      26.181  39.926  49.662  1.00  0.00     0.060 C 
HETATM    8  C   UNL     1      26.618  38.480  49.853  1.00  0.00     0.238 C 
HETATM    9  N   UNL     1      27.867  38.171  49.077  1.00  0.00    -0.063 N 
HETATM   10  H   UNL     1      28.171  37.212  49.332  1.00  0.00     0.280 HD
HETATM   11  C   UNL     1      29.002  39.106  49.372  1.00  0.00     0.238 C 
HETATM   12  C   UNL     1      28.592  40.562  49.200  1.00  0.00     0.060 C 
ENDROOT
BRANCH   4  13
HETATM   13  C   UNL     1      28.609  42.904  52.853  1.00  0.00     0.039 A 
HETATM   14  C   UNL     1      29.937  42.568  53.142  1.00  0.00     0.030 A 
HETATM   15  C   UNL     1      30.567  43.015  54.313  1.00  0.00     0.014 A 
HETATM   16  C   UNL     1      29.888  43.813  55.236  1.00  0.00    -0.023 A 
HETATM   17  C   UNL     1      28.566  44.167  54.946  1.00  0.00     0.014 A 
HETATM   18  C   UNL     1      27.936  43.719  53.773  1.00  0.00     0.030 A 
BRANCH  16  19
HETATM   19  C   UNL     1      30.525  44.268  56.459  1.00  0.00     0.010 A 
HETATM   20  C   UNL     1      31.527  43.672  57.263  1.00  0.00     0.152 A 
HETATM   21  N   UNL     1      31.869  44.426  58.311  1.00  0.00    -0.187 NA
HETATM   22  N   UNL     1      31.081  45.505  58.194  1.00  0.00    -0.289 N 
HETATM   23  H   UNL     1      31.157  46.235  58.895  1.00  0.00     0.188 HD
HETATM   24  C   UNL     1      30.266  45.464  57.100  1.00  0.00     0.123 A 
ENDBRANCH  16  19
ENDBRANCH   4  13
BRANCH   1  25
HETATM   25  C   UNL     1      26.382  42.805  48.409  1.00  0.00     0.167 C 
BRANCH  25  26
HETATM   26  C   UNL     1      24.924  43.186  48.490  1.00  0.00    -0.035 A 
HETATM   27  C   UNL     1      24.514  44.439  48.960  1.00  0.00     0.051 A 
HETATM   28  C   UNL     1      23.163  44.777  48.956  1.00  0.00     0.119 A 
HETATM   29  C   UNL     1      22.198  43.905  48.465  1.00  0.00     0.079 A 
HETATM   30  F   UNL     1      22.787  45.970  49.435  1.00  0.00    -0.206 F 
HETATM   31  C   UNL     1      22.592  42.670  47.961  1.00  0.00     0.071 A 
HETATM   32  C   UNL     1      23.947  42.311  47.988  1.00  0.00     0.045 A 
BRANCH  31  33
HETATM   33  O   UNL     1      21.758  41.723  47.433  1.00  0.00    -0.356 OA
HETATM   34  C   UNL     1      22.224  40.377  47.501  1.00  0.00     0.210 C 
ENDBRANCH  31  33
ENDBRANCH  25  26
ENDBRANCH   1  25
BRANCH   9  35
HETATM   35  C   UNL     1      27.579  38.130  47.578  1.00  0.00     0.235 C 
HETATM   36  C   UNL     1      28.408  37.065  46.804  1.00  0.00     0.203 C 
HETATM   37  O   UNL     1      27.355  36.089  47.035  1.00  0.00    -0.387 OA
HETATM   38  C   UNL     1      26.408  37.184  47.187  1.00  0.00     0.203 C 
ENDBRANCH   9  35
TORSDOF 6
ENDMDL
MODEL 5
REMARK VINA RESULT:      -9.8      3.551      8.105
REMARK  6 active torsions:
REMARK  status: ('A' for Active; 'I' for Inactive)
REMARK    1  A    between atoms: O_2  and  C_3 
REMARK    2  A    between atoms: C_8  and  C_9 
REMARK    3  A    between atoms: C_9  and  N_10 
REMARK    4  A    between atoms: N_13  and  C_26 
REMARK    5  A    between atoms: N_18  and  C_22 
REMARK    6  A    between atoms: C_29  and  C_32 
ROOT
HETATM    1  N   UNL     1      26.207  43.353  52.048  1.00  0.00    -0.318 N 
HETATM    2  C   UNL     1      25.395  44.499  51.967  1.00  0.00     0.326 C 
HETATM    3  O   UNL     1      24.934  45.071  52.939  1.00  0.00    -0.247 OA
HETATM    4  N   UNL     1      25.252  44.811  50.597  1.00  0.00    -0.297 N 
HETATM    5  C   UNL     1      26.117  43.962  49.809  1.00  0.00     0.165 C 
HETATM    6  C   UNL     1      26.398  42.745  50.732  1.00  0.00     0.057 C 
HETATM    7  C   UNL     1      27.811  42.181  50.526  1.00  0.00     0.060 C 
HETATM    8  C   UNL     1      27.966  41.439  49.207  1.00  0.00     0.238 C 
HETATM    9  N   UNL     1      26.917  40.375  49.043  1.00  0.00    -0.063 N 
HETATM   10  H   UNL     1      27.008  39.982  48.087  1.00  0.00     0.280 HD
HETATM   11  C   UNL     1      25.515  40.886  49.197  1.00  0.00     0.238 C 
HETATM   12  C   UNL     1      25.333  41.645  50.505  1.00  0.00     0.060 C 
ENDROOT
BRANCH   4  13
HETATM   13  C   UNL     1      24.483  45.876  50.055  1.00  0.00     0.039 A 
HETATM   14  C   UNL     1      24.797  47.214  50.320  1.00  0.00     0.030 A 
HETATM   15  C   UNL     1      24.014  48.263  49.818  1.00  0.00     0.014 A 
HETATM   16  C   UNL     1      22.887  48.008  49.035  1.00  0.00    -0.023 A 
HETATM   17  C   UNL     1      22.575  46.675  48.751  1.00  0.00     0.014 A 
HETATM   18  C   UNL     1      23.361  45.625  49.255  1.00  0.00     0.030 A 
BRANCH  16  19
HETATM   19  C   UNL     1      22.059  49.087  48.523  1.00  0.00     0.010 A 
HETATM   20  C   UNL     1      21.019  49.085  47.563  1.00  0.00     0.152 A 
HETATM   21  N   UNL     1      20.478  50.293  47.379  1.00  0.00    -0.187 NA
HETATM   22  N   UNL     1      21.176  51.080  48.211  1.00  0.00    -0.289 N 
HETATM   23  H   UNL     1      20.946  52.068  48.246  1.00  0.00     0.188 HD
HETATM   24  C   UNL     1      22.126  50.407  48.924  1.00  0.00     0.123 A 
ENDBRANCH  16  19
ENDBRANCH   4  13
BRANCH   1  25
HETATM   25  C   UNL     1      26.500  42.729  53.333  1.00  0.00     0.167 C 
BRANCH  25  26
HETATM   26  C   UNL     1      27.667  43.356  54.056  1.00  0.00    -0.035 A 
HETATM   27  C   UNL     1      28.927  42.747  54.093  1.00  0.00     0.051 A 
HETATM   28  C   UNL     1      29.995  43.391  54.713  1.00  0.00     0.119 A 
HETATM   29  C   UNL     1      29.851  44.652  55.280  1.00  0.00     0.079 A 
HETATM   30  F   UNL     1      31.186  42.781  54.762  1.00  0.00    -0.206 F 
HETATM   31  C   UNL     1      28.615  45.287  55.221  1.00  0.00     0.071 A 
HETATM   32  C   UNL     1      27.529  44.633  54.624  1.00  0.00     0.045 A 
BRANCH  31  33
HETATM   33  O   UNL     1      28.334  46.529  55.721  1.00  0.00    -0.356 OA
HETATM   34  C   UNL     1      27.264  47.227  55.086  1.00  0.00     0.210 C 
ENDBRANCH  31  33
ENDBRANCH  25  26
ENDBRANCH   1  25
BRANCH   9  35
HETATM   35  C   UNL     1      27.172  39.209  49.997  1.00  0.00     0.235 C 
HETATM   36  C   UNL     1      26.867  37.812  49.383  1.00  0.00     0.203 C 
HETATM   37  O   UNL     1      28.240  37.729  48.911  1.00  0.00    -0.387 OA
HETATM   38  C   UNL     1      28.630  38.667  49.952  1.00  0.00     0.203 C 
ENDBRANCH   9  35
TORSDOF 6
ENDMDL
MODEL 6
REMARK VINA RESULT:      -9.7      4.059      5.729
REMARK  6 active torsions:
REMARK  status: ('A' for Active; 'I' for Inactive)
REMARK    1  A    between atoms: O_2  and  C_3 
REMARK    2  A    between atoms: C_8  and  C_9 
REMARK    3  A    between atoms: C_9  and  N_10 
REMARK    4  A    between atoms: N_13  and  C_26 
REMARK    5  A    between atoms: N_18  and  C_22 
REMARK    6  A    between atoms: C_29  and  C_32 
ROOT
HETATM    1  N   UNL     1      22.227  47.630  48.257  1.00  0.00    -0.318 N 
HETATM    2  C   UNL     1      23.439  47.496  48.959  1.00  0.00     0.326 C 
HETATM    3  O   UNL     1      24.239  48.404  49.104  1.00  0.00    -0.247 OA
HETATM    4  N   UNL     1      23.505  46.165  49.425  1.00  0.00    -0.297 N 
HETATM    5  C   UNL     1      22.251  45.494  49.167  1.00  0.00     0.165 C 
HETATM    6  C   UNL     1      21.601  46.328  48.030  1.00  0.00     0.057 C 
HETATM    7  C   UNL     1      20.071  46.365  48.147  1.00  0.00     0.060 C 
HETATM    8  C   UNL     1      19.417  45.039  47.786  1.00  0.00     0.238 C 
HETATM    9  N   UNL     1      19.855  44.554  46.433  1.00  0.00    -0.063 N 
HETATM   10  H   UNL     1      19.464  43.604  46.292  1.00  0.00     0.280 HD
HETATM   11  C   UNL     1      21.345  44.464  46.283  1.00  0.00     0.238 C 
HETATM   12  C   UNL     1      22.029  45.775  46.649  1.00  0.00     0.060 C 
ENDROOT
BRANCH   4  13
HETATM   13  C   UNL     1      24.576  45.585  50.157  1.00  0.00     0.039 A 
HETATM   14  C   UNL     1      24.416  45.171  51.485  1.00  0.00     0.030 A 
HETATM   15  C   UNL     1      25.485  44.637  52.219  1.00  0.00     0.014 A 
HETATM   16  C   UNL     1      26.752  44.500  51.649  1.00  0.00    -0.023 A 
HETATM   17  C   UNL     1      26.916  44.894  50.317  1.00  0.00     0.014 A 
HETATM   18  C   UNL     1      25.844  45.430  49.583  1.00  0.00     0.030 A 
BRANCH  16  19
HETATM   19  C   UNL     1      27.870  43.962  52.405  1.00  0.00     0.010 A 
HETATM   20  C   UNL     1      28.453  44.379  53.625  1.00  0.00     0.152 A 
HETATM   21  N   UNL     1      29.467  43.599  54.010  1.00  0.00    -0.187 NA
HETATM   22  N   UNL     1      29.549  42.683  53.034  1.00  0.00    -0.289 N 
HETATM   23  H   UNL     1      30.265  41.968  53.103  1.00  0.00     0.188 HD
HETATM   24  C   UNL     1      28.611  42.850  52.056  1.00  0.00     0.123 A 
ENDBRANCH  16  19
ENDBRANCH   4  13
BRANCH   1  25
HETATM   25  C   UNL     1      21.879  48.878  47.589  1.00  0.00     0.167 C 
BRANCH  25  26
HETATM   26  C   UNL     1      20.982  49.771  48.410  1.00  0.00    -0.035 A 
HETATM   27  C   UNL     1      20.584  51.036  47.958  1.00  0.00     0.051 A 
HETATM   28  C   UNL     1      19.702  51.801  48.716  1.00  0.00     0.119 A 
HETATM   29  C   UNL     1      19.174  51.328  49.913  1.00  0.00     0.079 A 
HETATM   30  F   UNL     1      19.354  53.018  48.281  1.00  0.00    -0.206 F 
HETATM   31  C   UNL     1      19.531  50.059  50.359  1.00  0.00     0.071 A 
HETATM   32  C   UNL     1      20.440  49.295  49.615  1.00  0.00     0.045 A 
BRANCH  31  33
HETATM   33  O   UNL     1      19.079  49.462  51.503  1.00  0.00    -0.356 OA
HETATM   34  C   UNL     1      18.409  48.215  51.331  1.00  0.00     0.210 C 
ENDBRANCH  31  33
ENDBRANCH  25  26
ENDBRANCH   1  25
BRANCH   9  35
HETATM   35  C   UNL     1      19.256  45.419  45.325  1.00  0.00     0.235 C 
HETATM   36  C   UNL     1      19.188  44.713  43.940  1.00  0.00     0.203 C 
HETATM   37  O   UNL     1      17.863  44.211  44.270  1.00  0.00    -0.387 OA
HETATM   38  C   UNL     1      17.708  45.310  45.211  1.00  0.00     0.203 C 
ENDBRANCH   9  35
TORSDOF 6
ENDMDL
MODEL 7
REMARK VINA RESULT:      -9.5      3.472      5.692
REMARK  6 active torsions:
REMARK  status: ('A' for Active; 'I' for Inactive)
REMARK    1  A    between atoms: O_2  and  C_3 
REMARK    2  A    between atoms: C_8  and  C_9 
REMARK    3  A    between atoms: C_9  and  N_10 
REMARK    4  A    between atoms: N_13  and  C_26 
REMARK    5  A    between atoms: N_18  and  C_22 
REMARK    6  A    between atoms: C_29  and  C_32 
ROOT
HETATM    1  N   UNL     1      26.157  41.807  50.260  1.00  0.00    -0.318 N 
HETATM    2  C   UNL     1      27.042  41.622  51.339  1.00  0.00     0.326 C 
HETATM    3  O   UNL     1      27.491  40.538  51.665  1.00  0.00    -0.247 OA
HETATM    4  N   UNL     1      27.273  42.893  51.909  1.00  0.00    -0.297 N 
HETATM    5  C   UNL     1      26.668  43.916  51.086  1.00  0.00     0.165 C 
HETATM    6  C   UNL     1      25.592  43.156  50.265  1.00  0.00     0.057 C 
HETATM    7  C   UNL     1      25.422  43.744  48.857  1.00  0.00     0.060 C 
HETATM    8  C   UNL     1      24.717  45.094  48.860  1.00  0.00     0.238 C 
HETATM    9  N   UNL     1      23.409  45.035  49.596  1.00  0.00    -0.063 N 
HETATM   10  H   UNL     1      23.033  46.000  49.656  1.00  0.00     0.280 HD
HETATM   11  C   UNL     1      23.531  44.502  50.993  1.00  0.00     0.238 C 
HETATM   12  C   UNL     1      24.242  43.156  51.023  1.00  0.00     0.060 C 
ENDROOT
BRANCH   4  13
HETATM   13  C   UNL     1      28.082  43.168  53.045  1.00  0.00     0.039 A 
HETATM   14  C   UNL     1      27.581  43.871  54.147  1.00  0.00     0.030 A 
HETATM   15  C   UNL     1      28.393  44.177  55.250  1.00  0.00     0.014 A 
HETATM   16  C   UNL     1      29.734  43.792  55.285  1.00  0.00    -0.023 A 
HETATM   17  C   UNL     1      30.237  43.074  54.196  1.00  0.00     0.014 A 
HETATM   18  C   UNL     1      29.424  42.768  53.092  1.00  0.00     0.030 A 
BRANCH  16  19
HETATM   19  C   UNL     1      30.587  44.117  56.415  1.00  0.00     0.010 A 
HETATM   20  C   UNL     1      31.666  43.411  56.999  1.00  0.00     0.152 A 
HETATM   21  N   UNL     1      32.219  44.062  58.026  1.00  0.00    -0.187 NA
HETATM   22  N   UNL     1      31.491  45.185  58.116  1.00  0.00    -0.289 N 
HETATM   23  H   UNL     1      31.724  45.853  58.843  1.00  0.00     0.188 HD
HETATM   24  C   UNL     1      30.509  45.271  57.171  1.00  0.00     0.123 A 
ENDBRANCH  16  19
ENDBRANCH   4  13
BRANCH   1  25
HETATM   25  C   UNL     1      25.663  40.672  49.490  1.00  0.00     0.167 C 
BRANCH  25  26
HETATM   26  C   UNL     1      26.584  40.258  48.369  1.00  0.00    -0.035 A 
HETATM   27  C   UNL     1      27.504  39.213  48.516  1.00  0.00     0.051 A 
HETATM   28  C   UNL     1      28.289  38.817  47.437  1.00  0.00     0.119 A 
HETATM   29  C   UNL     1      28.165  39.420  46.190  1.00  0.00     0.079 A 
HETATM   30  F   UNL     1      29.183  37.834  47.604  1.00  0.00    -0.206 F 
HETATM   31  C   UNL     1      27.231  40.436  46.016  1.00  0.00     0.071 A 
HETATM   32  C   UNL     1      26.457  40.858  47.106  1.00  0.00     0.045 A 
BRANCH  31  33
HETATM   33  O   UNL     1      26.990  41.104  44.847  1.00  0.00    -0.356 OA
HETATM   34  C   UNL     1      25.621  41.207  44.461  1.00  0.00     0.210 C 
ENDBRANCH  31  33
ENDBRANCH  25  26
ENDBRANCH   1  25
BRANCH   9  35
HETATM   35  C   UNL     1      22.376  44.235  48.804  1.00  0.00     0.235 C 
HETATM   36  C   UNL     1      20.998  44.945  48.665  1.00  0.00     0.203 C 
HETATM   37  O   UNL     1      21.456  45.576  47.437  1.00  0.00    -0.387 OA
HETATM   38  C   UNL     1      22.418  44.497  47.271  1.00  0.00     0.203 C 
ENDBRANCH   9  35
TORSDOF 6
ENDMDL
MODEL 8
REMARK VINA RESULT:      -9.4      4.024      5.900
REMARK  6 active torsions:
REMARK  status: ('A' for Active; 'I' for Inactive)
REMARK    1  A    between atoms: O_2  and  C_3 
REMARK    2  A    between atoms: C_8  and  C_9 
REMARK    3  A    between atoms: C_9  and  N_10 
REMARK    4  A    between atoms: N_13  and  C_26 
REMARK    5  A    between atoms: N_18  and  C_22 
REMARK    6  A    between atoms: C_29  and  C_32 
ROOT
HETATM    1  N   UNL     1      27.044  41.484  49.138  1.00  0.00    -0.318 N 
HETATM    2  C   UNL     1      27.443  42.388  50.139  1.00  0.00     0.326 C 
HETATM    3  O   UNL     1      27.282  43.593  50.062  1.00  0.00    -0.247 OA
HETATM    4  N   UNL     1      28.025  41.628  51.177  1.00  0.00    -0.297 N 
HETATM    5  C   UNL     1      27.842  40.219  50.914  1.00  0.00     0.165 C 
HETATM    6  C   UNL     1      27.587  40.148  49.384  1.00  0.00     0.057 C 
HETATM    7  C   UNL     1      26.611  39.022  49.015  1.00  0.00     0.060 C 
HETATM    8  C   UNL     1      27.227  37.637  49.154  1.00  0.00     0.238 C 
HETATM    9  N   UNL     1      28.516  37.523  48.389  1.00  0.00    -0.063 N 
HETATM   10  H   UNL     1      28.937  36.601  48.610  1.00  0.00     0.280 HD
HETATM   11  C   UNL     1      29.518  38.582  48.745  1.00  0.00     0.238 C 
HETATM   12  C   UNL     1      28.926  39.980  48.626  1.00  0.00     0.060 C 
ENDROOT
BRANCH   4  13
HETATM   13  C   UNL     1      28.594  42.142  52.374  1.00  0.00     0.039 A 
HETATM   14  C   UNL     1      27.799  42.696  53.384  1.00  0.00     0.030 A 
HETATM   15  C   UNL     1      28.366  43.240  54.546  1.00  0.00     0.014 A 
HETATM   16  C   UNL     1      29.749  43.249  54.736  1.00  0.00    -0.023 A 
HETATM   17  C   UNL     1      30.550  42.682  53.740  1.00  0.00     0.014 A 
HETATM   18  C   UNL     1      29.981  42.138  52.576  1.00  0.00     0.030 A 
BRANCH  16  19
HETATM   19  C   UNL     1      30.347  43.823  55.929  1.00  0.00     0.010 A 
HETATM   20  C   UNL     1      31.282  43.291  56.848  1.00  0.00     0.152 A 
HETATM   21  N   UNL     1      31.608  44.151  57.816  1.00  0.00    -0.187 NA
HETATM   22  N   UNL     1      30.874  45.238  57.532  1.00  0.00    -0.289 N 
HETATM   23  H   UNL     1      30.948  46.043  58.145  1.00  0.00     0.188 HD
HETATM   24  C   UNL     1      30.110  45.096  56.409  1.00  0.00     0.123 A 
ENDBRANCH  16  19
ENDBRANCH   4  13
BRANCH   1  25
HETATM   25  C   UNL     1      26.458  41.955  47.888  1.00  0.00     0.167 C 
BRANCH  25  26
HETATM   26  C   UNL     1      24.965  41.755  47.810  1.00  0.00    -0.035 A 
HETATM   27  C   UNL     1      24.402  40.616  47.220  1.00  0.00     0.051 A 
HETATM   28  C   UNL     1      23.021  40.438  47.228  1.00  0.00     0.119 A 
HETATM   29  C   UNL     1      22.174  41.356  47.837  1.00  0.00     0.079 A 
HETATM   30  F   UNL     1      22.499  39.356  46.636  1.00  0.00    -0.206 F 
HETATM   31  C   UNL     1      22.719  42.475  48.459  1.00  0.00     0.071 A 
HETATM   32  C   UNL     1      24.105  42.676  48.431  1.00  0.00     0.045 A 
BRANCH  31  33
HETATM   33  O   UNL     1      22.010  43.448  49.109  1.00  0.00    -0.356 OA
HETATM   34  C   UNL     1      22.554  44.765  49.038  1.00  0.00     0.210 C 
ENDBRANCH  31  33
ENDBRANCH  25  26
ENDBRANCH   1  25
BRANCH   9  35
HETATM   35  C   UNL     1      28.256  37.513  46.884  1.00  0.00     0.235 C 
HETATM   36  C   UNL     1      29.340  36.759  46.061  1.00  0.00     0.203 C 
HETATM   37  O   UNL     1      28.579  35.527  46.204  1.00  0.00    -0.387 OA
HETATM   38  C   UNL     1      27.377  36.321  46.406  1.00  0.00     0.203 C 
ENDBRANCH   9  35
TORSDOF 6
ENDMDL
MODEL 9
REMARK VINA RESULT:      -9.2      4.037      5.590
REMARK  6 active torsions:
REMARK  status: ('A' for Active; 'I' for Inactive)
REMARK    1  A    between atoms: O_2  and  C_3 
REMARK    2  A    between atoms: C_8  and  C_9 
REMARK    3  A    between atoms: C_9  and  N_10 
REMARK    4  A    between atoms: N_13  and  C_26 
REMARK    5  A    between atoms: N_18  and  C_22 
REMARK    6  A    between atoms: C_29  and  C_32 
ROOT
HETATM    1  N   UNL     1      21.916  47.008  48.118  1.00  0.00    -0.318 N 
HETATM    2  C   UNL     1      23.048  47.070  48.952  1.00  0.00     0.326 C 
HETATM    3  O   UNL     1      23.561  48.112  49.317  1.00  0.00    -0.247 OA
HETATM    4  N   UNL     1      23.421  45.740  49.246  1.00  0.00    -0.297 N 
HETATM    5  C   UNL     1      22.420  44.828  48.739  1.00  0.00     0.165 C 
HETATM    6  C   UNL     1      21.682  45.644  47.644  1.00  0.00     0.057 C 
HETATM    7  C   UNL     1      20.193  45.281  47.562  1.00  0.00     0.060 C 
HETATM    8  C   UNL     1      19.951  43.909  46.948  1.00  0.00     0.238 C 
HETATM    9  N   UNL     1      20.629  43.770  45.614  1.00  0.00    -0.063 N 
HETATM   10  H   UNL     1      20.519  42.788  45.301  1.00  0.00     0.280 HD
HETATM   11  C   UNL     1      22.096  44.078  45.652  1.00  0.00     0.238 C 
HETATM   12  C   UNL     1      22.370  45.442  46.272  1.00  0.00     0.060 C 
ENDROOT
BRANCH   4  13
HETATM   13  C   UNL     1      24.533  45.335  50.032  1.00  0.00     0.039 A 
HETATM   14  C   UNL     1      25.830  45.312  49.507  1.00  0.00     0.030 A 
HETATM   15  C   UNL     1      26.922  44.874  50.271  1.00  0.00     0.014 A 
HETATM   16  C   UNL     1      26.751  44.440  51.587  1.00  0.00    -0.023 A 
HETATM   17  C   UNL     1      25.461  44.475  52.125  1.00  0.00     0.014 A 
HETATM   18  C   UNL     1      24.368  44.915  51.358  1.00  0.00     0.030 A 
BRANCH  16  19
HETATM   19  C   UNL     1      27.872  43.968  52.382  1.00  0.00     0.010 A 
HETATM   20  C   UNL     1      28.895  43.036  52.086  1.00  0.00     0.152 A 
HETATM   21  N   UNL     1      29.768  42.887  53.085  1.00  0.00    -0.187 NA
HETATM   22  N   UNL     1      29.306  43.714  54.034  1.00  0.00    -0.289 N 
HETATM   23  H   UNL     1      29.812  43.771  54.912  1.00  0.00     0.188 HD
HETATM   24  C   UNL     1      28.180  44.390  53.660  1.00  0.00     0.123 A 
ENDBRANCH  16  19
ENDBRANCH   4  13
BRANCH   1  25
HETATM   25  C   UNL     1      21.313  48.220  47.577  1.00  0.00     0.167 C 
BRANCH  25  26
HETATM   26  C   UNL     1      20.333  48.877  48.518  1.00  0.00    -0.035 A 
HETATM   27  C   UNL     1      19.766  48.187  49.595  1.00  0.00     0.051 A 
HETATM   28  C   UNL     1      18.918  48.848  50.479  1.00  0.00     0.119 A 
HETATM   29  C   UNL     1      18.635  50.202  50.337  1.00  0.00     0.079 A 
HETATM   30  F   UNL     1      18.364  48.164  51.488  1.00  0.00    -0.206 F 
HETATM   31  C   UNL     1      19.218  50.912  49.292  1.00  0.00     0.071 A 
HETATM   32  C   UNL     1      20.050  50.247  48.383  1.00  0.00     0.045 A 
BRANCH  31  33
HETATM   33  O   UNL     1      19.043  52.245  49.042  1.00  0.00    -0.356 OA
HETATM   34  C   UNL     1      17.746  52.767  49.326  1.00  0.00     0.210 C 
ENDBRANCH  31  33
ENDBRANCH  25  26
ENDBRANCH   1  25
BRANCH   9  35
HETATM   35  C   UNL     1      19.928  44.624  44.558  1.00  0.00     0.235 C 
HETATM   36  C   UNL     1      20.022  44.047  43.116  1.00  0.00     0.203 C 
HETATM   37  O   UNL     1      18.790  43.308  43.340  1.00  0.00    -0.387 OA
HETATM   38  C   UNL     1      18.424  44.274  44.364  1.00  0.00     0.203 C 
ENDBRANCH   9  35
TORSDOF 6
ENDMDL
MODEL 10
REMARK VINA RESULT:      -9.0      4.376      6.212
REMARK  6 active torsions:
REMARK  status: ('A' for Active; 'I' for Inactive)
REMARK    1  A    between atoms: O_2  and  C_3 
REMARK    2  A    between atoms: C_8  and  C_9 
REMARK    3  A    between atoms: C_9  and  N_10 
REMARK    4  A    between atoms: N_13  and  C_26 
REMARK    5  A    between atoms: N_18  and  C_22 
REMARK    6  A    between atoms: C_29  and  C_32 
ROOT
HETATM    1  N   UNL     1      26.755  41.984  49.494  1.00  0.00    -0.318 N 
HETATM    2  C   UNL     1      27.227  42.883  50.469  1.00  0.00     0.326 C 
HETATM    3  O   UNL     1      27.069  44.089  50.408  1.00  0.00    -0.247 OA
HETATM    4  N   UNL     1      27.875  42.116  51.462  1.00  0.00    -0.297 N 
HETATM    5  C   UNL     1      27.667  40.709  51.207  1.00  0.00     0.165 C 
HETATM    6  C   UNL     1      27.306  40.645  49.698  1.00  0.00     0.057 C 
HETATM    7  C   UNL     1      26.301  39.526  49.393  1.00  0.00     0.060 C 
HETATM    8  C   UNL     1      26.916  38.136  49.484  1.00  0.00     0.238 C 
HETATM    9  N   UNL     1      28.149  38.019  48.632  1.00  0.00    -0.063 N 
HETATM   10  H   UNL     1      28.579  37.094  48.819  1.00  0.00     0.280 HD
HETATM   11  C   UNL     1      29.179  39.071  48.921  1.00  0.00     0.238 C 
HETATM   12  C   UNL     1      28.589  40.473  48.849  1.00  0.00     0.060 C 
ENDROOT
BRANCH   4  13
HETATM   13  C   UNL     1      28.528  42.621  52.618  1.00  0.00     0.039 A 
HETATM   14  C   UNL     1      29.907  42.470  52.805  1.00  0.00     0.030 A 
HETATM   15  C   UNL     1      30.544  42.933  53.966  1.00  0.00     0.014 A 
HETATM   16  C   UNL     1      29.821  43.561  54.981  1.00  0.00    -0.023 A 
HETATM   17  C   UNL     1      28.445  43.732  54.795  1.00  0.00     0.014 A 
HETATM   18  C   UNL     1      27.809  43.268  53.632  1.00  0.00     0.030 A 
BRANCH  16  19
HETATM   19  C   UNL     1      30.468  44.031  56.195  1.00  0.00     0.010 A 
HETATM   20  C   UNL     1      31.441  43.423  57.024  1.00  0.00     0.152 A 
HETATM   21  N   UNL     1      31.805  44.196  58.050  1.00  0.00    -0.187 NA
HETATM   22  N   UNL     1      31.060  45.300  57.894  1.00  0.00    -0.289 N 
HETATM   23  H   UNL     1      31.159  46.048  58.572  1.00  0.00     0.188 HD
HETATM   24  C   UNL     1      30.250  45.255  56.795  1.00  0.00     0.123 A 
ENDBRANCH  16  19
ENDBRANCH   4  13
BRANCH   1  25
HETATM   25  C   UNL     1      26.087  42.464  48.290  1.00  0.00     0.167 C 
BRANCH  25  26
HETATM   26  C   UNL     1      25.166  41.446  47.665  1.00  0.00    -0.035 A 
HETATM   27  C   UNL     1      23.865  41.236  48.140  1.00  0.00     0.051 A 
HETATM   28  C   UNL     1      23.024  40.334  47.494  1.00  0.00     0.119 A 
HETATM   29  C   UNL     1      23.434  39.647  46.357  1.00  0.00     0.079 A 
HETATM   30  F   UNL     1      21.793  40.127  47.978  1.00  0.00    -0.206 F 
HETATM   31  C   UNL     1      24.710  39.870  45.850  1.00  0.00     0.071 A 
HETATM   32  C   UNL     1      25.572  40.754  46.512  1.00  0.00     0.045 A 
BRANCH  31  33
HETATM   33  O   UNL     1      25.238  39.279  44.736  1.00  0.00    -0.356 OA
HETATM   34  C   UNL     1      24.402  39.271  43.581  1.00  0.00     0.210 C 
ENDBRANCH  31  33
ENDBRANCH  25  26
ENDBRANCH   1  25
BRANCH   9  35
HETATM   35  C   UNL     1      27.786  38.016  47.148  1.00  0.00     0.235 C 
HETATM   36  C   UNL     1      28.850  37.337  46.238  1.00  0.00     0.203 C 
HETATM   37  O   UNL     1      28.171  36.062  46.410  1.00  0.00    -0.387 OA
HETATM   38  C   UNL     1      26.943  36.784  46.709  1.00  0.00     0.203 C 
ENDBRANCH   9  35
TORSDOF 6
ENDMDL
