MODEL 1
REMARK VINA RESULT:      -8.2      0.000      0.000
REMARK  7 active torsions:
REMARK  status: ('A' for Active; 'I' for Inactive)
REMARK    1  A    between atoms: O_2  and  C_3 
REMARK    2  A    between atoms: C_5  and  C_6 
REMARK    3  A    between atoms: C_10  and  N_11 
REMARK    4  A    between atoms: N_11  and  C_12 
REMARK    5  A    between atoms: C_12  and  S_13 
REMARK    6  A    between atoms: N_15  and  C_17 
REMARK    7  A    between atoms: C_17  and  C_18 
ROOT
HETATM    1  C   UNL     1      27.101  44.229  53.734  1.00  0.00     0.064 A 
HETATM    2  N   UNL     1      25.912  44.527  54.353  1.00  0.00    -0.276 N 
HETATM    3  H   UNL     1      25.759  44.723  55.337  1.00  0.00     0.189 HD
HETATM    4  N   UNL     1      24.843  44.546  53.531  1.00  0.00    -0.156 NA
HETATM    5  C   UNL     1      25.363  44.288  52.331  1.00  0.00     0.151 A 
HETATM    6  C   UNL     1      26.757  44.096  52.401  1.00  0.00     0.084 A 
ENDROOT
BRANCH   5   7
HETATM    7  N   UNL     1      24.677  44.191  51.178  1.00  0.00    -0.320 N 
HETATM    8  H   UNL     1      24.363  43.284  50.854  1.00  0.00     0.169 HD
BRANCH   7   9
HETATM    9  C   UNL     1      24.317  45.221  50.284  1.00  0.00     0.141 C 
HETATM   10  N   UNL     1      24.411  46.471  50.674  1.00  0.00    -0.365 N 
HETATM   11  H   UNL     1      24.750  46.587  51.635  1.00  0.00     0.162 HD
BRANCH   9  12
HETATM   12  S   UNL     1      23.783  44.734  48.722  1.00  0.00    -0.099 SA
HETATM   13  C   UNL     1      22.052  44.370  49.092  1.00  0.00     0.099 C 
ENDBRANCH   9  12
BRANCH  10  14
HETATM   14  C   UNL     1      24.106  47.645  49.865  1.00  0.00     0.186 C 
BRANCH  14  15
HETATM   15  C   UNL     1      25.359  48.319  49.430  1.00  0.00     0.070 A 
HETATM   16  O   UNL     1      25.247  49.389  48.587  1.00  0.00    -0.325 OA
HETATM   17  C   UNL     1      26.505  49.834  48.340  1.00  0.00     0.142 A 
HETATM   18  C   UNL     1      27.429  49.067  49.010  1.00  0.00     0.027 A 
HETATM   19  C   UNL     1      26.691  48.086  49.715  1.00  0.00     0.036 A 
ENDBRANCH  14  15
ENDBRANCH  10  14
ENDBRANCH   7   9
ENDBRANCH   5   7
BRANCH   1  20
HETATM   20  C   UNL     1      28.395  44.095  54.413  1.00  0.00    -0.005 A 
HETATM   21  C   UNL     1      28.810  45.069  55.334  1.00  0.00     0.050 A 
HETATM   22  C   UNL     1      30.057  45.002  55.966  1.00  0.00     0.069 A 
HETATM   23  C   UNL     1      30.902  43.930  55.696  1.00  0.00     0.037 A 
HETATM   24  C   UNL     1      30.505  42.945  54.789  1.00  0.00     0.004 A 
HETATM   25  C   UNL     1      29.264  43.028  54.150  1.00  0.00     0.014 A 
BRANCH  22  26
HETATM   26  O   UNL     1      30.317  46.037  56.822  1.00  0.00    -0.356 OA
HETATM   27  C   UNL     1      29.712  45.974  58.107  1.00  0.00     0.210 C 
ENDBRANCH  22  26
ENDBRANCH   1  20
TORSDOF 7
ENDMDL
MODEL 2
REMARK VINA RESULT:      -8.0      1.322      1.820
REMARK  7 active torsions:
REMARK  status: ('A' for Active; 'I' for Inactive)
REMARK    1  A    between atoms: O_2  and  C_3 
REMARK    2  A    between atoms: C_5  and  C_6 
REMARK    3  A    between atoms: C_10  and  N_11 
REMARK    4  A    between atoms: N_11  and  C_12 
REMARK    5  A    between atoms: C_12  and  S_13 
REMARK    6  A    between atoms: N_15  and  C_17 
REMARK    7  A    between atoms: C_17  and  C_18 
ROOT
HETATM    1  C   UNL     1      26.965  44.378  54.052  1.00  0.00     0.064 A 
HETATM    2  N   UNL     1      25.799  43.910  54.607  1.00  0.00    -0.276 N 
HETATM    3  H   UNL     1      25.687  43.422  55.490  1.00  0.00     0.189 HD
HETATM    4  N   UNL     1      24.697  44.134  53.864  1.00  0.00    -0.156 NA
HETATM    5  C   UNL     1      25.158  44.804  52.808  1.00  0.00     0.151 A 
HETATM    6  C   UNL     1      26.552  44.991  52.882  1.00  0.00     0.084 A 
ENDROOT
BRANCH   5   7
HETATM    7  N   UNL     1      24.424  45.244  51.770  1.00  0.00    -0.320 N 
HETATM    8  H   UNL     1      23.422  45.102  51.767  1.00  0.00     0.169 HD
BRANCH   7   9
HETATM    9  C   UNL     1      24.865  45.901  50.601  1.00  0.00     0.141 C 
HETATM   10  N   UNL     1      25.224  47.161  50.672  1.00  0.00    -0.365 N 
HETATM   11  H   UNL     1      25.146  47.569  51.610  1.00  0.00     0.162 HD
BRANCH   9  12
HETATM   12  S   UNL     1      24.901  44.965  49.157  1.00  0.00    -0.099 SA
HETATM   13  C   UNL     1      26.318  43.903  49.519  1.00  0.00     0.099 C 
ENDBRANCH   9  12
BRANCH  10  14
HETATM   14  C   UNL     1      25.727  47.971  49.569  1.00  0.00     0.186 C 
BRANCH  14  15
HETATM   15  C   UNL     1      24.693  48.940  49.117  1.00  0.00     0.070 A 
HETATM   16  O   UNL     1      23.527  49.004  49.829  1.00  0.00    -0.325 OA
HETATM   17  C   UNL     1      22.754  49.951  49.240  1.00  0.00     0.142 A 
HETATM   18  C   UNL     1      23.401  50.499  48.158  1.00  0.00     0.027 A 
HETATM   19  C   UNL     1      24.655  49.846  48.076  1.00  0.00     0.036 A 
ENDBRANCH  14  15
ENDBRANCH  10  14
ENDBRANCH   7   9
ENDBRANCH   5   7
BRANCH   1  20
HETATM   20  C   UNL     1      28.301  44.214  54.634  1.00  0.00    -0.005 A 
HETATM   21  C   UNL     1      28.784  45.150  55.562  1.00  0.00     0.050 A 
HETATM   22  C   UNL     1      30.072  45.055  56.103  1.00  0.00     0.069 A 
HETATM   23  C   UNL     1      30.891  43.993  55.733  1.00  0.00     0.037 A 
HETATM   24  C   UNL     1      30.427  43.046  54.818  1.00  0.00     0.004 A 
HETATM   25  C   UNL     1      29.145  43.157  54.269  1.00  0.00     0.014 A 
BRANCH  22  26
HETATM   26  O   UNL     1      30.396  46.055  56.979  1.00  0.00    -0.356 OA
HETATM   27  C   UNL     1      30.555  45.686  58.343  1.00  0.00     0.210 C 
ENDBRANCH  22  26
ENDBRANCH   1  20
TORSDOF 7
ENDMDL
MODEL 3
REMARK VINA RESULT:      -7.9      2.746      3.683
REMARK  7 active torsions:
REMARK  status: ('A' for Active; 'I' for Inactive)
REMARK    1  A    between atoms: O_2  and  C_3 
REMARK    2  A    between atoms: C_5  and  C_6 
REMARK    3  A    between atoms: C_10  and  N_11 
REMARK    4  A    between atoms: N_11  and  C_12 
REMARK    5  A    between atoms: C_12  and  S_13 
REMARK    6  A    between atoms: N_15  and  C_17 
REMARK    7  A    between atoms: C_17  and  C_18 
ROOT
HETATM    1  C   UNL     1      28.966  42.548  53.663  1.00  0.00     0.064 A 
HETATM    2  N   UNL     1      29.711  41.924  52.692  1.00  0.00    -0.276 N 
HETATM    3  H   UNL     1      30.717  41.962  52.564  1.00  0.00     0.189 HD
HETATM    4  N   UNL     1      28.992  41.189  51.821  1.00  0.00    -0.156 NA
HETATM    5  C   UNL     1      27.740  41.310  52.263  1.00  0.00     0.151 A 
HETATM    6  C   UNL     1      27.672  42.130  53.407  1.00  0.00     0.084 A 
ENDROOT
BRANCH   5   7
HETATM    7  N   UNL     1      26.649  40.757  51.705  1.00  0.00    -0.320 N 
HETATM    8  H   UNL     1      26.384  39.811  51.950  1.00  0.00     0.169 HD
BRANCH   7   9
HETATM    9  C   UNL     1      25.766  41.320  50.760  1.00  0.00     0.141 C 
HETATM   10  N   UNL     1      25.000  42.325  51.117  1.00  0.00    -0.365 N 
HETATM   11  H   UNL     1      25.118  42.618  52.092  1.00  0.00     0.162 HD
BRANCH   9  12
HETATM   12  S   UNL     1      25.781  40.629  49.184  1.00  0.00    -0.099 SA
HETATM   13  C   UNL     1      27.170  41.535  48.467  1.00  0.00     0.099 C 
ENDBRANCH   9  12
BRANCH  10  14
HETATM   14  C   UNL     1      24.061  43.033  50.255  1.00  0.00     0.186 C 
BRANCH  14  15
HETATM   15  C   UNL     1      24.282  44.502  50.337  1.00  0.00     0.070 A 
HETATM   16  O   UNL     1      23.718  45.286  49.370  1.00  0.00    -0.325 OA
HETATM   17  C   UNL     1      24.047  46.570  49.657  1.00  0.00     0.142 A 
HETATM   18  C   UNL     1      24.817  46.629  50.794  1.00  0.00     0.027 A 
HETATM   19  C   UNL     1      24.971  45.292  51.236  1.00  0.00     0.036 A 
ENDBRANCH  14  15
ENDBRANCH  10  14
ENDBRANCH   7   9
ENDBRANCH   5   7
BRANCH   1  20
HETATM   20  C   UNL     1      29.503  43.443  54.693  1.00  0.00    -0.005 A 
HETATM   21  C   UNL     1      28.834  44.636  55.007  1.00  0.00     0.050 A 
HETATM   22  C   UNL     1      29.340  45.539  55.949  1.00  0.00     0.069 A 
HETATM   23  C   UNL     1      30.525  45.239  56.614  1.00  0.00     0.037 A 
HETATM   24  C   UNL     1      31.202  44.053  56.324  1.00  0.00     0.004 A 
HETATM   25  C   UNL     1      30.698  43.163  55.369  1.00  0.00     0.014 A 
BRANCH  22  26
HETATM   26  O   UNL     1      28.580  46.662  56.126  1.00  0.00    -0.356 OA
HETATM   27  C   UNL     1      27.861  47.134  54.992  1.00  0.00     0.210 C 
ENDBRANCH  22  26
ENDBRANCH   1  20
TORSDOF 7
ENDMDL
MODEL 4
REMARK VINA RESULT:      -7.5      1.369      1.987
REMARK  7 active torsions:
REMARK  status: ('A' for Active; 'I' for Inactive)
REMARK    1  A    between atoms: O_2  and  C_3 
REMARK    2  A    between atoms: C_5  and  C_6 
REMARK    3  A    between atoms: C_10  and  N_11 
REMARK    4  A    between atoms: N_11  and  C_12 
REMARK    5  A    between atoms: C_12  and  S_13 
REMARK    6  A    between atoms: N_15  and  C_17 
REMARK    7  A    between atoms: C_17  and  C_18 
ROOT
HETATM    1  C   UNL     1      26.502  44.610  53.090  1.00  0.00     0.064 A 
HETATM    2  N   UNL     1      26.322  43.357  52.556  1.00  0.00    -0.276 N 
HETATM    3  H   UNL     1      26.866  42.521  52.744  1.00  0.00     0.189 HD
HETATM    4  N   UNL     1      25.300  43.264  51.682  1.00  0.00    -0.156 NA
HETATM    5  C   UNL     1      24.777  44.490  51.675  1.00  0.00     0.151 A 
HETATM    6  C   UNL     1      25.476  45.356  52.539  1.00  0.00     0.084 A 
ENDROOT
BRANCH   5   7
HETATM    7  N   UNL     1      23.729  44.897  50.937  1.00  0.00    -0.320 N 
HETATM    8  H   UNL     1      22.810  44.508  51.111  1.00  0.00     0.169 HD
BRANCH   7   9
HETATM    9  C   UNL     1      23.712  45.830  49.879  1.00  0.00     0.141 C 
HETATM   10  N   UNL     1      23.823  47.109  50.152  1.00  0.00    -0.365 N 
HETATM   11  H   UNL     1      23.914  47.321  51.151  1.00  0.00     0.162 HD
BRANCH   9  12
HETATM   12  S   UNL     1      23.552  45.191  48.289  1.00  0.00    -0.099 SA
HETATM   13  C   UNL     1      22.456  43.795  48.632  1.00  0.00     0.099 C 
ENDBRANCH   9  12
BRANCH  10  14
HETATM   14  C   UNL     1      23.852  48.192  49.176  1.00  0.00     0.186 C 
BRANCH  14  15
HETATM   15  C   UNL     1      25.233  48.728  49.031  1.00  0.00     0.070 A 
HETATM   16  O   UNL     1      26.246  48.054  49.653  1.00  0.00    -0.325 OA
HETATM   17  C   UNL     1      27.396  48.719  49.374  1.00  0.00     0.142 A 
HETATM   18  C   UNL     1      27.141  49.813  48.582  1.00  0.00     0.027 A 
HETATM   19  C   UNL     1      25.742  49.822  48.359  1.00  0.00     0.036 A 
ENDBRANCH  14  15
ENDBRANCH  10  14
ENDBRANCH   7   9
ENDBRANCH   5   7
BRANCH   1  20
HETATM   20  C   UNL     1      27.572  44.984  54.021  1.00  0.00    -0.005 A 
HETATM   21  C   UNL     1      28.610  44.081  54.300  1.00  0.00     0.050 A 
HETATM   22  C   UNL     1      29.623  44.382  55.219  1.00  0.00     0.069 A 
HETATM   23  C   UNL     1      29.619  45.618  55.857  1.00  0.00     0.037 A 
HETATM   24  C   UNL     1      28.601  46.535  55.588  1.00  0.00     0.004 A 
HETATM   25  C   UNL     1      27.584  46.220  54.681  1.00  0.00     0.014 A 
BRANCH  22  26
HETATM   26  O   UNL     1      30.547  43.389  55.391  1.00  0.00    -0.356 OA
HETATM   27  C   UNL     1      31.382  43.483  56.539  1.00  0.00     0.210 C 
ENDBRANCH  22  26
ENDBRANCH   1  20
TORSDOF 7
ENDMDL
MODEL 5
REMARK VINA RESULT:      -7.4      4.963      6.264
REMARK  7 active torsions:
REMARK  status: ('A' for Active; 'I' for Inactive)
REMARK    1  A    between atoms: O_2  and  C_3 
REMARK    2  A    between atoms: C_5  and  C_6 
REMARK    3  A    between atoms: C_10  and  N_11 
REMARK    4  A    between atoms: N_11  and  C_12 
REMARK    5  A    between atoms: C_12  and  S_13 
REMARK    6  A    between atoms: N_15  and  C_17 
REMARK    7  A    between atoms: C_17  and  C_18 
ROOT
HETATM    1  C   UNL     1      28.639  42.776  53.486  1.00  0.00     0.064 A 
HETATM    2  N   UNL     1      27.373  42.382  53.128  1.00  0.00    -0.276 N 
HETATM    3  H   UNL     1      26.493  42.810  53.396  1.00  0.00     0.189 HD
HETATM    4  N   UNL     1      27.330  41.293  52.334  1.00  0.00    -0.156 NA
HETATM    5  C   UNL     1      28.614  40.992  52.141  1.00  0.00     0.151 A 
HETATM    6  C   UNL     1      29.464  41.886  52.822  1.00  0.00     0.084 A 
ENDROOT
BRANCH   5   7
HETATM    7  N   UNL     1      29.083  39.962  51.414  1.00  0.00    -0.320 N 
HETATM    8  H   UNL     1      29.992  39.570  51.626  1.00  0.00     0.169 HD
BRANCH   7   9
HETATM    9  C   UNL     1      28.472  39.311  50.322  1.00  0.00     0.141 C 
HETATM   10  N   UNL     1      27.390  39.829  49.790  1.00  0.00    -0.365 N 
HETATM   11  H   UNL     1      27.074  40.695  50.239  1.00  0.00     0.162 HD
BRANCH   9  12
HETATM   12  S   UNL     1      29.225  37.866  49.766  1.00  0.00    -0.099 SA
HETATM   13  C   UNL     1      29.947  37.284  51.318  1.00  0.00     0.099 C 
ENDBRANCH   9  12
BRANCH  10  14
HETATM   14  C   UNL     1      26.659  39.297  48.646  1.00  0.00     0.186 C 
BRANCH  14  15
HETATM   15  C   UNL     1      27.126  39.934  47.386  1.00  0.00     0.070 A 
HETATM   16  O   UNL     1      26.355  39.776  46.268  1.00  0.00    -0.325 OA
HETATM   17  C   UNL     1      26.972  40.444  45.261  1.00  0.00     0.142 A 
HETATM   18  C   UNL     1      28.131  41.031  45.710  1.00  0.00     0.027 A 
HETATM   19  C   UNL     1      28.234  40.702  47.084  1.00  0.00     0.036 A 
ENDBRANCH  14  15
ENDBRANCH  10  14
ENDBRANCH   7   9
ENDBRANCH   5   7
BRANCH   1  20
HETATM   20  C   UNL     1      28.952  43.895  54.382  1.00  0.00    -0.005 A 
HETATM   21  C   UNL     1      29.975  43.768  55.335  1.00  0.00     0.050 A 
HETATM   22  C   UNL     1      30.272  44.794  56.239  1.00  0.00     0.069 A 
HETATM   23  C   UNL     1      29.553  45.984  56.181  1.00  0.00     0.037 A 
HETATM   24  C   UNL     1      28.537  46.135  55.235  1.00  0.00     0.004 A 
HETATM   25  C   UNL     1      28.236  45.098  54.345  1.00  0.00     0.014 A 
BRANCH  22  26
HETATM   26  O   UNL     1      31.283  44.506  57.115  1.00  0.00    -0.356 OA
HETATM   27  C   UNL     1      31.841  43.200  57.042  1.00  0.00     0.210 C 
ENDBRANCH  22  26
ENDBRANCH   1  20
TORSDOF 7
ENDMDL
MODEL 6
REMARK VINA RESULT:      -7.4      4.400      5.861
REMARK  7 active torsions:
REMARK  status: ('A' for Active; 'I' for Inactive)
REMARK    1  A    between atoms: O_2  and  C_3 
REMARK    2  A    between atoms: C_5  and  C_6 
REMARK    3  A    between atoms: C_10  and  N_11 
REMARK    4  A    between atoms: N_11  and  C_12 
REMARK    5  A    between atoms: C_12  and  S_13 
REMARK    6  A    between atoms: N_15  and  C_17 
REMARK    7  A    between atoms: C_17  and  C_18 
ROOT
HETATM    1  C   UNL     1      28.816  42.790  53.556  1.00  0.00     0.064 A 
HETATM    2  N   UNL     1      27.584  42.837  52.952  1.00  0.00    -0.276 N 
HETATM    3  H   UNL     1      26.846  43.518  53.103  1.00  0.00     0.189 HD
HETATM    4  N   UNL     1      27.357  41.846  52.067  1.00  0.00    -0.156 NA
HETATM    5  C   UNL     1      28.495  41.153  52.069  1.00  0.00     0.151 A 
HETATM    6  C   UNL     1      29.435  41.703  52.964  1.00  0.00     0.084 A 
ENDROOT
BRANCH   5   7
HETATM    7  N   UNL     1      28.750  40.051  51.342  1.00  0.00    -0.320 N 
HETATM    8  H   UNL     1      29.255  39.279  51.760  1.00  0.00     0.169 HD
BRANCH   7   9
HETATM    9  C   UNL     1      28.413  39.791  49.997  1.00  0.00     0.141 C 
HETATM   10  N   UNL     1      27.995  40.777  49.239  1.00  0.00    -0.365 N 
HETATM   11  H   UNL     1      27.947  41.683  49.716  1.00  0.00     0.162 HD
BRANCH   9  12
HETATM   12  S   UNL     1      28.595  38.167  49.457  1.00  0.00    -0.099 SA
HETATM   13  C   UNL     1      29.828  37.588  50.645  1.00  0.00     0.099 C 
ENDBRANCH   9  12
BRANCH  10  14
HETATM   14  C   UNL     1      27.637  40.680  47.829  1.00  0.00     0.186 C 
BRANCH  14  15
HETATM   15  C   UNL     1      26.166  40.813  47.653  1.00  0.00     0.070 A 
HETATM   16  O   UNL     1      25.689  40.977  46.383  1.00  0.00    -0.325 OA
HETATM   17  C   UNL     1      24.338  41.065  46.474  1.00  0.00     0.142 A 
HETATM   18  C   UNL     1      23.934  40.961  47.784  1.00  0.00     0.027 A 
HETATM   19  C   UNL     1      25.115  40.798  48.549  1.00  0.00     0.036 A 
ENDBRANCH  14  15
ENDBRANCH  10  14
ENDBRANCH   7   9
ENDBRANCH   5   7
BRANCH   1  20
HETATM   20  C   UNL     1      29.285  43.719  54.590  1.00  0.00    -0.005 A 
HETATM   21  C   UNL     1      28.534  44.864  54.899  1.00  0.00     0.050 A 
HETATM   22  C   UNL     1      28.971  45.799  55.845  1.00  0.00     0.069 A 
HETATM   23  C   UNL     1      30.169  45.580  56.518  1.00  0.00     0.037 A 
HETATM   24  C   UNL     1      30.928  44.443  56.232  1.00  0.00     0.004 A 
HETATM   25  C   UNL     1      30.492  43.521  55.274  1.00  0.00     0.014 A 
BRANCH  22  26
HETATM   26  O   UNL     1      28.135  46.868  56.017  1.00  0.00    -0.356 OA
HETATM   27  C   UNL     1      27.826  47.632  54.858  1.00  0.00     0.210 C 
ENDBRANCH  22  26
ENDBRANCH   1  20
TORSDOF 7
ENDMDL
MODEL 7
REMARK VINA RESULT:      -7.4      2.203      3.152
REMARK  7 active torsions:
REMARK  status: ('A' for Active; 'I' for Inactive)
REMARK    1  A    between atoms: O_2  and  C_3 
REMARK    2  A    between atoms: C_5  and  C_6 
REMARK    3  A    between atoms: C_10  and  N_11 
REMARK    4  A    between atoms: N_11  and  C_12 
REMARK    5  A    between atoms: C_12  and  S_13 
REMARK    6  A    between atoms: N_15  and  C_17 
REMARK    7  A    between atoms: C_17  and  C_18 
ROOT
HETATM    1  C   UNL     1      27.281  46.423  54.603  1.00  0.00     0.064 A 
HETATM    2  N   UNL     1      26.640  47.638  54.617  1.00  0.00    -0.276 N 
HETATM    3  H   UNL     1      26.806  48.418  55.245  1.00  0.00     0.189 HD
HETATM    4  N   UNL     1      25.680  47.774  53.681  1.00  0.00    -0.156 NA
HETATM    5  C   UNL     1      25.725  46.621  53.012  1.00  0.00     0.151 A 
HETATM    6  C   UNL     1      26.707  45.757  53.536  1.00  0.00     0.084 A 
ENDROOT
BRANCH   5   7
HETATM    7  N   UNL     1      24.937  46.277  51.978  1.00  0.00    -0.320 N 
HETATM    8  H   UNL     1      24.162  45.642  52.126  1.00  0.00     0.169 HD
BRANCH   7   9
HETATM    9  C   UNL     1      25.037  46.678  50.629  1.00  0.00     0.141 C 
HETATM   10  N   UNL     1      24.960  47.954  50.332  1.00  0.00    -0.365 N 
HETATM   11  H   UNL     1      24.826  48.567  51.142  1.00  0.00     0.162 HD
BRANCH   9  12
HETATM   12  S   UNL     1      25.266  45.427  49.468  1.00  0.00    -0.099 SA
HETATM   13  C   UNL     1      26.975  44.975  49.843  1.00  0.00     0.099 C 
ENDBRANCH   9  12
BRANCH  10  14
HETATM   14  C   UNL     1      25.073  48.530  48.997  1.00  0.00     0.186 C 
BRANCH  14  15
HETATM   15  C   UNL     1      23.888  49.376  48.691  1.00  0.00     0.070 A 
HETATM   16  O   UNL     1      22.979  48.898  47.790  1.00  0.00    -0.325 OA
HETATM   17  C   UNL     1      21.998  49.830  47.683  1.00  0.00     0.142 A 
HETATM   18  C   UNL     1      22.260  50.903  48.501  1.00  0.00     0.027 A 
HETATM   19  C   UNL     1      23.482  50.613  49.154  1.00  0.00     0.036 A 
ENDBRANCH  14  15
ENDBRANCH  10  14
ENDBRANCH   7   9
ENDBRANCH   5   7
BRANCH   1  20
HETATM   20  C   UNL     1      28.323  46.009  55.549  1.00  0.00    -0.005 A 
HETATM   21  C   UNL     1      29.253  45.023  55.184  1.00  0.00     0.050 A 
HETATM   22  C   UNL     1      30.231  44.567  56.075  1.00  0.00     0.069 A 
HETATM   23  C   UNL     1      30.304  45.119  57.350  1.00  0.00     0.037 A 
HETATM   24  C   UNL     1      29.394  46.107  57.731  1.00  0.00     0.004 A 
HETATM   25  C   UNL     1      28.409  46.546  56.841  1.00  0.00     0.014 A 
BRANCH  22  26
HETATM   26  O   UNL     1      31.048  43.591  55.572  1.00  0.00    -0.356 OA
HETATM   27  C   UNL     1      30.598  42.920  54.401  1.00  0.00     0.210 C 
ENDBRANCH  22  26
ENDBRANCH   1  20
TORSDOF 7
ENDMDL
MODEL 8
REMARK VINA RESULT:      -7.3      4.668      5.692
REMARK  7 active torsions:
REMARK  status: ('A' for Active; 'I' for Inactive)
REMARK    1  A    between atoms: O_2  and  C_3 
REMARK    2  A    between atoms: C_5  and  C_6 
REMARK    3  A    between atoms: C_10  and  N_11 
REMARK    4  A    between atoms: N_11  and  C_12 
REMARK    5  A    between atoms: C_12  and  S_13 
REMARK    6  A    between atoms: N_15  and  C_17 
REMARK    7  A    between atoms: C_17  and  C_18 
ROOT
HETATM    1  C   UNL     1      28.857  42.515  53.545  1.00  0.00     0.064 A 
HETATM    2  N   UNL     1      29.626  41.705  52.746  1.00  0.00    -0.276 N 
HETATM    3  H   UNL     1      30.639  41.637  52.725  1.00  0.00     0.189 HD
HETATM    4  N   UNL     1      28.924  40.927  51.898  1.00  0.00    -0.156 NA
HETATM    5  C   UNL     1      27.654  41.216  52.182  1.00  0.00     0.151 A 
HETATM    6  C   UNL     1      27.559  42.183  53.203  1.00  0.00     0.084 A 
ENDROOT
BRANCH   5   7
HETATM    7  N   UNL     1      26.572  40.691  51.581  1.00  0.00    -0.320 N 
HETATM    8  H   UNL     1      25.996  40.022  52.077  1.00  0.00     0.169 HD
BRANCH   7   9
HETATM    9  C   UNL     1      26.090  40.933  50.277  1.00  0.00     0.141 C 
HETATM   10  N   UNL     1      25.863  39.916  49.479  1.00  0.00    -0.365 N 
HETATM   11  H   UNL     1      26.068  39.001  49.894  1.00  0.00     0.162 HD
BRANCH   9  12
HETATM   12  S   UNL     1      25.830  42.578  49.844  1.00  0.00    -0.099 SA
HETATM   13  C   UNL     1      24.344  42.916  50.816  1.00  0.00     0.099 C 
ENDBRANCH   9  12
BRANCH  10  14
HETATM   14  C   UNL     1      25.341  39.995  48.119  1.00  0.00     0.186 C 
BRANCH  14  15
HETATM   15  C   UNL     1      26.440  39.841  47.128  1.00  0.00     0.070 A 
HETATM   16  O   UNL     1      27.076  38.632  47.065  1.00  0.00    -0.325 OA
HETATM   17  C   UNL     1      28.020  38.731  46.095  1.00  0.00     0.142 A 
HETATM   18  C   UNL     1      28.005  39.985  45.532  1.00  0.00     0.027 A 
HETATM   19  C   UNL     1      26.985  40.705  46.198  1.00  0.00     0.036 A 
ENDBRANCH  14  15
ENDBRANCH  10  14
ENDBRANCH   7   9
ENDBRANCH   5   7
BRANCH   1  20
HETATM   20  C   UNL     1      29.380  43.487  54.511  1.00  0.00    -0.005 A 
HETATM   21  C   UNL     1      28.714  44.707  54.711  1.00  0.00     0.050 A 
HETATM   22  C   UNL     1      29.207  45.681  55.588  1.00  0.00     0.069 A 
HETATM   23  C   UNL     1      30.375  45.429  56.301  1.00  0.00     0.037 A 
HETATM   24  C   UNL     1      31.048  44.219  56.123  1.00  0.00     0.004 A 
HETATM   25  C   UNL     1      30.558  43.257  55.234  1.00  0.00     0.014 A 
BRANCH  22  26
HETATM   26  O   UNL     1      28.451  46.819  55.656  1.00  0.00    -0.356 OA
HETATM   27  C   UNL     1      27.275  46.857  54.856  1.00  0.00     0.210 C 
ENDBRANCH  22  26
ENDBRANCH   1  20
TORSDOF 7
ENDMDL
MODEL 9
REMARK VINA RESULT:      -7.2      2.664      8.660
REMARK  7 active torsions:
REMARK  status: ('A' for Active; 'I' for Inactive)
REMARK    1  A    between atoms: O_2  and  C_3 
REMARK    2  A    between atoms: C_5  and  C_6 
REMARK    3  A    between atoms: C_10  and  N_11 
REMARK    4  A    between atoms: N_11  and  C_12 
REMARK    5  A    between atoms: C_12  and  S_13 
REMARK    6  A    between atoms: N_15  and  C_17 
REMARK    7  A    between atoms: C_17  and  C_18 
ROOT
HETATM    1  C   UNL     1      24.136  47.330  49.770  1.00  0.00     0.064 A 
HETATM    2  N   UNL     1      23.661  46.053  49.949  1.00  0.00    -0.276 N 
HETATM    3  H   UNL     1      22.774  45.673  49.634  1.00  0.00     0.189 HD
HETATM    4  N   UNL     1      24.491  45.239  50.632  1.00  0.00    -0.156 NA
HETATM    5  C   UNL     1      25.556  46.003  50.873  1.00  0.00     0.151 A 
HETATM    6  C   UNL     1      25.392  47.301  50.349  1.00  0.00     0.084 A 
ENDROOT
BRANCH   5   7
HETATM    7  N   UNL     1      26.660  45.630  51.545  1.00  0.00    -0.320 N 
HETATM    8  H   UNL     1      27.575  45.830  51.160  1.00  0.00     0.169 HD
BRANCH   7   9
HETATM    9  C   UNL     1      26.747  44.945  52.775  1.00  0.00     0.141 C 
HETATM   10  N   UNL     1      27.665  44.020  52.930  1.00  0.00    -0.365 N 
HETATM   11  H   UNL     1      28.257  43.872  52.107  1.00  0.00     0.162 HD
BRANCH   9  12
HETATM   12  S   UNL     1      25.620  45.402  53.993  1.00  0.00    -0.099 SA
HETATM   13  C   UNL     1      26.307  47.009  54.454  1.00  0.00     0.099 C 
ENDBRANCH   9  12
BRANCH  10  14
HETATM   14  C   UNL     1      27.903  43.245  54.143  1.00  0.00     0.186 C 
BRANCH  14  15
HETATM   15  C   UNL     1      29.079  43.778  54.880  1.00  0.00     0.070 A 
HETATM   16  O   UNL     1      28.935  44.969  55.535  1.00  0.00    -0.325 OA
HETATM   17  C   UNL     1      30.123  45.241  56.132  1.00  0.00     0.142 A 
HETATM   18  C   UNL     1      31.033  44.245  55.872  1.00  0.00     0.027 A 
HETATM   19  C   UNL     1      30.362  43.297  55.062  1.00  0.00     0.036 A 
ENDBRANCH  14  15
ENDBRANCH  10  14
ENDBRANCH   7   9
ENDBRANCH   5   7
BRANCH   1  20
HETATM   20  C   UNL     1      23.405  48.416  49.108  1.00  0.00    -0.005 A 
HETATM   21  C   UNL     1      22.004  48.378  49.034  1.00  0.00     0.050 A 
HETATM   22  C   UNL     1      21.274  49.371  48.370  1.00  0.00     0.069 A 
HETATM   23  C   UNL     1      21.948  50.439  47.786  1.00  0.00     0.037 A 
HETATM   24  C   UNL     1      23.342  50.500  47.855  1.00  0.00     0.004 A 
HETATM   25  C   UNL     1      24.065  49.496  48.507  1.00  0.00     0.014 A 
BRANCH  22  26
HETATM   26  O   UNL     1      19.920  49.178  48.372  1.00  0.00    -0.356 OA
HETATM   27  C   UNL     1      19.391  48.360  49.409  1.00  0.00     0.210 C 
ENDBRANCH  22  26
ENDBRANCH   1  20
TORSDOF 7
ENDMDL
MODEL 10
REMARK VINA RESULT:      -7.2      1.984      3.516
REMARK  7 active torsions:
REMARK  status: ('A' for Active; 'I' for Inactive)
REMARK    1  A    between atoms: O_2  and  C_3 
REMARK    2  A    between atoms: C_5  and  C_6 
REMARK    3  A    between atoms: C_10  and  N_11 
REMARK    4  A    between atoms: N_11  and  C_12 
REMARK    5  A    between atoms: C_12  and  S_13 
REMARK    6  A    between atoms: N_15  and  C_17 
REMARK    7  A    between atoms: C_17  and  C_18 
ROOT
HETATM    1  C   UNL     1      27.255  44.286  53.442  1.00  0.00     0.064 A 
HETATM    2  N   UNL     1      26.625  43.238  52.818  1.00  0.00    -0.276 N 
HETATM    3  H   UNL     1      26.876  42.255  52.854  1.00  0.00     0.189 HD
HETATM    4  N   UNL     1      25.557  43.590  52.075  1.00  0.00    -0.156 NA
HETATM    5  C   UNL     1      25.469  44.908  52.253  1.00  0.00     0.151 A 
HETATM    6  C   UNL     1      26.489  45.386  53.100  1.00  0.00     0.084 A 
ENDROOT
BRANCH   5   7
HETATM    7  N   UNL     1      24.553  45.721  51.696  1.00  0.00    -0.320 N 
HETATM    8  H   UNL     1      23.987  46.319  52.285  1.00  0.00     0.169 HD
BRANCH   7   9
HETATM    9  C   UNL     1      24.228  45.868  50.331  1.00  0.00     0.141 C 
HETATM   10  N   UNL     1      23.756  44.837  49.670  1.00  0.00    -0.365 N 
HETATM   11  H   UNL     1      23.666  43.983  50.230  1.00  0.00     0.162 HD
BRANCH   9  12
HETATM   12  S   UNL     1      24.476  47.426  49.643  1.00  0.00    -0.099 SA
HETATM   13  C   UNL     1      26.258  47.588  49.893  1.00  0.00     0.099 C 
ENDBRANCH   9  12
BRANCH  10  14
HETATM   14  C   UNL     1      23.346  44.832  48.270  1.00  0.00     0.186 C 
BRANCH  14  15
HETATM   15  C   UNL     1      21.951  45.328  48.132  1.00  0.00     0.070 A 
HETATM   16  O   UNL     1      20.949  44.566  48.665  1.00  0.00    -0.325 OA
HETATM   17  C   UNL     1      19.783  45.218  48.425  1.00  0.00     0.142 A 
HETATM   18  C   UNL     1      20.016  46.389  47.744  1.00  0.00     0.027 A 
HETATM   19  C   UNL     1      21.417  46.463  47.552  1.00  0.00     0.036 A 
ENDBRANCH  14  15
ENDBRANCH  10  14
ENDBRANCH   7   9
ENDBRANCH   5   7
BRANCH   1  20
HETATM   20  C   UNL     1      28.467  44.175  54.262  1.00  0.00    -0.005 A 
HETATM   21  C   UNL     1      28.723  45.117  55.270  1.00  0.00     0.050 A 
HETATM   22  C   UNL     1      29.891  45.073  56.041  1.00  0.00     0.069 A 
HETATM   23  C   UNL     1      30.814  44.055  55.823  1.00  0.00     0.037 A 
HETATM   24  C   UNL     1      30.575  43.102  54.831  1.00  0.00     0.004 A 
HETATM   25  C   UNL     1      29.413  43.163  54.054  1.00  0.00     0.014 A 
BRANCH  22  26
HETATM   26  O   UNL     1      29.999  46.073  56.968  1.00  0.00    -0.356 OA
HETATM   27  C   UNL     1      30.554  45.721  58.229  1.00  0.00     0.210 C 
ENDBRANCH  22  26
ENDBRANCH   1  20
TORSDOF 7
ENDMDL
