MODEL 1
REMARK VINA RESULT:      -8.9      0.000      0.000
REMARK  13 active torsions:
REMARK  status: ('A' for Active; 'I' for Inactive)
REMARK    1  A    between atoms: C_2  and  O_3 
REMARK    2  A    between atoms: O_3  and  C_4 
REMARK    3  A    between atoms: C_5  and  O_6 
REMARK    4  A    between atoms: C_9  and  C_10 
REMARK    5  A    between atoms: N_11  and  C_12 
REMARK    6  A    between atoms: C_12  and  C_13 
REMARK    7  A    between atoms: C_13  and  N_14 
REMARK    8  A    between atoms: C_23  and  O_24 
REMARK    9  A    between atoms: C_25  and  C_26 
REMARK   10  A    between atoms: C_26  and  C_27 
REMARK   11  A    between atoms: C_31  and  O_32 
REMARK   12  A    between atoms: O_32  and  C_33 
REMARK   13  A    between atoms: C_33  and  C_34 
ROOT
HETATM    1  C   UNL     1      21.683  45.664  48.117  1.00  0.00     0.161 A 
HETATM    2  N   UNL     1      21.748  45.673  46.656  1.00  0.00    -0.332 N 
HETATM    3  C   UNL     1      22.713  44.818  46.192  1.00  0.00     0.278 A 
HETATM    4  O   UNL     1      23.120  44.744  45.045  1.00  0.00    -0.265 OA
HETATM    5  C   UNL     1      23.272  44.090  47.340  1.00  0.00     0.146 A 
HETATM    6  C   UNL     1      22.676  44.579  48.436  1.00  0.00     0.059 A 
ENDROOT
BRANCH   6   7
HETATM    7  C   UNL     1      22.860  44.150  49.841  1.00  0.00     0.194 C 
HETATM    8  O   UNL     1      21.936  43.660  50.476  1.00  0.00    -0.287 OA
BRANCH   7   9
HETATM    9  C   UNL     1      24.192  44.305  50.453  1.00  0.00     0.021 A 
HETATM   10  C   UNL     1      25.039  43.201  50.640  1.00  0.00    -0.045 A 
HETATM   11  C   UNL     1      24.723  41.843  50.089  1.00  0.00     0.049 C 
HETATM   12  C   UNL     1      26.239  43.404  51.340  1.00  0.00     0.044 A 
HETATM   13  C   UNL     1      26.575  44.661  51.857  1.00  0.00     0.069 A 
HETATM   14  C   UNL     1      25.749  45.755  51.605  1.00  0.00     0.038 A 
HETATM   15  C   UNL     1      24.556  45.581  50.901  1.00  0.00     0.019 A 
BRANCH  13  16
HETATM   16  O   UNL     1      27.736  44.693  52.578  1.00  0.00    -0.347 OA
BRANCH  16  17
HETATM   17  C   UNL     1      28.069  43.500  53.289  1.00  0.00     0.214 C 
BRANCH  17  18
HETATM   18  C   UNL     1      29.024  43.857  54.400  1.00  0.00    -0.034 A 
HETATM   19  C   UNL     1      28.908  45.086  55.065  1.00  0.00     0.009 A 
HETATM   20  C   UNL     1      29.790  45.421  56.093  1.00  0.00     0.001 A 
HETATM   21  C   UNL     1      30.800  44.534  56.461  1.00  0.00     0.000 A 
HETATM   22  C   UNL     1      30.936  43.317  55.798  1.00  0.00     0.001 A 
HETATM   23  C   UNL     1      30.054  42.981  54.769  1.00  0.00     0.009 A 
ENDBRANCH  17  18
ENDBRANCH  16  17
ENDBRANCH  13  16
ENDBRANCH   7   9
ENDBRANCH   6   7
BRANCH   1  24
HETATM   24  C   UNL     1      22.008  47.049  48.648  1.00  0.00    -0.028 A 
HETATM   25  C   UNL     1      20.950  47.896  49.031  1.00  0.00     0.012 A 
HETATM   26  C   UNL     1      21.193  49.215  49.413  1.00  0.00     0.040 A 
HETATM   27  C   UNL     1      22.496  49.688  49.431  1.00  0.00     0.099 A 
HETATM   28  C   UNL     1      23.571  48.863  49.101  1.00  0.00     0.102 A 
HETATM   29  C   UNL     1      23.326  47.552  48.686  1.00  0.00     0.049 A 
BRANCH  27  30
HETATM   30  O   UNL     1      22.703  50.988  49.792  1.00  0.00    -0.358 OA
HETATM   31  H   UNL     1      22.587  51.025  50.762  1.00  0.00     0.218 HD
ENDBRANCH  27  30
BRANCH  28  32
HETATM   32  O   UNL     1      24.810  49.442  49.152  1.00  0.00    -0.349 OA
BRANCH  32  33
HETATM   33  C   UNL     1      25.906  48.523  49.220  1.00  0.00     0.171 C 
HETATM   34  C   UNL     1      27.175  49.280  48.876  1.00  0.00     0.034 C 
ENDBRANCH  32  33
ENDBRANCH  28  32
ENDBRANCH   1  24
BRANCH   5  35
HETATM   35  O   UNL     1      24.218  43.122  47.218  1.00  0.00    -0.355 OA
HETATM   36  H   UNL     1      24.748  43.119  48.040  1.00  0.00     0.218 HD
ENDBRANCH   5  35
BRANCH   2  37
HETATM   37  C   UNL     1      20.874  46.484  45.808  1.00  0.00     0.155 C 
BRANCH  37  38
HETATM   38  C   UNL     1      19.473  45.878  45.574  1.00  0.00     0.255 C 
BRANCH  38  39
HETATM   39  N   UNL     1      18.392  46.652  46.300  1.00  0.00    -0.066 N 
HETATM   40  H   UNL     1      17.522  46.556  45.753  1.00  0.00     0.280 HD
HETATM   41  C   UNL     1      18.029  46.091  47.670  1.00  0.00     0.261 C 
HETATM   42  C   UNL     1      16.866  46.907  48.253  1.00  0.00     0.195 C 
HETATM   43  O   UNL     1      17.211  48.295  48.342  1.00  0.00    -0.388 OA
HETATM   44  C   UNL     1      17.506  48.853  47.056  1.00  0.00     0.195 C 
HETATM   45  C   UNL     1      18.695  48.138  46.405  1.00  0.00     0.261 C 
ENDBRANCH  38  39
ENDBRANCH  37  38
ENDBRANCH   2  37
TORSDOF 13
ENDMDL
MODEL 2
REMARK VINA RESULT:      -8.9      1.188      2.429
REMARK  13 active torsions:
REMARK  status: ('A' for Active; 'I' for Inactive)
REMARK    1  A    between atoms: C_2  and  O_3 
REMARK    2  A    between atoms: O_3  and  C_4 
REMARK    3  A    between atoms: C_5  and  O_6 
REMARK    4  A    between atoms: C_9  and  C_10 
REMARK    5  A    between atoms: N_11  and  C_12 
REMARK    6  A    between atoms: C_12  and  C_13 
REMARK    7  A    between atoms: C_13  and  N_14 
REMARK    8  A    between atoms: C_23  and  O_24 
REMARK    9  A    between atoms: C_25  and  C_26 
REMARK   10  A    between atoms: C_26  and  C_27 
REMARK   11  A    between atoms: C_31  and  O_32 
REMARK   12  A    between atoms: O_32  and  C_33 
REMARK   13  A    between atoms: C_33  and  C_34 
ROOT
HETATM    1  C   UNL     1      21.220  45.865  47.791  1.00  0.00     0.161 A 
HETATM    2  N   UNL     1      21.219  45.928  46.330  1.00  0.00    -0.332 N 
HETATM    3  C   UNL     1      22.222  45.164  45.795  1.00  0.00     0.278 A 
HETATM    4  O   UNL     1      22.582  45.159  44.630  1.00  0.00    -0.265 OA
HETATM    5  C   UNL     1      22.884  44.442  46.891  1.00  0.00     0.146 A 
HETATM    6  C   UNL     1      22.303  44.848  48.029  1.00  0.00     0.059 A 
ENDROOT
BRANCH   6   7
HETATM    7  C   UNL     1      22.581  44.388  49.407  1.00  0.00     0.194 C 
HETATM    8  O   UNL     1      21.680  43.981  50.129  1.00  0.00    -0.287 OA
BRANCH   7   9
HETATM    9  C   UNL     1      23.975  44.407  49.886  1.00  0.00     0.021 A 
HETATM   10  C   UNL     1      24.719  43.223  50.007  1.00  0.00    -0.045 A 
HETATM   11  C   UNL     1      24.214  41.902  49.508  1.00  0.00     0.049 C 
HETATM   12  C   UNL     1      25.996  43.303  50.585  1.00  0.00     0.044 A 
HETATM   13  C   UNL     1      26.507  44.521  51.049  1.00  0.00     0.069 A 
HETATM   14  C   UNL     1      25.777  45.694  50.862  1.00  0.00     0.038 A 
HETATM   15  C   UNL     1      24.509  45.640  50.279  1.00  0.00     0.019 A 
BRANCH  13  16
HETATM   16  O   UNL     1      27.731  44.437  51.654  1.00  0.00    -0.347 OA
BRANCH  16  17
HETATM   17  C   UNL     1      27.942  43.298  52.488  1.00  0.00     0.214 C 
BRANCH  17  18
HETATM   18  C   UNL     1      28.784  43.718  53.666  1.00  0.00    -0.034 A 
HETATM   19  C   UNL     1      29.908  42.967  54.037  1.00  0.00     0.009 A 
HETATM   20  C   UNL     1      30.690  43.352  55.127  1.00  0.00     0.001 A 
HETATM   21  C   UNL     1      30.352  44.487  55.861  1.00  0.00     0.000 A 
HETATM   22  C   UNL     1      29.229  45.234  55.512  1.00  0.00     0.001 A 
HETATM   23  C   UNL     1      28.446  44.850  54.422  1.00  0.00     0.009 A 
ENDBRANCH  17  18
ENDBRANCH  16  17
ENDBRANCH  13  16
ENDBRANCH   7   9
ENDBRANCH   6   7
BRANCH   1  24
HETATM   24  C   UNL     1      21.466  47.253  48.358  1.00  0.00    -0.028 A 
HETATM   25  C   UNL     1      22.771  47.782  48.317  1.00  0.00     0.012 A 
HETATM   26  C   UNL     1      23.067  48.999  48.929  1.00  0.00     0.040 A 
HETATM   27  C   UNL     1      22.058  49.702  49.569  1.00  0.00     0.099 A 
HETATM   28  C   UNL     1      20.747  49.228  49.590  1.00  0.00     0.102 A 
HETATM   29  C   UNL     1      20.455  47.993  49.008  1.00  0.00     0.049 A 
BRANCH  27  30
HETATM   30  O   UNL     1      22.380  50.883  50.175  1.00  0.00    -0.358 OA
HETATM   31  H   UNL     1      21.534  51.337  50.354  1.00  0.00     0.218 HD
ENDBRANCH  27  30
BRANCH  28  32
HETATM   32  O   UNL     1      19.837  50.006  50.256  1.00  0.00    -0.349 OA
BRANCH  32  33
HETATM   33  C   UNL     1      18.765  50.507  49.450  1.00  0.00     0.171 C 
HETATM   34  C   UNL     1      18.967  52.002  49.280  1.00  0.00     0.034 C 
ENDBRANCH  32  33
ENDBRANCH  28  32
ENDBRANCH   1  24
BRANCH   5  35
HETATM   35  O   UNL     1      23.892  43.553  46.694  1.00  0.00    -0.355 OA
HETATM   36  H   UNL     1      24.667  44.048  46.362  1.00  0.00     0.218 HD
ENDBRANCH   5  35
BRANCH   2  37
HETATM   37  C   UNL     1      20.250  46.699  45.550  1.00  0.00     0.155 C 
BRANCH  37  38
HETATM   38  C   UNL     1      18.796  46.191  45.660  1.00  0.00     0.255 C 
BRANCH  38  39
HETATM   39  N   UNL     1      17.985  47.002  46.650  1.00  0.00    -0.066 N 
HETATM   40  H   UNL     1      18.613  47.712  47.057  1.00  0.00     0.280 HD
HETATM   41  C   UNL     1      16.863  47.820  46.021  1.00  0.00     0.261 C 
HETATM   42  C   UNL     1      16.185  48.660  47.113  1.00  0.00     0.195 C 
HETATM   43  O   UNL     1      15.683  47.824  48.163  1.00  0.00    -0.388 OA
HETATM   44  C   UNL     1      16.732  47.085  48.800  1.00  0.00     0.195 C 
HETATM   45  C   UNL     1      17.445  46.167  47.800  1.00  0.00     0.261 C 
ENDBRANCH  38  39
ENDBRANCH  37  38
ENDBRANCH   2  37
TORSDOF 13
ENDMDL
MODEL 3
REMARK VINA RESULT:      -8.6      3.174      6.205
REMARK  13 active torsions:
REMARK  status: ('A' for Active; 'I' for Inactive)
REMARK    1  A    between atoms: C_2  and  O_3 
REMARK    2  A    between atoms: O_3  and  C_4 
REMARK    3  A    between atoms: C_5  and  O_6 
REMARK    4  A    between atoms: C_9  and  C_10 
REMARK    5  A    between atoms: N_11  and  C_12 
REMARK    6  A    between atoms: C_12  and  C_13 
REMARK    7  A    between atoms: C_13  and  N_14 
REMARK    8  A    between atoms: C_23  and  O_24 
REMARK    9  A    between atoms: C_25  and  C_26 
REMARK   10  A    between atoms: C_26  and  C_27 
REMARK   11  A    between atoms: C_31  and  O_32 
REMARK   12  A    between atoms: O_32  and  C_33 
REMARK   13  A    between atoms: C_33  and  C_34 
ROOT
HETATM    1  C   UNL     1      25.358  42.973  48.450  1.00  0.00     0.161 A 
HETATM    2  N   UNL     1      23.915  42.831  48.254  1.00  0.00    -0.332 N 
HETATM    3  C   UNL     1      23.211  43.581  49.159  1.00  0.00     0.278 A 
HETATM    4  O   UNL     1      22.009  43.529  49.358  1.00  0.00    -0.265 OA
HETATM    5  C   UNL     1      24.168  44.371  49.945  1.00  0.00     0.146 A 
HETATM    6  C   UNL     1      25.394  44.018  49.532  1.00  0.00     0.059 A 
ENDROOT
BRANCH   6   7
HETATM    7  C   UNL     1      26.697  44.556  49.983  1.00  0.00     0.194 C 
HETATM    8  O   UNL     1      27.270  45.431  49.348  1.00  0.00    -0.287 OA
BRANCH   7   9
HETATM    9  C   UNL     1      27.279  44.031  51.231  1.00  0.00     0.021 A 
HETATM   10  C   UNL     1      27.152  44.728  52.443  1.00  0.00    -0.045 A 
HETATM   11  C   UNL     1      26.290  45.947  52.582  1.00  0.00     0.049 C 
HETATM   12  C   UNL     1      27.836  44.231  53.564  1.00  0.00     0.044 A 
HETATM   13  C   UNL     1      28.639  43.088  53.475  1.00  0.00     0.069 A 
HETATM   14  C   UNL     1      28.701  42.376  52.278  1.00  0.00     0.038 A 
HETATM   15  C   UNL     1      28.019  42.845  51.153  1.00  0.00     0.019 A 
BRANCH  13  16
HETATM   16  O   UNL     1      29.303  42.762  54.626  1.00  0.00    -0.347 OA
BRANCH  16  17
HETATM   17  C   UNL     1      30.615  43.306  54.771  1.00  0.00     0.214 C 
BRANCH  17  18
HETATM   18  C   UNL     1      30.655  44.124  56.037  1.00  0.00    -0.034 A 
HETATM   19  C   UNL     1      31.474  43.733  57.106  1.00  0.00     0.009 A 
HETATM   20  C   UNL     1      31.514  44.486  58.280  1.00  0.00     0.001 A 
HETATM   21  C   UNL     1      30.731  45.633  58.399  1.00  0.00     0.000 A 
HETATM   22  C   UNL     1      29.902  46.024  57.350  1.00  0.00     0.001 A 
HETATM   23  C   UNL     1      29.861  45.271  56.175  1.00  0.00     0.009 A 
ENDBRANCH  17  18
ENDBRANCH  16  17
ENDBRANCH  13  16
ENDBRANCH   7   9
ENDBRANCH   6   7
BRANCH   1  24
HETATM   24  C   UNL     1      25.957  41.622  48.801  1.00  0.00    -0.028 A 
HETATM   25  C   UNL     1      25.549  40.987  49.990  1.00  0.00     0.012 A 
HETATM   26  C   UNL     1      26.157  39.805  50.412  1.00  0.00     0.040 A 
HETATM   27  C   UNL     1      27.160  39.242  49.639  1.00  0.00     0.099 A 
HETATM   28  C   UNL     1      27.557  39.822  48.434  1.00  0.00     0.102 A 
HETATM   29  C   UNL     1      26.974  41.023  48.028  1.00  0.00     0.049 A 
BRANCH  27  30
HETATM   30  O   UNL     1      27.749  38.094  50.085  1.00  0.00    -0.358 OA
HETATM   31  H   UNL     1      28.561  38.367  50.554  1.00  0.00     0.218 HD
ENDBRANCH  27  30
BRANCH  28  32
HETATM   32  O   UNL     1      28.560  39.179  47.760  1.00  0.00    -0.349 OA
BRANCH  32  33
HETATM   33  C   UNL     1      28.165  38.565  46.529  1.00  0.00     0.171 C 
HETATM   34  C   UNL     1      28.219  37.059  46.717  1.00  0.00     0.034 C 
ENDBRANCH  32  33
ENDBRANCH  28  32
ENDBRANCH   1  24
BRANCH   5  35
HETATM   35  O   UNL     1      23.791  45.264  50.898  1.00  0.00    -0.355 OA
HETATM   36  H   UNL     1      23.543  46.095  50.446  1.00  0.00     0.218 HD
ENDBRANCH   5  35
BRANCH   2  37
HETATM   37  C   UNL     1      23.314  42.005  47.207  1.00  0.00     0.155 C 
BRANCH  37  38
HETATM   38  C   UNL     1      23.412  42.606  45.787  1.00  0.00     0.255 C 
BRANCH  38  39
HETATM   39  N   UNL     1      22.194  43.434  45.436  1.00  0.00    -0.066 N 
HETATM   40  H   UNL     1      22.040  43.344  44.420  1.00  0.00     0.280 HD
HETATM   41  C   UNL     1      20.893  42.929  46.051  1.00  0.00     0.261 C 
HETATM   42  C   UNL     1      19.731  43.796  45.545  1.00  0.00     0.195 C 
HETATM   43  O   UNL     1      19.947  45.176  45.864  1.00  0.00    -0.388 OA
HETATM   44  C   UNL     1      21.140  45.682  45.252  1.00  0.00     0.195 C 
HETATM   45  C   UNL     1      22.375  44.914  45.734  1.00  0.00     0.261 C 
ENDBRANCH  38  39
ENDBRANCH  37  38
ENDBRANCH   2  37
TORSDOF 13
ENDMDL
MODEL 4
REMARK VINA RESULT:      -8.6      2.699      5.547
REMARK  13 active torsions:
REMARK  status: ('A' for Active; 'I' for Inactive)
REMARK    1  A    between atoms: C_2  and  O_3 
REMARK    2  A    between atoms: O_3  and  C_4 
REMARK    3  A    between atoms: C_5  and  O_6 
REMARK    4  A    between atoms: C_9  and  C_10 
REMARK    5  A    between atoms: N_11  and  C_12 
REMARK    6  A    between atoms: C_12  and  C_13 
REMARK    7  A    between atoms: C_13  and  N_14 
REMARK    8  A    between atoms: C_23  and  O_24 
REMARK    9  A    between atoms: C_25  and  C_26 
REMARK   10  A    between atoms: C_26  and  C_27 
REMARK   11  A    between atoms: C_31  and  O_32 
REMARK   12  A    between atoms: O_32  and  C_33 
REMARK   13  A    between atoms: C_33  and  C_34 
ROOT
HETATM    1  C   UNL     1      20.880  49.725  47.824  1.00  0.00     0.161 A 
HETATM    2  N   UNL     1      19.859  50.428  48.601  1.00  0.00    -0.332 N 
HETATM    3  C   UNL     1      20.385  50.971  49.743  1.00  0.00     0.278 A 
HETATM    4  O   UNL     1      19.755  51.455  50.668  1.00  0.00    -0.265 OA
HETATM    5  C   UNL     1      21.838  50.756  49.727  1.00  0.00     0.146 A 
HETATM    6  C   UNL     1      22.113  50.044  48.626  1.00  0.00     0.059 A 
ENDROOT
BRANCH   6   7
HETATM    7  C   UNL     1      23.437  49.604  48.131  1.00  0.00     0.194 C 
HETATM    8  O   UNL     1      23.875  50.006  47.061  1.00  0.00    -0.287 OA
BRANCH   7   9
HETATM    9  C   UNL     1      24.232  48.689  48.971  1.00  0.00     0.021 A 
HETATM   10  C   UNL     1      25.621  48.841  49.100  1.00  0.00    -0.045 A 
HETATM   11  C   UNL     1      26.356  50.021  48.538  1.00  0.00     0.049 C 
HETATM   12  C   UNL     1      26.327  47.861  49.815  1.00  0.00     0.044 A 
HETATM   13  C   UNL     1      25.673  46.753  50.366  1.00  0.00     0.069 A 
HETATM   14  C   UNL     1      24.285  46.654  50.279  1.00  0.00     0.038 A 
HETATM   15  C   UNL     1      23.560  47.624  49.583  1.00  0.00     0.019 A 
BRANCH  13  16
HETATM   16  O   UNL     1      26.496  45.843  50.971  1.00  0.00    -0.347 OA
BRANCH  16  17
HETATM   17  C   UNL     1      26.004  45.253  52.174  1.00  0.00     0.214 C 
BRANCH  17  18
HETATM   18  C   UNL     1      26.836  45.754  53.327  1.00  0.00    -0.034 A 
HETATM   19  C   UNL     1      27.730  44.895  53.980  1.00  0.00     0.009 A 
HETATM   20  C   UNL     1      28.502  45.354  55.049  1.00  0.00     0.001 A 
HETATM   21  C   UNL     1      28.382  46.674  55.479  1.00  0.00     0.000 A 
HETATM   22  C   UNL     1      27.486  47.534  54.848  1.00  0.00     0.001 A 
HETATM   23  C   UNL     1      26.713  47.075  53.779  1.00  0.00     0.009 A 
ENDBRANCH  17  18
ENDBRANCH  16  17
ENDBRANCH  13  16
ENDBRANCH   7   9
ENDBRANCH   6   7
BRANCH   1  24
HETATM   24  C   UNL     1      20.512  48.255  47.715  1.00  0.00    -0.028 A 
HETATM   25  C   UNL     1      20.015  47.593  48.854  1.00  0.00     0.012 A 
HETATM   26  C   UNL     1      19.775  46.220  48.833  1.00  0.00     0.040 A 
HETATM   27  C   UNL     1      20.012  45.505  47.670  1.00  0.00     0.099 A 
HETATM   28  C   UNL     1      20.462  46.138  46.511  1.00  0.00     0.102 A 
HETATM   29  C   UNL     1      20.735  47.507  46.540  1.00  0.00     0.049 A 
BRANCH  27  30
HETATM   30  O   UNL     1      19.785  44.159  47.683  1.00  0.00    -0.358 OA
HETATM   31  H   UNL     1      19.495  43.922  46.781  1.00  0.00     0.218 HD
ENDBRANCH  27  30
BRANCH  28  32
HETATM   32  O   UNL     1      20.664  45.329  45.425  1.00  0.00    -0.349 OA
BRANCH  32  33
HETATM   33  C   UNL     1      21.999  45.329  44.909  1.00  0.00     0.171 C 
HETATM   34  C   UNL     1      22.792  44.275  45.660  1.00  0.00     0.034 C 
ENDBRANCH  32  33
ENDBRANCH  28  32
ENDBRANCH   1  24
BRANCH   5  35
HETATM   35  O   UNL     1      22.671  51.222  50.695  1.00  0.00    -0.355 OA
HETATM   36  H   UNL     1      22.756  50.526  51.376  1.00  0.00     0.218 HD
ENDBRANCH   5  35
BRANCH   2  37
HETATM   37  C   UNL     1      18.461  50.545  48.188  1.00  0.00     0.155 C 
BRANCH  37  38
HETATM   38  C   UNL     1      18.147  51.806  47.353  1.00  0.00     0.255 C 
BRANCH  38  39
HETATM   39  N   UNL     1      17.038  52.633  47.969  1.00  0.00    -0.066 N 
HETATM   40  H   UNL     1      17.243  53.624  47.770  1.00  0.00     0.280 HD
HETATM   41  C   UNL     1      15.665  52.408  47.345  1.00  0.00     0.261 C 
HETATM   42  C   UNL     1      14.657  53.368  47.995  1.00  0.00     0.195 C 
HETATM   43  O   UNL     1      14.613  53.177  49.414  1.00  0.00    -0.388 OA
HETATM   44  C   UNL     1      15.883  53.433  50.025  1.00  0.00     0.195 C 
HETATM   45  C   UNL     1      16.958  52.486  49.481  1.00  0.00     0.261 C 
ENDBRANCH  38  39
ENDBRANCH  37  38
ENDBRANCH   2  37
TORSDOF 13
ENDMDL
MODEL 5
REMARK VINA RESULT:      -8.6      2.145      5.110
REMARK  13 active torsions:
REMARK  status: ('A' for Active; 'I' for Inactive)
REMARK    1  A    between atoms: C_2  and  O_3 
REMARK    2  A    between atoms: O_3  and  C_4 
REMARK    3  A    between atoms: C_5  and  O_6 
REMARK    4  A    between atoms: C_9  and  C_10 
REMARK    5  A    between atoms: N_11  and  C_12 
REMARK    6  A    between atoms: C_12  and  C_13 
REMARK    7  A    between atoms: C_13  and  N_14 
REMARK    8  A    between atoms: C_23  and  O_24 
REMARK    9  A    between atoms: C_25  and  C_26 
REMARK   10  A    between atoms: C_26  and  C_27 
REMARK   11  A    between atoms: C_31  and  O_32 
REMARK   12  A    between atoms: O_32  and  C_33 
REMARK   13  A    between atoms: C_33  and  C_34 
ROOT
HETATM    1  C   UNL     1      21.081  48.887  47.669  1.00  0.00     0.161 A 
HETATM    2  N   UNL     1      19.855  49.278  48.364  1.00  0.00    -0.332 N 
HETATM    3  C   UNL     1      20.130  49.873  49.568  1.00  0.00     0.278 A 
HETATM    4  O   UNL     1      19.322  50.140  50.442  1.00  0.00    -0.265 OA
HETATM    5  C   UNL     1      21.587  50.019  49.685  1.00  0.00     0.146 A 
HETATM    6  C   UNL     1      22.123  49.454  48.594  1.00  0.00     0.059 A 
ENDROOT
BRANCH   6   7
HETATM    7  C   UNL     1      23.552  49.376  48.216  1.00  0.00     0.194 C 
HETATM    8  O   UNL     1      23.975  49.963  47.229  1.00  0.00    -0.287 OA
BRANCH   7   9
HETATM    9  C   UNL     1      24.463  48.595  49.072  1.00  0.00     0.021 A 
HETATM   10  C   UNL     1      25.847  48.823  49.061  1.00  0.00    -0.045 A 
HETATM   11  C   UNL     1      26.467  49.968  48.316  1.00  0.00     0.049 C 
HETATM   12  C   UNL     1      26.664  47.960  49.808  1.00  0.00     0.044 A 
HETATM   13  C   UNL     1      26.120  46.889  50.527  1.00  0.00     0.069 A 
HETATM   14  C   UNL     1      24.738  46.718  50.575  1.00  0.00     0.038 A 
HETATM   15  C   UNL     1      23.905  47.572  49.849  1.00  0.00     0.019 A 
BRANCH  13  16
HETATM   16  O   UNL     1      27.040  46.089  51.148  1.00  0.00    -0.347 OA
BRANCH  16  17
HETATM   17  C   UNL     1      26.514  45.020  51.935  1.00  0.00     0.214 C 
BRANCH  17  18
HETATM   18  C   UNL     1      27.649  44.387  52.699  1.00  0.00    -0.034 A 
HETATM   19  C   UNL     1      28.433  43.389  52.104  1.00  0.00     0.009 A 
HETATM   20  C   UNL     1      29.484  42.799  52.808  1.00  0.00     0.001 A 
HETATM   21  C   UNL     1      29.756  43.196  54.116  1.00  0.00     0.000 A 
HETATM   22  C   UNL     1      28.974  44.175  54.724  1.00  0.00     0.001 A 
HETATM   23  C   UNL     1      27.922  44.765  54.021  1.00  0.00     0.009 A 
ENDBRANCH  17  18
ENDBRANCH  16  17
ENDBRANCH  13  16
ENDBRANCH   7   9
ENDBRANCH   6   7
BRANCH   1  24
HETATM   24  C   UNL     1      21.098  47.379  47.481  1.00  0.00    -0.028 A 
HETATM   25  C   UNL     1      20.903  46.853  46.190  1.00  0.00     0.012 A 
HETATM   26  C   UNL     1      20.794  45.477  45.989  1.00  0.00     0.040 A 
HETATM   27  C   UNL     1      20.898  44.621  47.073  1.00  0.00     0.099 A 
HETATM   28  C   UNL     1      21.135  45.107  48.359  1.00  0.00     0.102 A 
HETATM   29  C   UNL     1      21.210  46.485  48.567  1.00  0.00     0.049 A 
BRANCH  27  30
HETATM   30  O   UNL     1      20.770  43.280  46.850  1.00  0.00    -0.358 OA
HETATM   31  H   UNL     1      19.837  43.132  46.601  1.00  0.00     0.218 HD
ENDBRANCH  27  30
BRANCH  28  32
HETATM   32  O   UNL     1      21.214  44.167  49.351  1.00  0.00    -0.349 OA
BRANCH  32  33
HETATM   33  C   UNL     1      22.528  43.950  49.876  1.00  0.00     0.171 C 
HETATM   34  C   UNL     1      22.991  42.575  49.427  1.00  0.00     0.034 C 
ENDBRANCH  32  33
ENDBRANCH  28  32
ENDBRANCH   1  24
BRANCH   5  35
HETATM   35  O   UNL     1      22.192  50.623  50.741  1.00  0.00    -0.355 OA
HETATM   36  H   UNL     1      21.603  50.529  51.516  1.00  0.00     0.218 HD
ENDBRANCH   5  35
BRANCH   2  37
HETATM   37  C   UNL     1      18.511  49.073  47.823  1.00  0.00     0.155 C 
BRANCH  37  38
HETATM   38  C   UNL     1      18.129  50.043  46.684  1.00  0.00     0.255 C 
BRANCH  38  39
HETATM   39  N   UNL     1      16.849  50.795  46.985  1.00  0.00    -0.066 N 
HETATM   40  H   UNL     1      16.126  50.097  47.216  1.00  0.00     0.280 HD
HETATM   41  C   UNL     1      16.917  51.679  48.226  1.00  0.00     0.261 C 
HETATM   42  C   UNL     1      15.537  52.307  48.468  1.00  0.00     0.195 C 
HETATM   43  O   UNL     1      15.110  53.060  47.325  1.00  0.00    -0.388 OA
HETATM   44  C   UNL     1      14.992  52.235  46.160  1.00  0.00     0.195 C 
HETATM   45  C   UNL     1      16.337  51.596  45.798  1.00  0.00     0.261 C 
ENDBRANCH  38  39
ENDBRANCH  37  38
ENDBRANCH   2  37
TORSDOF 13
ENDMDL
MODEL 6
REMARK VINA RESULT:      -8.6      4.302      8.170
REMARK  13 active torsions:
REMARK  status: ('A' for Active; 'I' for Inactive)
REMARK    1  A    between atoms: C_2  and  O_3 
REMARK    2  A    between atoms: O_3  and  C_4 
REMARK    3  A    between atoms: C_5  and  O_6 
REMARK    4  A    between atoms: C_9  and  C_10 
REMARK    5  A    between atoms: N_11  and  C_12 
REMARK    6  A    between atoms: C_12  and  C_13 
REMARK    7  A    between atoms: C_13  and  N_14 
REMARK    8  A    between atoms: C_23  and  O_24 
REMARK    9  A    between atoms: C_25  and  C_26 
REMARK   10  A    between atoms: C_26  and  C_27 
REMARK   11  A    between atoms: C_31  and  O_32 
REMARK   12  A    between atoms: O_32  and  C_33 
REMARK   13  A    between atoms: C_33  and  C_34 
ROOT
HETATM    1  C   UNL     1      17.397  50.773  46.876  1.00  0.00     0.161 A 
HETATM    2  N   UNL     1      16.412  51.073  45.838  1.00  0.00    -0.332 N 
HETATM    3  C   UNL     1      15.455  51.942  46.292  1.00  0.00     0.278 A 
HETATM    4  O   UNL     1      14.417  52.234  45.722  1.00  0.00    -0.265 OA
HETATM    5  C   UNL     1      15.827  52.367  47.648  1.00  0.00     0.146 A 
HETATM    6  C   UNL     1      16.940  51.695  47.974  1.00  0.00     0.059 A 
ENDROOT
BRANCH   6   7
HETATM    7  C   UNL     1      17.735  51.798  49.217  1.00  0.00     0.194 C 
HETATM    8  O   UNL     1      17.260  52.295  50.230  1.00  0.00    -0.287 OA
BRANCH   7   9
HETATM    9  C   UNL     1      19.110  51.264  49.218  1.00  0.00     0.021 A 
HETATM   10  C   UNL     1      19.460  50.156  50.004  1.00  0.00    -0.045 A 
HETATM   11  C   UNL     1      18.443  49.351  50.756  1.00  0.00     0.049 C 
HETATM   12  C   UNL     1      20.812  49.780  50.048  1.00  0.00     0.044 A 
HETATM   13  C   UNL     1      21.788  50.499  49.348  1.00  0.00     0.069 A 
HETATM   14  C   UNL     1      21.409  51.558  48.524  1.00  0.00     0.038 A 
HETATM   15  C   UNL     1      20.068  51.942  48.454  1.00  0.00     0.019 A 
BRANCH  13  16
HETATM   16  O   UNL     1      23.070  50.064  49.542  1.00  0.00    -0.347 OA
BRANCH  16  17
HETATM   17  C   UNL     1      23.777  49.651  48.372  1.00  0.00     0.214 C 
BRANCH  17  18
HETATM   18  C   UNL     1      25.167  49.232  48.778  1.00  0.00    -0.034 A 
HETATM   19  C   UNL     1      26.277  49.999  48.398  1.00  0.00     0.009 A 
HETATM   20  C   UNL     1      27.566  49.615  48.770  1.00  0.00     0.001 A 
HETATM   21  C   UNL     1      27.758  48.456  49.521  1.00  0.00     0.000 A 
HETATM   22  C   UNL     1      26.665  47.677  49.892  1.00  0.00     0.001 A 
HETATM   23  C   UNL     1      25.376  48.060  49.520  1.00  0.00     0.009 A 
ENDBRANCH  17  18
ENDBRANCH  16  17
ENDBRANCH  13  16
ENDBRANCH   7   9
ENDBRANCH   6   7
BRANCH   1  24
HETATM   24  C   UNL     1      17.364  49.287  47.191  1.00  0.00    -0.028 A 
HETATM   25  C   UNL     1      16.252  48.762  47.877  1.00  0.00     0.012 A 
HETATM   26  C   UNL     1      16.231  47.430  48.290  1.00  0.00     0.040 A 
HETATM   27  C   UNL     1      17.312  46.613  48.003  1.00  0.00     0.099 A 
HETATM   28  C   UNL     1      18.410  47.089  47.287  1.00  0.00     0.102 A 
HETATM   29  C   UNL     1      18.448  48.430  46.902  1.00  0.00     0.049 A 
BRANCH  27  30
HETATM   30  O   UNL     1      17.273  45.318  48.435  1.00  0.00    -0.358 OA
HETATM   31  H   UNL     1      16.561  45.273  49.102  1.00  0.00     0.218 HD
ENDBRANCH  27  30
BRANCH  28  32
HETATM   32  O   UNL     1      19.420  46.190  47.066  1.00  0.00    -0.349 OA
BRANCH  32  33
HETATM   33  C   UNL     1      20.719  46.767  46.903  1.00  0.00     0.171 C 
HETATM   34  C   UNL     1      21.451  46.658  48.228  1.00  0.00     0.034 C 
ENDBRANCH  32  33
ENDBRANCH  28  32
ENDBRANCH   1  24
BRANCH   5  35
HETATM   35  O   UNL     1      15.113  53.274  48.366  1.00  0.00    -0.355 OA
HETATM   36  H   UNL     1      14.706  52.804  49.120  1.00  0.00     0.218 HD
ENDBRANCH   5  35
BRANCH   2  37
HETATM   37  C   UNL     1      16.465  50.524  44.483  1.00  0.00     0.155 C 
BRANCH  37  38
HETATM   38  C   UNL     1      17.891  50.388  43.906  1.00  0.00     0.255 C 
BRANCH  38  39
HETATM   39  N   UNL     1      18.156  51.395  42.806  1.00  0.00    -0.066 N 
HETATM   40  H   UNL     1      18.935  51.996  43.116  1.00  0.00     0.280 HD
HETATM   41  C   UNL     1      18.661  50.783  41.503  1.00  0.00     0.261 C 
HETATM   42  C   UNL     1      18.975  51.910  40.510  1.00  0.00     0.195 C 
HETATM   43  O   UNL     1      17.820  52.726  40.280  1.00  0.00    -0.388 OA
HETATM   44  C   UNL     1      17.361  53.350  41.485  1.00  0.00     0.195 C 
HETATM   45  C   UNL     1      16.968  52.303  42.533  1.00  0.00     0.261 C 
ENDBRANCH  38  39
ENDBRANCH  37  38
ENDBRANCH   2  37
TORSDOF 13
ENDMDL
MODEL 7
REMARK VINA RESULT:      -8.5      4.297      7.881
REMARK  13 active torsions:
REMARK  status: ('A' for Active; 'I' for Inactive)
REMARK    1  A    between atoms: C_2  and  O_3 
REMARK    2  A    between atoms: O_3  and  C_4 
REMARK    3  A    between atoms: C_5  and  O_6 
REMARK    4  A    between atoms: C_9  and  C_10 
REMARK    5  A    between atoms: N_11  and  C_12 
REMARK    6  A    between atoms: C_12  and  C_13 
REMARK    7  A    between atoms: C_13  and  N_14 
REMARK    8  A    between atoms: C_23  and  O_24 
REMARK    9  A    between atoms: C_25  and  C_26 
REMARK   10  A    between atoms: C_26  and  C_27 
REMARK   11  A    between atoms: C_31  and  O_32 
REMARK   12  A    between atoms: O_32  and  C_33 
REMARK   13  A    between atoms: C_33  and  C_34 
ROOT
HETATM    1  C   UNL     1      17.378  50.907  46.852  1.00  0.00     0.161 A 
HETATM    2  N   UNL     1      16.355  51.211  45.851  1.00  0.00    -0.332 N 
HETATM    3  C   UNL     1      15.438  52.109  46.330  1.00  0.00     0.278 A 
HETATM    4  O   UNL     1      14.383  52.414  45.799  1.00  0.00    -0.265 OA
HETATM    5  C   UNL     1      15.878  52.551  47.660  1.00  0.00     0.146 A 
HETATM    6  C   UNL     1      16.989  51.860  47.950  1.00  0.00     0.059 A 
ENDROOT
BRANCH   6   7
HETATM    7  C   UNL     1      17.840  51.967  49.156  1.00  0.00     0.194 C 
HETATM    8  O   UNL     1      17.453  52.569  50.149  1.00  0.00    -0.287 OA
BRANCH   7   9
HETATM    9  C   UNL     1      19.160  51.311  49.144  1.00  0.00     0.021 A 
HETATM   10  C   UNL     1      19.424  50.192  49.950  1.00  0.00    -0.045 A 
HETATM   11  C   UNL     1      18.353  49.500  50.739  1.00  0.00     0.049 C 
HETATM   12  C   UNL     1      20.736  49.696  49.979  1.00  0.00     0.044 A 
HETATM   13  C   UNL     1      21.760  50.308  49.246  1.00  0.00     0.069 A 
HETATM   14  C   UNL     1      21.463  51.378  48.404  1.00  0.00     0.038 A 
HETATM   15  C   UNL     1      20.161  51.882  48.349  1.00  0.00     0.019 A 
BRANCH  13  16
HETATM   16  O   UNL     1      23.001  49.762  49.427  1.00  0.00    -0.347 OA
BRANCH  16  17
HETATM   17  C   UNL     1      23.993  50.125  48.467  1.00  0.00     0.214 C 
BRANCH  17  18
HETATM   18  C   UNL     1      25.277  49.415  48.815  1.00  0.00    -0.034 A 
HETATM   19  C   UNL     1      25.246  48.203  49.519  1.00  0.00     0.009 A 
HETATM   20  C   UNL     1      26.432  47.543  49.845  1.00  0.00     0.001 A 
HETATM   21  C   UNL     1      27.659  48.092  49.478  1.00  0.00     0.000 A 
HETATM   22  C   UNL     1      27.704  49.304  48.792  1.00  0.00     0.001 A 
HETATM   23  C   UNL     1      26.518  49.965  48.466  1.00  0.00     0.009 A 
ENDBRANCH  17  18
ENDBRANCH  16  17
ENDBRANCH  13  16
ENDBRANCH   7   9
ENDBRANCH   6   7
BRANCH   1  24
HETATM   24  C   UNL     1      17.326  49.429  47.196  1.00  0.00    -0.028 A 
HETATM   25  C   UNL     1      16.209  48.932  47.896  1.00  0.00     0.012 A 
HETATM   26  C   UNL     1      16.172  47.610  48.336  1.00  0.00     0.040 A 
HETATM   27  C   UNL     1      17.242  46.772  48.062  1.00  0.00     0.099 A 
HETATM   28  C   UNL     1      18.344  47.219  47.333  1.00  0.00     0.102 A 
HETATM   29  C   UNL     1      18.398  48.552  46.922  1.00  0.00     0.049 A 
BRANCH  27  30
HETATM   30  O   UNL     1      17.186  45.486  48.520  1.00  0.00    -0.358 OA
HETATM   31  H   UNL     1      17.260  44.913  47.732  1.00  0.00     0.218 HD
ENDBRANCH  27  30
BRANCH  28  32
HETATM   32  O   UNL     1      19.341  46.303  47.128  1.00  0.00    -0.349 OA
BRANCH  32  33
HETATM   33  C   UNL     1      20.435  46.383  48.047  1.00  0.00     0.171 C 
HETATM   34  C   UNL     1      21.582  47.092  47.349  1.00  0.00     0.034 C 
ENDBRANCH  32  33
ENDBRANCH  28  32
ENDBRANCH   1  24
BRANCH   5  35
HETATM   35  O   UNL     1      15.216  53.487  48.390  1.00  0.00    -0.355 OA
HETATM   36  H   UNL     1      15.884  54.061  48.815  1.00  0.00     0.218 HD
ENDBRANCH   5  35
BRANCH   2  37
HETATM   37  C   UNL     1      16.336  50.636  44.506  1.00  0.00     0.155 C 
BRANCH  37  38
HETATM   38  C   UNL     1      15.250  49.559  44.289  1.00  0.00     0.255 C 
BRANCH  38  39
HETATM   39  N   UNL     1      15.841  48.240  43.838  1.00  0.00    -0.066 N 
HETATM   40  H   UNL     1      15.429  48.013  42.920  1.00  0.00     0.280 HD
HETATM   41  C   UNL     1      17.341  48.283  43.568  1.00  0.00     0.261 C 
HETATM   42  C   UNL     1      17.793  46.916  43.033  1.00  0.00     0.195 C 
HETATM   43  O   UNL     1      17.469  45.873  43.960  1.00  0.00    -0.388 OA
HETATM   44  C   UNL     1      16.057  45.784  44.187  1.00  0.00     0.195 C 
HETATM   45  C   UNL     1      15.510  47.089  44.775  1.00  0.00     0.261 C 
ENDBRANCH  38  39
ENDBRANCH  37  38
ENDBRANCH   2  37
TORSDOF 13
ENDMDL
MODEL 8
REMARK VINA RESULT:      -8.4      1.729      2.485
REMARK  13 active torsions:
REMARK  status: ('A' for Active; 'I' for Inactive)
REMARK    1  A    between atoms: C_2  and  O_3 
REMARK    2  A    between atoms: O_3  and  C_4 
REMARK    3  A    between atoms: C_5  and  O_6 
REMARK    4  A    between atoms: C_9  and  C_10 
REMARK    5  A    between atoms: N_11  and  C_12 
REMARK    6  A    between atoms: C_12  and  C_13 
REMARK    7  A    between atoms: C_13  and  N_14 
REMARK    8  A    between atoms: C_23  and  O_24 
REMARK    9  A    between atoms: C_25  and  C_26 
REMARK   10  A    between atoms: C_26  and  C_27 
REMARK   11  A    between atoms: C_31  and  O_32 
REMARK   12  A    between atoms: O_32  and  C_33 
REMARK   13  A    between atoms: C_33  and  C_34 
ROOT
HETATM    1  C   UNL     1      23.518  45.530  49.742  1.00  0.00     0.161 A 
HETATM    2  N   UNL     1      22.406  44.757  49.188  1.00  0.00    -0.332 N 
HETATM    3  C   UNL     1      22.854  43.699  48.441  1.00  0.00     0.278 A 
HETATM    4  O   UNL     1      22.177  42.990  47.717  1.00  0.00    -0.265 OA
HETATM    5  C   UNL     1      24.318  43.642  48.559  1.00  0.00     0.146 A 
HETATM    6  C   UNL     1      24.689  44.691  49.305  1.00  0.00     0.059 A 
ENDROOT
BRANCH   6   7
HETATM    7  C   UNL     1      26.052  45.058  49.749  1.00  0.00     0.194 C 
HETATM    8  O   UNL     1      26.719  45.873  49.125  1.00  0.00    -0.287 OA
BRANCH   7   9
HETATM    9  C   UNL     1      26.582  44.437  50.977  1.00  0.00     0.021 A 
HETATM   10  C   UNL     1      26.526  45.103  52.211  1.00  0.00    -0.045 A 
HETATM   11  C   UNL     1      25.788  46.395  52.394  1.00  0.00     0.049 C 
HETATM   12  C   UNL     1      27.159  44.504  53.312  1.00  0.00     0.044 A 
HETATM   13  C   UNL     1      27.845  43.291  53.182  1.00  0.00     0.069 A 
HETATM   14  C   UNL     1      27.835  42.617  51.962  1.00  0.00     0.038 A 
HETATM   15  C   UNL     1      27.201  43.187  50.856  1.00  0.00     0.019 A 
BRANCH  13  16
HETATM   16  O   UNL     1      28.475  42.863  54.318  1.00  0.00    -0.347 OA
BRANCH  16  17
HETATM   17  C   UNL     1      29.895  43.013  54.345  1.00  0.00     0.214 C 
BRANCH  17  18
HETATM   18  C   UNL     1      30.274  43.745  55.607  1.00  0.00    -0.034 A 
HETATM   19  C   UNL     1      29.690  44.983  55.909  1.00  0.00     0.009 A 
HETATM   20  C   UNL     1      30.039  45.665  57.076  1.00  0.00     0.001 A 
HETATM   21  C   UNL     1      30.980  45.120  57.947  1.00  0.00     0.000 A 
HETATM   22  C   UNL     1      31.578  43.897  57.651  1.00  0.00     0.001 A 
HETATM   23  C   UNL     1      31.231  43.215  56.484  1.00  0.00     0.009 A 
ENDBRANCH  17  18
ENDBRANCH  16  17
ENDBRANCH  13  16
ENDBRANCH   7   9
ENDBRANCH   6   7
BRANCH   1  24
HETATM   24  C   UNL     1      23.468  46.948  49.199  1.00  0.00    -0.028 A 
HETATM   25  C   UNL     1      22.409  47.312  48.346  1.00  0.00     0.012 A 
HETATM   26  C   UNL     1      22.386  48.564  47.732  1.00  0.00     0.040 A 
HETATM   27  C   UNL     1      23.410  49.464  47.982  1.00  0.00     0.099 A 
HETATM   28  C   UNL     1      24.450  49.151  48.856  1.00  0.00     0.102 A 
HETATM   29  C   UNL     1      24.493  47.886  49.446  1.00  0.00     0.049 A 
BRANCH  27  30
HETATM   30  O   UNL     1      23.370  50.675  47.354  1.00  0.00    -0.358 OA
HETATM   31  H   UNL     1      22.760  50.572  46.598  1.00  0.00     0.218 HD
ENDBRANCH  27  30
BRANCH  28  32
HETATM   32  O   UNL     1      25.407  50.117  49.022  1.00  0.00    -0.349 OA
BRANCH  32  33
HETATM   33  C   UNL     1      26.580  49.951  48.220  1.00  0.00     0.171 C 
HETATM   34  C   UNL     1      27.663  49.345  49.094  1.00  0.00     0.034 C 
ENDBRANCH  32  33
ENDBRANCH  28  32
ENDBRANCH   1  24
BRANCH   5  35
HETATM   35  O   UNL     1      25.074  42.672  47.979  1.00  0.00    -0.355 OA
HETATM   36  H   UNL     1      25.171  42.896  47.033  1.00  0.00     0.218 HD
ENDBRANCH   5  35
BRANCH   2  37
HETATM   37  C   UNL     1      20.997  45.073  49.426  1.00  0.00     0.155 C 
BRANCH  37  38
HETATM   38  C   UNL     1      20.113  45.031  48.161  1.00  0.00     0.255 C 
BRANCH  38  39
HETATM   39  N   UNL     1      19.132  46.184  48.116  1.00  0.00    -0.066 N 
HETATM   40  H   UNL     1      19.360  46.753  47.287  1.00  0.00     0.280 HD
HETATM   41  C   UNL     1      17.683  45.767  47.889  1.00  0.00     0.261 C 
HETATM   42  C   UNL     1      16.813  47.027  47.773  1.00  0.00     0.195 C 
HETATM   43  O   UNL     1      16.934  47.842  48.946  1.00  0.00    -0.388 OA
HETATM   44  C   UNL     1      18.281  48.285  49.147  1.00  0.00     0.195 C 
HETATM   45  C   UNL     1      19.232  47.096  49.328  1.00  0.00     0.261 C 
ENDBRANCH  38  39
ENDBRANCH  37  38
ENDBRANCH   2  37
TORSDOF 13
ENDMDL
MODEL 9
REMARK VINA RESULT:      -8.4      4.363      9.899
REMARK  13 active torsions:
REMARK  status: ('A' for Active; 'I' for Inactive)
REMARK    1  A    between atoms: C_2  and  O_3 
REMARK    2  A    between atoms: O_3  and  C_4 
REMARK    3  A    between atoms: C_5  and  O_6 
REMARK    4  A    between atoms: C_9  and  C_10 
REMARK    5  A    between atoms: N_11  and  C_12 
REMARK    6  A    between atoms: C_12  and  C_13 
REMARK    7  A    between atoms: C_13  and  N_14 
REMARK    8  A    between atoms: C_23  and  O_24 
REMARK    9  A    between atoms: C_25  and  C_26 
REMARK   10  A    between atoms: C_26  and  C_27 
REMARK   11  A    between atoms: C_31  and  O_32 
REMARK   12  A    between atoms: O_32  and  C_33 
REMARK   13  A    between atoms: C_33  and  C_34 
ROOT
HETATM    1  C   UNL     1      27.681  43.090  50.452  1.00  0.00     0.161 A 
HETATM    2  N   UNL     1      28.078  42.724  51.812  1.00  0.00    -0.332 N 
HETATM    3  C   UNL     1      27.669  41.455  52.128  1.00  0.00     0.278 A 
HETATM    4  O   UNL     1      27.695  40.944  53.235  1.00  0.00    -0.265 OA
HETATM    5  C   UNL     1      27.069  40.854  50.930  1.00  0.00     0.146 A 
HETATM    6  C   UNL     1      27.081  41.795  49.975  1.00  0.00     0.059 A 
ENDROOT
BRANCH   6   7
HETATM    7  C   UNL     1      26.627  41.676  48.572  1.00  0.00     0.194 C 
HETATM    8  O   UNL     1      27.410  41.821  47.642  1.00  0.00    -0.287 OA
BRANCH   7   9
HETATM    9  C   UNL     1      25.212  41.353  48.317  1.00  0.00     0.021 A 
HETATM   10  C   UNL     1      24.843  40.170  47.658  1.00  0.00    -0.045 A 
HETATM   11  C   UNL     1      25.832  39.094  47.322  1.00  0.00     0.049 C 
HETATM   12  C   UNL     1      23.487  39.988  47.341  1.00  0.00     0.044 A 
HETATM   13  C   UNL     1      22.532  40.963  47.651  1.00  0.00     0.069 A 
HETATM   14  C   UNL     1      22.911  42.102  48.361  1.00  0.00     0.038 A 
HETATM   15  C   UNL     1      24.252  42.299  48.698  1.00  0.00     0.019 A 
BRANCH  13  16
HETATM   16  O   UNL     1      21.265  40.684  47.218  1.00  0.00    -0.347 OA
BRANCH  16  17
HETATM   17  C   UNL     1      21.148  39.647  46.244  1.00  0.00     0.214 C 
BRANCH  17  18
HETATM   18  C   UNL     1      19.933  38.818  46.574  1.00  0.00    -0.034 A 
HETATM   19  C   UNL     1      19.144  38.278  45.548  1.00  0.00     0.009 A 
HETATM   20  C   UNL     1      18.018  37.511  45.848  1.00  0.00     0.001 A 
HETATM   21  C   UNL     1      17.665  37.282  47.177  1.00  0.00     0.000 A 
HETATM   22  C   UNL     1      18.431  37.825  48.206  1.00  0.00     0.001 A 
HETATM   23  C   UNL     1      19.558  38.593  47.906  1.00  0.00     0.009 A 
ENDBRANCH  17  18
ENDBRANCH  16  17
ENDBRANCH  13  16
ENDBRANCH   7   9
ENDBRANCH   6   7
BRANCH   1  24
HETATM   24  C   UNL     1      26.745  44.285  50.502  1.00  0.00    -0.028 A 
HETATM   25  C   UNL     1      25.536  44.172  51.215  1.00  0.00     0.012 A 
HETATM   26  C   UNL     1      24.594  45.200  51.191  1.00  0.00     0.040 A 
HETATM   27  C   UNL     1      24.864  46.353  50.471  1.00  0.00     0.099 A 
HETATM   28  C   UNL     1      26.071  46.516  49.791  1.00  0.00     0.102 A 
HETATM   29  C   UNL     1      27.000  45.474  49.786  1.00  0.00     0.049 A 
BRANCH  27  30
HETATM   30  O   UNL     1      23.917  47.336  50.451  1.00  0.00    -0.358 OA
HETATM   31  H   UNL     1      23.090  46.913  50.146  1.00  0.00     0.218 HD
ENDBRANCH  27  30
BRANCH  28  32
HETATM   32  O   UNL     1      26.223  47.695  49.112  1.00  0.00    -0.349 OA
BRANCH  32  33
HETATM   33  C   UNL     1      27.539  48.257  49.161  1.00  0.00     0.171 C 
HETATM   34  C   UNL     1      27.428  49.738  48.850  1.00  0.00     0.034 C 
ENDBRANCH  32  33
ENDBRANCH  28  32
ENDBRANCH   1  24
BRANCH   5  35
HETATM   35  O   UNL     1      26.608  39.576  50.889  1.00  0.00    -0.355 OA
HETATM   36  H   UNL     1      27.381  38.982  50.820  1.00  0.00     0.218 HD
ENDBRANCH   5  35
BRANCH   2  37
HETATM   37  C   UNL     1      28.835  43.603  52.703  1.00  0.00     0.155 C 
BRANCH  37  38
HETATM   38  C   UNL     1      28.012  44.182  53.875  1.00  0.00     0.255 C 
BRANCH  38  39
HETATM   39  N   UNL     1      28.842  44.326  55.134  1.00  0.00    -0.066 N 
HETATM   40  H   UNL     1      28.380  43.777  55.874  1.00  0.00     0.280 HD
HETATM   41  C   UNL     1      30.237  43.719  55.040  1.00  0.00     0.261 C 
HETATM   42  C   UNL     1      30.933  43.851  56.402  1.00  0.00     0.195 C 
HETATM   43  O   UNL     1      30.997  45.223  56.812  1.00  0.00    -0.388 OA
HETATM   44  C   UNL     1      29.693  45.797  56.955  1.00  0.00     0.195 C 
HETATM   45  C   UNL     1      28.927  45.762  55.627  1.00  0.00     0.261 C 
ENDBRANCH  38  39
ENDBRANCH  37  38
ENDBRANCH   2  37
TORSDOF 13
ENDMDL
MODEL 10
REMARK VINA RESULT:      -8.3      2.056      4.921
REMARK  13 active torsions:
REMARK  status: ('A' for Active; 'I' for Inactive)
REMARK    1  A    between atoms: C_2  and  O_3 
REMARK    2  A    between atoms: O_3  and  C_4 
REMARK    3  A    between atoms: C_5  and  O_6 
REMARK    4  A    between atoms: C_9  and  C_10 
REMARK    5  A    between atoms: N_11  and  C_12 
REMARK    6  A    between atoms: C_12  and  C_13 
REMARK    7  A    between atoms: C_13  and  N_14 
REMARK    8  A    between atoms: C_23  and  O_24 
REMARK    9  A    between atoms: C_25  and  C_26 
REMARK   10  A    between atoms: C_26  and  C_27 
REMARK   11  A    between atoms: C_31  and  O_32 
REMARK   12  A    between atoms: O_32  and  C_33 
REMARK   13  A    between atoms: C_33  and  C_34 
ROOT
HETATM    1  C   UNL     1      21.095  48.986  47.751  1.00  0.00     0.161 A 
HETATM    2  N   UNL     1      19.886  49.450  48.430  1.00  0.00    -0.332 N 
HETATM    3  C   UNL     1      20.185  50.099  49.599  1.00  0.00     0.278 A 
HETATM    4  O   UNL     1      19.391  50.434  50.461  1.00  0.00    -0.265 OA
HETATM    5  C   UNL     1      21.646  50.208  49.702  1.00  0.00     0.146 A 
HETATM    6  C   UNL     1      22.159  49.571  48.640  1.00  0.00     0.059 A 
ENDROOT
BRANCH   6   7
HETATM    7  C   UNL     1      23.583  49.431  48.261  1.00  0.00     0.194 C 
HETATM    8  O   UNL     1      24.048  50.058  47.318  1.00  0.00    -0.287 OA
BRANCH   7   9
HETATM    9  C   UNL     1      24.439  48.537  49.062  1.00  0.00     0.021 A 
HETATM   10  C   UNL     1      25.830  48.717  49.117  1.00  0.00    -0.045 A 
HETATM   11  C   UNL     1      26.510  49.908  48.510  1.00  0.00     0.049 C 
HETATM   12  C   UNL     1      26.592  47.756  49.799  1.00  0.00     0.044 A 
HETATM   13  C   UNL     1      25.990  46.639  50.390  1.00  0.00     0.069 A 
HETATM   14  C   UNL     1      24.602  46.513  50.378  1.00  0.00     0.038 A 
HETATM   15  C   UNL     1      23.822  47.463  49.715  1.00  0.00     0.019 A 
BRANCH  13  16
HETATM   16  O   UNL     1      26.862  45.750  50.956  1.00  0.00    -0.347 OA
BRANCH  16  17
HETATM   17  C   UNL     1      26.411  45.095  52.142  1.00  0.00     0.214 C 
BRANCH  17  18
HETATM   18  C   UNL     1      27.602  44.472  52.825  1.00  0.00    -0.034 A 
HETATM   19  C   UNL     1      28.426  43.574  52.132  1.00  0.00     0.009 A 
HETATM   20  C   UNL     1      29.528  42.994  52.761  1.00  0.00     0.001 A 
HETATM   21  C   UNL     1      29.814  43.300  54.090  1.00  0.00     0.000 A 
HETATM   22  C   UNL     1      28.994  44.179  54.795  1.00  0.00     0.001 A 
HETATM   23  C   UNL     1      27.891  44.759  54.167  1.00  0.00     0.009 A 
ENDBRANCH  17  18
ENDBRANCH  16  17
ENDBRANCH  13  16
ENDBRANCH   7   9
ENDBRANCH   6   7
BRANCH   1  24
HETATM   24  C   UNL     1      21.068  47.472  47.643  1.00  0.00    -0.028 A 
HETATM   25  C   UNL     1      20.435  46.730  48.660  1.00  0.00     0.012 A 
HETATM   26  C   UNL     1      20.486  45.336  48.664  1.00  0.00     0.040 A 
HETATM   27  C   UNL     1      21.154  44.677  47.644  1.00  0.00     0.099 A 
HETATM   28  C   UNL     1      21.753  45.380  46.598  1.00  0.00     0.102 A 
HETATM   29  C   UNL     1      21.732  46.776  46.610  1.00  0.00     0.049 A 
BRANCH  27  30
HETATM   30  O   UNL     1      21.203  43.313  47.682  1.00  0.00    -0.358 OA
HETATM   31  H   UNL     1      20.576  42.998  47.002  1.00  0.00     0.218 HD
ENDBRANCH  27  30
BRANCH  28  32
HETATM   32  O   UNL     1      22.386  44.622  45.650  1.00  0.00    -0.349 OA
BRANCH  32  33
HETATM   33  C   UNL     1      22.092  44.978  44.295  1.00  0.00     0.171 C 
HETATM   34  C   UNL     1      23.377  44.871  43.493  1.00  0.00     0.034 C 
ENDBRANCH  32  33
ENDBRANCH  28  32
ENDBRANCH   1  24
BRANCH   5  35
HETATM   35  O   UNL     1      22.275  50.849  50.723  1.00  0.00    -0.355 OA
HETATM   36  H   UNL     1      21.705  51.592  51.004  1.00  0.00     0.218 HD
ENDBRANCH   5  35
BRANCH   2  37
HETATM   37  C   UNL     1      18.533  49.255  47.906  1.00  0.00     0.155 C 
BRANCH  37  38
HETATM   38  C   UNL     1      18.378  49.588  46.406  1.00  0.00     0.255 C 
BRANCH  38  39
HETATM   39  N   UNL     1      16.955  49.394  45.926  1.00  0.00    -0.066 N 
HETATM   40  H   UNL     1      16.977  49.365  44.895  1.00  0.00     0.280 HD
HETATM   41  C   UNL     1      16.337  48.057  46.318  1.00  0.00     0.261 C 
HETATM   42  C   UNL     1      14.937  47.951  45.696  1.00  0.00     0.195 C 
HETATM   43  O   UNL     1      14.108  49.043  46.114  1.00  0.00    -0.388 OA
HETATM   44  C   UNL     1      14.648  50.306  45.710  1.00  0.00     0.195 C 
HETATM   45  C   UNL     1      16.033  50.536  46.324  1.00  0.00     0.261 C 
ENDBRANCH  38  39
ENDBRANCH  37  38
ENDBRANCH   2  37
TORSDOF 13
ENDMDL
