MODEL 1
REMARK VINA RESULT:      -8.0      0.000      0.000
REMARK  2 active torsions:
REMARK  status: ('A' for Active; 'I' for Inactive)
REMARK    1  A    between atoms: N_20  and  C_21 
REMARK    2  A    between atoms: C_22  and  O_23 
ROOT
HETATM    1  C   UNL     1      18.872  52.634  47.576  1.00  0.00     0.048 C 
HETATM    2  C   UNL     1      18.094  51.364  47.785  1.00  0.00    -0.061 A 
HETATM    3  C   UNL     1      18.710  50.111  47.626  1.00  0.00     0.019 A 
HETATM    4  C   UNL     1      17.965  48.966  47.875  1.00  0.00     0.016 A 
HETATM    5  C   UNL     1      16.626  49.082  48.263  1.00  0.00     0.044 A 
HETATM    6  N   UNL     1      16.057  47.831  48.434  1.00  0.00    -0.324 N 
HETATM    7  C   UNL     1      16.972  46.828  48.180  1.00  0.00     0.264 A 
HETATM    8  O   UNL     1      16.759  45.627  48.202  1.00  0.00    -0.270 OA
HETATM    9  C   UNL     1      18.320  47.510  47.736  1.00  0.00     0.250 A 
HETATM   10  N   UNL     1      18.672  47.168  46.289  1.00  0.00    -0.043 N 
HETATM   11  H   UNL     1      19.347  47.876  45.968  1.00  0.00     0.282 HD
HETATM   12  C   UNL     1      19.328  45.819  46.346  1.00  0.00     0.204 C 
HETATM   13  C   UNL     1      19.692  45.624  44.894  1.00  0.00     0.036 C 
HETATM   14  C   UNL     1      18.448  46.176  44.162  1.00  0.00     0.030 C 
HETATM   15  C   UNL     1      17.683  47.047  45.176  1.00  0.00     0.237 C 
HETATM   16  C   UNL     1      20.242  45.939  47.536  1.00  0.00     0.126 C 
HETATM   17  C   UNL     1      19.477  46.840  48.530  1.00  0.00     0.145 C 
HETATM   18  C   UNL     1      20.527  47.789  49.028  1.00  0.00     0.239 C 
HETATM   19  O   UNL     1      20.281  48.615  49.894  1.00  0.00    -0.272 OA
HETATM   20  N   UNL     1      21.653  47.647  48.245  1.00  0.00    -0.249 N 
HETATM   21  C   UNL     1      21.499  46.706  47.262  1.00  0.00     0.238 C 
HETATM   22  O   UNL     1      22.207  46.486  46.294  1.00  0.00    -0.272 OA
HETATM   23  C   UNL     1      15.991  50.294  48.423  1.00  0.00     0.031 A 
HETATM   24  C   UNL     1      16.742  51.445  48.180  1.00  0.00     0.009 A 
HETATM   25  H   UNL     1      15.101  47.659  48.727  1.00  0.00     0.169 HD
ENDROOT
BRANCH  20  26
HETATM   26  C   UNL     1      22.767  48.521  48.325  1.00  0.00     0.078 A 
HETATM   27  C   UNL     1      23.942  48.141  49.004  1.00  0.00     0.095 A 
HETATM   28  C   UNL     1      24.998  49.052  49.122  1.00  0.00     0.039 A 
HETATM   29  C   UNL     1      24.914  50.314  48.529  1.00  0.00     0.003 A 
HETATM   30  C   UNL     1      23.782  50.669  47.803  1.00  0.00     0.002 A 
HETATM   31  C   UNL     1      22.718  49.776  47.695  1.00  0.00     0.033 A 
BRANCH  27  32
HETATM   32  O   UNL     1      24.001  46.845  49.455  1.00  0.00    -0.354 OA
HETATM   33  C   UNL     1      24.908  46.589  50.524  1.00  0.00     0.210 C 
ENDBRANCH  27  32
ENDBRANCH  20  26
TORSDOF 2
ENDMDL
MODEL 2
REMARK VINA RESULT:      -7.9     24.571     27.497
REMARK  2 active torsions:
REMARK  status: ('A' for Active; 'I' for Inactive)
REMARK    1  A    between atoms: N_20  and  C_21 
REMARK    2  A    between atoms: C_22  and  O_23 
ROOT
HETATM    1  C   UNL     1      43.778  46.024  63.911  1.00  0.00     0.048 C 
HETATM    2  C   UNL     1      43.307  46.680  65.180  1.00  0.00    -0.061 A 
HETATM    3  C   UNL     1      41.939  46.725  65.500  1.00  0.00     0.019 A 
HETATM    4  C   UNL     1      41.556  47.300  66.704  1.00  0.00     0.016 A 
HETATM    5  C   UNL     1      42.528  47.828  67.560  1.00  0.00     0.044 A 
HETATM    6  N   UNL     1      41.939  48.376  68.688  1.00  0.00    -0.324 N 
HETATM    7  C   UNL     1      40.565  48.239  68.650  1.00  0.00     0.264 A 
HETATM    8  O   UNL     1      39.770  48.660  69.474  1.00  0.00    -0.270 OA
HETATM    9  C   UNL     1      40.190  47.545  67.288  1.00  0.00     0.250 A 
HETATM   10  N   UNL     1      39.371  48.473  66.392  1.00  0.00    -0.043 N 
HETATM   11  H   UNL     1      39.442  48.105  65.433  1.00  0.00     0.282 HD
HETATM   12  C   UNL     1      37.958  48.358  66.885  1.00  0.00     0.204 C 
HETATM   13  C   UNL     1      37.243  49.245  65.894  1.00  0.00     0.036 C 
HETATM   14  C   UNL     1      38.226  50.427  65.737  1.00  0.00     0.030 C 
HETATM   15  C   UNL     1      39.593  49.944  66.257  1.00  0.00     0.237 C 
HETATM   16  C   UNL     1      37.798  46.878  67.107  1.00  0.00     0.126 C 
HETATM   17  C   UNL     1      39.182  46.402  67.597  1.00  0.00     0.145 C 
HETATM   18  C   UNL     1      39.415  45.136  66.827  1.00  0.00     0.239 C 
HETATM   19  O   UNL     1      40.405  44.446  67.017  1.00  0.00    -0.272 OA
HETATM   20  N   UNL     1      38.454  45.038  65.843  1.00  0.00    -0.249 N 
HETATM   21  C   UNL     1      37.582  46.095  65.849  1.00  0.00     0.238 C 
HETATM   22  O   UNL     1      36.762  46.416  65.005  1.00  0.00    -0.272 OA
HETATM   23  C   UNL     1      43.875  47.805  67.274  1.00  0.00     0.031 A 
HETATM   24  C   UNL     1      44.262  47.221  66.068  1.00  0.00     0.009 A 
HETATM   25  H   UNL     1      42.441  48.805  69.458  1.00  0.00     0.169 HD
ENDROOT
BRANCH  20  26
HETATM   26  C   UNL     1      38.490  44.058  64.818  1.00  0.00     0.078 A 
HETATM   27  C   UNL     1      37.720  42.882  64.910  1.00  0.00     0.095 A 
HETATM   28  C   UNL     1      37.830  41.903  63.915  1.00  0.00     0.039 A 
HETATM   29  C   UNL     1      38.658  42.108  62.810  1.00  0.00     0.003 A 
HETATM   30  C   UNL     1      39.371  43.296  62.683  1.00  0.00     0.002 A 
HETATM   31  C   UNL     1      39.282  44.269  63.677  1.00  0.00     0.033 A 
BRANCH  27  32
HETATM   32  O   UNL     1      36.838  42.803  65.960  1.00  0.00    -0.354 OA
HETATM   33  C   UNL     1      35.457  42.955  65.638  1.00  0.00     0.210 C 
ENDBRANCH  27  32
ENDBRANCH  20  26
TORSDOF 2
ENDMDL
MODEL 3
REMARK VINA RESULT:      -7.8      9.388     11.297
REMARK  2 active torsions:
REMARK  status: ('A' for Active; 'I' for Inactive)
REMARK    1  A    between atoms: N_20  and  C_21 
REMARK    2  A    between atoms: C_22  and  O_23 
ROOT
HETATM    1  C   UNL     1      23.506  50.215  38.709  1.00  0.00     0.048 C 
HETATM    2  C   UNL     1      23.904  48.935  39.391  1.00  0.00    -0.061 A 
HETATM    3  C   UNL     1      25.251  48.539  39.445  1.00  0.00     0.019 A 
HETATM    4  C   UNL     1      25.576  47.373  40.125  1.00  0.00     0.016 A 
HETATM    5  C   UNL     1      24.564  46.618  40.728  1.00  0.00     0.044 A 
HETATM    6  N   UNL     1      25.090  45.486  41.328  1.00  0.00    -0.324 N 
HETATM    7  C   UNL     1      26.461  45.429  41.167  1.00  0.00     0.264 A 
HETATM    8  O   UNL     1      27.199  44.533  41.542  1.00  0.00    -0.270 OA
HETATM    9  C   UNL     1      26.895  46.670  40.302  1.00  0.00     0.250 A 
HETATM   10  N   UNL     1      27.472  46.242  38.954  1.00  0.00    -0.043 N 
HETATM   11  H   UNL     1      27.426  47.061  38.333  1.00  0.00     0.282 HD
HETATM   12  C   UNL     1      28.903  45.883  39.229  1.00  0.00     0.204 C 
HETATM   13  C   UNL     1      29.381  45.553  37.835  1.00  0.00     0.036 C 
HETATM   14  C   UNL     1      28.180  44.778  37.246  1.00  0.00     0.030 C 
HETATM   15  C   UNL     1      26.961  45.105  38.130  1.00  0.00     0.237 C 
HETATM   16  C   UNL     1      29.359  46.990  40.140  1.00  0.00     0.126 C 
HETATM   17  C   UNL     1      28.121  47.330  40.996  1.00  0.00     0.145 C 
HETATM   18  C   UNL     1      28.100  48.830  41.012  1.00  0.00     0.239 C 
HETATM   19  O   UNL     1      27.274  49.450  41.664  1.00  0.00    -0.272 OA
HETATM   20  N   UNL     1      29.011  49.290  40.086  1.00  0.00    -0.249 N 
HETATM   21  C   UNL     1      29.660  48.275  39.432  1.00  0.00     0.238 C 
HETATM   22  O   UNL     1      30.358  48.330  38.433  1.00  0.00    -0.272 OA
HETATM   23  C   UNL     1      23.234  46.976  40.690  1.00  0.00     0.031 A 
HETATM   24  C   UNL     1      22.908  48.152  40.012  1.00  0.00     0.009 A 
HETATM   25  H   UNL     1      24.554  44.794  41.840  1.00  0.00     0.169 HD
ENDROOT
BRANCH  20  26
HETATM   26  C   UNL     1      29.115  50.654  39.712  1.00  0.00     0.078 A 
HETATM   27  C   UNL     1      29.963  51.536  40.410  1.00  0.00     0.095 A 
HETATM   28  C   UNL     1      29.991  52.891  40.060  1.00  0.00     0.039 A 
HETATM   29  C   UNL     1      29.224  53.362  38.992  1.00  0.00     0.003 A 
HETATM   30  C   UNL     1      28.435  52.483  38.259  1.00  0.00     0.002 A 
HETATM   31  C   UNL     1      28.385  51.135  38.612  1.00  0.00     0.033 A 
BRANCH  27  32
HETATM   32  O   UNL     1      30.778  50.980  41.365  1.00  0.00    -0.354 OA
HETATM   33  C   UNL     1      31.430  51.891  42.248  1.00  0.00     0.210 C 
ENDBRANCH  27  32
ENDBRANCH  20  26
TORSDOF 2
ENDMDL
MODEL 4
REMARK VINA RESULT:      -7.8      9.686     12.147
REMARK  2 active torsions:
REMARK  status: ('A' for Active; 'I' for Inactive)
REMARK    1  A    between atoms: N_20  and  C_21 
REMARK    2  A    between atoms: C_22  and  O_23 
ROOT
HETATM    1  C   UNL     1      23.209  46.191  41.464  1.00  0.00     0.048 C 
HETATM    2  C   UNL     1      23.711  47.344  40.639  1.00  0.00    -0.061 A 
HETATM    3  C   UNL     1      25.070  47.443  40.296  1.00  0.00     0.019 A 
HETATM    4  C   UNL     1      25.479  48.500  39.494  1.00  0.00     0.016 A 
HETATM    5  C   UNL     1      24.541  49.442  39.057  1.00  0.00     0.044 A 
HETATM    6  N   UNL     1      25.152  50.424  38.296  1.00  0.00    -0.324 N 
HETATM    7  C   UNL     1      26.509  50.192  38.179  1.00  0.00     0.264 A 
HETATM    8  O   UNL     1      27.321  50.902  37.611  1.00  0.00    -0.270 OA
HETATM    9  C   UNL     1      26.849  48.903  39.016  1.00  0.00     0.250 A 
HETATM   10  N   UNL     1      27.766  49.223  40.195  1.00  0.00    -0.043 N 
HETATM   11  H   UNL     1      27.683  48.444  40.862  1.00  0.00     0.282 HD
HETATM   12  C   UNL     1      29.153  49.264  39.621  1.00  0.00     0.204 C 
HETATM   13  C   UNL     1      29.964  49.511  40.870  1.00  0.00     0.036 C 
HETATM   14  C   UNL     1      29.095  50.534  41.635  1.00  0.00     0.030 C 
HETATM   15  C   UNL     1      27.680  50.458  41.032  1.00  0.00     0.237 C 
HETATM   16  C   UNL     1      29.174  48.068  38.708  1.00  0.00     0.126 C 
HETATM   17  C   UNL     1      27.743  47.984  38.136  1.00  0.00     0.145 C 
HETATM   18  C   UNL     1      27.413  46.523  38.217  1.00  0.00     0.239 C 
HETATM   19  O   UNL     1      26.362  46.081  37.781  1.00  0.00    -0.272 OA
HETATM   20  N   UNL     1      28.382  45.897  38.972  1.00  0.00    -0.249 N 
HETATM   21  C   UNL     1      29.345  46.762  39.420  1.00  0.00     0.238 C 
HETATM   22  O   UNL     1      30.208  46.579  40.263  1.00  0.00    -0.272 OA
HETATM   23  C   UNL     1      23.203  49.376  39.379  1.00  0.00     0.031 A 
HETATM   24  C   UNL     1      22.790  48.310  40.179  1.00  0.00     0.009 A 
HETATM   25  H   UNL     1      24.676  51.205  37.859  1.00  0.00     0.169 HD
ENDROOT
BRANCH  20  26
HETATM   26  C   UNL     1      28.279  44.549  39.401  1.00  0.00     0.078 A 
HETATM   27  C   UNL     1      28.879  43.505  38.669  1.00  0.00     0.095 A 
HETATM   28  C   UNL     1      28.701  42.180  39.082  1.00  0.00     0.039 A 
HETATM   29  C   UNL     1      27.978  41.891  40.241  1.00  0.00     0.003 A 
HETATM   30  C   UNL     1      27.439  42.922  41.003  1.00  0.00     0.002 A 
HETATM   31  C   UNL     1      27.594  44.244  40.590  1.00  0.00     0.033 A 
BRANCH  27  32
HETATM   32  O   UNL     1      29.675  43.873  37.613  1.00  0.00    -0.354 OA
HETATM   33  C   UNL     1      29.188  43.552  36.312  1.00  0.00     0.210 C 
ENDBRANCH  27  32
ENDBRANCH  20  26
TORSDOF 2
ENDMDL
MODEL 5
REMARK VINA RESULT:      -7.7      2.854      6.875
REMARK  2 active torsions:
REMARK  status: ('A' for Active; 'I' for Inactive)
REMARK    1  A    between atoms: N_20  and  C_21 
REMARK    2  A    between atoms: C_22  and  O_23 
ROOT
HETATM    1  C   UNL     1      17.367  50.354  43.055  1.00  0.00     0.048 C 
HETATM    2  C   UNL     1      17.883  49.371  44.070  1.00  0.00    -0.061 A 
HETATM    3  C   UNL     1      17.973  49.722  45.427  1.00  0.00     0.019 A 
HETATM    4  C   UNL     1      18.412  48.768  46.335  1.00  0.00     0.016 A 
HETATM    5  C   UNL     1      18.763  47.491  45.882  1.00  0.00     0.044 A 
HETATM    6  N   UNL     1      19.197  46.701  46.933  1.00  0.00    -0.324 N 
HETATM    7  C   UNL     1      19.155  47.395  48.128  1.00  0.00     0.264 A 
HETATM    8  O   UNL     1      19.516  46.985  49.218  1.00  0.00    -0.270 OA
HETATM    9  C   UNL     1      18.668  48.859  47.815  1.00  0.00     0.250 A 
HETATM   10  N   UNL     1      19.754  49.889  48.120  1.00  0.00    -0.043 N 
HETATM   11  H   UNL     1      19.509  50.746  47.606  1.00  0.00     0.282 HD
HETATM   12  C   UNL     1      19.667  50.133  49.599  1.00  0.00     0.204 C 
HETATM   13  C   UNL     1      20.718  51.204  49.767  1.00  0.00     0.036 C 
HETATM   14  C   UNL     1      21.845  50.713  48.830  1.00  0.00     0.030 C 
HETATM   15  C   UNL     1      21.213  49.691  47.867  1.00  0.00     0.237 C 
HETATM   16  C   UNL     1      18.184  50.227  49.839  1.00  0.00     0.126 C 
HETATM   17  C   UNL     1      17.561  49.223  48.846  1.00  0.00     0.145 C 
HETATM   18  C   UNL     1      16.392  49.968  48.273  1.00  0.00     0.239 C 
HETATM   19  O   UNL     1      15.622  49.441  47.486  1.00  0.00    -0.272 OA
HETATM   20  N   UNL     1      16.484  51.289  48.658  1.00  0.00    -0.249 N 
HETATM   21  C   UNL     1      17.585  51.538  49.435  1.00  0.00     0.238 C 
HETATM   22  O   UNL     1      18.064  52.611  49.763  1.00  0.00    -0.272 OA
HETATM   23  C   UNL     1      18.690  47.116  44.558  1.00  0.00     0.031 A 
HETATM   24  C   UNL     1      18.242  48.074  43.647  1.00  0.00     0.009 A 
HETATM   25  H   UNL     1      19.491  45.734  46.854  1.00  0.00     0.169 HD
ENDROOT
BRANCH  20  26
HETATM   26  C   UNL     1      15.644  52.308  48.141  1.00  0.00     0.078 A 
HETATM   27  C   UNL     1      14.795  53.049  48.987  1.00  0.00     0.095 A 
HETATM   28  C   UNL     1      13.929  54.000  48.436  1.00  0.00     0.039 A 
HETATM   29  C   UNL     1      13.937  54.254  47.063  1.00  0.00     0.003 A 
HETATM   30  C   UNL     1      14.819  53.570  46.232  1.00  0.00     0.002 A 
HETATM   31  C   UNL     1      15.673  52.608  46.769  1.00  0.00     0.033 A 
BRANCH  27  32
HETATM   32  O   UNL     1      14.928  52.833  50.336  1.00  0.00    -0.354 OA
HETATM   33  C   UNL     1      14.758  53.970  51.179  1.00  0.00     0.210 C 
ENDBRANCH  27  32
ENDBRANCH  20  26
TORSDOF 2
ENDMDL
MODEL 6
REMARK VINA RESULT:      -7.5      2.955      7.092
REMARK  2 active torsions:
REMARK  status: ('A' for Active; 'I' for Inactive)
REMARK    1  A    between atoms: N_20  and  C_21 
REMARK    2  A    between atoms: C_22  and  O_23 
ROOT
HETATM    1  C   UNL     1      19.219  46.055  44.490  1.00  0.00     0.048 C 
HETATM    2  C   UNL     1      19.269  46.357  45.962  1.00  0.00    -0.061 A 
HETATM    3  C   UNL     1      18.639  47.501  46.482  1.00  0.00     0.019 A 
HETATM    4  C   UNL     1      18.672  47.714  47.853  1.00  0.00     0.016 A 
HETATM    5  C   UNL     1      19.335  46.802  48.681  1.00  0.00     0.044 A 
HETATM    6  N   UNL     1      19.275  47.208  50.004  1.00  0.00    -0.324 N 
HETATM    7  C   UNL     1      18.574  48.392  50.129  1.00  0.00     0.264 A 
HETATM    8  O   UNL     1      18.392  49.022  51.158  1.00  0.00    -0.270 OA
HETATM    9  C   UNL     1      18.151  48.856  48.686  1.00  0.00     0.250 A 
HETATM   10  N   UNL     1      18.827  50.169  48.297  1.00  0.00    -0.043 N 
HETATM   11  H   UNL     1      18.778  50.241  47.271  1.00  0.00     0.282 HD
HETATM   12  C   UNL     1      17.996  51.248  48.929  1.00  0.00     0.204 C 
HETATM   13  C   UNL     1      18.706  52.480  48.422  1.00  0.00     0.036 C 
HETATM   14  C   UNL     1      20.193  52.076  48.531  1.00  0.00     0.030 C 
HETATM   15  C   UNL     1      20.233  50.541  48.642  1.00  0.00     0.237 C 
HETATM   16  C   UNL     1      16.588  50.793  48.652  1.00  0.00     0.126 C 
HETATM   17  C   UNL     1      16.649  49.253  48.734  1.00  0.00     0.145 C 
HETATM   18  C   UNL     1      15.843  48.803  47.551  1.00  0.00     0.239 C 
HETATM   19  O   UNL     1      15.623  47.620  47.341  1.00  0.00    -0.272 OA
HETATM   20  N   UNL     1      15.590  49.897  46.751  1.00  0.00    -0.249 N 
HETATM   21  C   UNL     1      16.130  51.053  47.250  1.00  0.00     0.238 C 
HETATM   22  O   UNL     1      16.267  52.135  46.702  1.00  0.00    -0.272 OA
HETATM   23  C   UNL     1      19.966  45.674  48.203  1.00  0.00     0.031 A 
HETATM   24  C   UNL     1      19.927  45.455  46.826  1.00  0.00     0.009 A 
HETATM   25  H   UNL     1      19.671  46.702  50.788  1.00  0.00     0.169 HD
ENDROOT
BRANCH  20  26
HETATM   26  C   UNL     1      15.011  49.797  45.460  1.00  0.00     0.078 A 
HETATM   27  C   UNL     1      15.816  49.754  44.304  1.00  0.00     0.095 A 
HETATM   28  C   UNL     1      15.212  49.725  43.042  1.00  0.00     0.039 A 
HETATM   29  C   UNL     1      13.821  49.685  42.924  1.00  0.00     0.003 A 
HETATM   30  C   UNL     1      13.024  49.662  44.064  1.00  0.00     0.002 A 
HETATM   31  C   UNL     1      13.616  49.710  45.325  1.00  0.00     0.033 A 
BRANCH  27  32
HETATM   32  O   UNL     1      17.173  49.672  44.501  1.00  0.00    -0.354 OA
HETATM   33  C   UNL     1      17.961  50.698  43.903  1.00  0.00     0.210 C 
ENDBRANCH  27  32
ENDBRANCH  20  26
TORSDOF 2
ENDMDL
MODEL 7
REMARK VINA RESULT:      -7.4      2.396      3.821
REMARK  2 active torsions:
REMARK  status: ('A' for Active; 'I' for Inactive)
REMARK    1  A    between atoms: N_20  and  C_21 
REMARK    2  A    between atoms: C_22  and  O_23 
ROOT
HETATM    1  C   UNL     1      20.949  51.260  50.045  1.00  0.00     0.048 C 
HETATM    2  C   UNL     1      19.568  51.248  49.452  1.00  0.00    -0.061 A 
HETATM    3  C   UNL     1      19.228  50.331  48.442  1.00  0.00     0.019 A 
HETATM    4  C   UNL     1      17.927  50.327  47.957  1.00  0.00     0.016 A 
HETATM    5  C   UNL     1      16.993  51.233  48.470  1.00  0.00     0.044 A 
HETATM    6  N   UNL     1      15.769  51.084  47.838  1.00  0.00    -0.324 N 
HETATM    7  C   UNL     1      15.818  50.082  46.888  1.00  0.00     0.264 A 
HETATM    8  O   UNL     1      14.915  49.748  46.139  1.00  0.00    -0.270 OA
HETATM    9  C   UNL     1      17.288  49.522  46.856  1.00  0.00     0.250 A 
HETATM   10  N   UNL     1      17.965  49.796  45.515  1.00  0.00    -0.043 N 
HETATM   11  H   UNL     1      18.980  49.711  45.666  1.00  0.00     0.282 HD
HETATM   12  C   UNL     1      17.488  48.707  44.598  1.00  0.00     0.204 C 
HETATM   13  C   UNL     1      18.268  49.033  43.347  1.00  0.00     0.036 C 
HETATM   14  C   UNL     1      18.192  50.577  43.302  1.00  0.00     0.030 C 
HETATM   15  C   UNL     1      17.798  51.046  44.714  1.00  0.00     0.237 C 
HETATM   16  C   UNL     1      17.572  47.478  45.463  1.00  0.00     0.126 C 
HETATM   17  C   UNL     1      17.208  47.969  46.880  1.00  0.00     0.145 C 
HETATM   18  C   UNL     1      18.223  47.301  47.759  1.00  0.00     0.239 C 
HETATM   19  O   UNL     1      18.191  47.418  48.975  1.00  0.00    -0.272 OA
HETATM   20  N   UNL     1      19.194  46.738  46.959  1.00  0.00    -0.249 N 
HETATM   21  C   UNL     1      18.961  46.941  45.624  1.00  0.00     0.238 C 
HETATM   22  O   UNL     1      19.711  46.760  44.679  1.00  0.00    -0.272 OA
HETATM   23  C   UNL     1      17.294  52.146  49.456  1.00  0.00     0.031 A 
HETATM   24  C   UNL     1      18.600  52.146  49.949  1.00  0.00     0.009 A 
HETATM   25  H   UNL     1      14.934  51.619  48.049  1.00  0.00     0.169 HD
ENDROOT
BRANCH  20  26
HETATM   26  C   UNL     1      20.398  46.189  47.469  1.00  0.00     0.078 A 
HETATM   27  C   UNL     1      20.540  44.800  47.658  1.00  0.00     0.095 A 
HETATM   28  C   UNL     1      21.715  44.296  48.227  1.00  0.00     0.039 A 
HETATM   29  C   UNL     1      22.764  45.155  48.561  1.00  0.00     0.003 A 
HETATM   30  C   UNL     1      22.654  46.520  48.316  1.00  0.00     0.002 A 
HETATM   31  C   UNL     1      21.480  47.034  47.767  1.00  0.00     0.033 A 
BRANCH  27  32
HETATM   32  O   UNL     1      19.519  44.008  47.194  1.00  0.00    -0.354 OA
HETATM   33  C   UNL     1      19.772  43.293  45.987  1.00  0.00     0.210 C 
ENDBRANCH  27  32
ENDBRANCH  20  26
TORSDOF 2
ENDMDL
MODEL 8
REMARK VINA RESULT:      -7.4      4.428      9.217
REMARK  2 active torsions:
REMARK  status: ('A' for Active; 'I' for Inactive)
REMARK    1  A    between atoms: N_20  and  C_21 
REMARK    2  A    between atoms: C_22  and  O_23 
ROOT
HETATM    1  C   UNL     1      27.687  40.752  47.089  1.00  0.00     0.048 C 
HETATM    2  C   UNL     1      27.339  41.260  48.462  1.00  0.00    -0.061 A 
HETATM    3  C   UNL     1      26.322  42.214  48.637  1.00  0.00     0.019 A 
HETATM    4  C   UNL     1      26.005  42.619  49.927  1.00  0.00     0.016 A 
HETATM    5  C   UNL     1      26.705  42.084  51.014  1.00  0.00     0.044 A 
HETATM    6  N   UNL     1      26.257  42.635  52.203  1.00  0.00    -0.324 N 
HETATM    7  C   UNL     1      25.246  43.549  51.979  1.00  0.00     0.264 A 
HETATM    8  O   UNL     1      24.683  44.230  52.820  1.00  0.00    -0.270 OA
HETATM    9  C   UNL     1      25.025  43.649  50.423  1.00  0.00     0.250 A 
HETATM   10  N   UNL     1      25.377  45.038  49.894  1.00  0.00    -0.043 N 
HETATM   11  H   UNL     1      25.527  44.945  48.880  1.00  0.00     0.282 HD
HETATM   12  C   UNL     1      24.165  45.884  50.160  1.00  0.00     0.204 C 
HETATM   13  C   UNL     1      24.595  47.191  49.538  1.00  0.00     0.036 C 
HETATM   14  C   UNL     1      26.079  47.288  49.960  1.00  0.00     0.030 C 
HETATM   15  C   UNL     1      26.518  45.872  50.377  1.00  0.00     0.237 C 
HETATM   16  C   UNL     1      23.030  44.981  49.759  1.00  0.00     0.126 C 
HETATM   17  C   UNL     1      23.496  43.564  50.152  1.00  0.00     0.145 C 
HETATM   18  C   UNL     1      23.115  42.723  48.969  1.00  0.00     0.239 C 
HETATM   19  O   UNL     1      23.281  41.514  48.966  1.00  0.00    -0.272 OA
HETATM   20  N   UNL     1      22.743  43.560  47.939  1.00  0.00    -0.249 N 
HETATM   21  C   UNL     1      22.824  44.885  48.279  1.00  0.00     0.238 C 
HETATM   22  O   UNL     1      22.768  45.867  47.556  1.00  0.00    -0.272 OA
HETATM   23  C   UNL     1      27.710  41.151  50.875  1.00  0.00     0.031 A 
HETATM   24  C   UNL     1      28.024  40.739  49.580  1.00  0.00     0.009 A 
HETATM   25  H   UNL     1      26.603  42.394  53.125  1.00  0.00     0.169 HD
ENDROOT
BRANCH  20  26
HETATM   26  C   UNL     1      22.500  43.104  46.618  1.00  0.00     0.078 A 
HETATM   27  C   UNL     1      21.187  42.945  46.134  1.00  0.00     0.095 A 
HETATM   28  C   UNL     1      20.981  42.427  44.850  1.00  0.00     0.039 A 
HETATM   29  C   UNL     1      22.067  42.117  44.030  1.00  0.00     0.003 A 
HETATM   30  C   UNL     1      23.366  42.333  44.479  1.00  0.00     0.002 A 
HETATM   31  C   UNL     1      23.581  42.831  45.764  1.00  0.00     0.033 A 
BRANCH  27  32
HETATM   32  O   UNL     1      20.173  43.385  46.949  1.00  0.00    -0.354 OA
HETATM   33  C   UNL     1      19.487  44.560  46.525  1.00  0.00     0.210 C 
ENDBRANCH  27  32
ENDBRANCH  20  26
TORSDOF 2
ENDMDL
MODEL 9
REMARK VINA RESULT:      -7.3      2.969      6.844
REMARK  2 active torsions:
REMARK  status: ('A' for Active; 'I' for Inactive)
REMARK    1  A    between atoms: N_20  and  C_21 
REMARK    2  A    between atoms: C_22  and  O_23 
ROOT
HETATM    1  C   UNL     1      18.538  47.504  43.311  1.00  0.00     0.048 C 
HETATM    2  C   UNL     1      18.584  47.184  44.780  1.00  0.00    -0.061 A 
HETATM    3  C   UNL     1      18.555  48.210  45.740  1.00  0.00     0.019 A 
HETATM    4  C   UNL     1      18.553  47.865  47.084  1.00  0.00     0.016 A 
HETATM    5  C   UNL     1      18.591  46.515  47.453  1.00  0.00     0.044 A 
HETATM    6  N   UNL     1      18.610  46.386  48.832  1.00  0.00    -0.324 N 
HETATM    7  C   UNL     1      18.579  47.622  49.449  1.00  0.00     0.264 A 
HETATM    8  O   UNL     1      18.631  47.836  50.649  1.00  0.00    -0.270 OA
HETATM    9  C   UNL     1      18.587  48.721  48.322  1.00  0.00     0.250 A 
HETATM   10  N   UNL     1      19.859  49.565  48.369  1.00  0.00    -0.043 N 
HETATM   11  H   UNL     1      19.954  50.018  47.449  1.00  0.00     0.282 HD
HETATM   12  C   UNL     1      19.613  50.598  49.430  1.00  0.00     0.204 C 
HETATM   13  C   UNL     1      20.886  51.405  49.334  1.00  0.00     0.036 C 
HETATM   14  C   UNL     1      21.959  50.310  49.139  1.00  0.00     0.030 C 
HETATM   15  C   UNL     1      21.222  49.038  48.681  1.00  0.00     0.237 C 
HETATM   16  C   UNL     1      18.200  51.037  49.151  1.00  0.00     0.126 C 
HETATM   17  C   UNL     1      17.482  49.761  48.663  1.00  0.00     0.145 C 
HETATM   18  C   UNL     1      16.681  50.234  47.486  1.00  0.00     0.239 C 
HETATM   19  O   UNL     1      15.926  49.485  46.885  1.00  0.00    -0.272 OA
HETATM   20  N   UNL     1      17.084  51.513  47.167  1.00  0.00    -0.249 N 
HETATM   21  C   UNL     1      18.073  51.977  47.993  1.00  0.00     0.238 C 
HETATM   22  O   UNL     1      18.781  52.963  47.863  1.00  0.00    -0.272 OA
HETATM   23  C   UNL     1      18.625  45.486  46.538  1.00  0.00     0.031 A 
HETATM   24  C   UNL     1      18.619  45.833  45.187  1.00  0.00     0.009 A 
HETATM   25  H   UNL     1      18.623  45.506  49.336  1.00  0.00     0.169 HD
ENDROOT
BRANCH  20  26
HETATM   26  C   UNL     1      16.663  52.189  45.993  1.00  0.00     0.078 A 
HETATM   27  C   UNL     1      15.512  53.002  45.996  1.00  0.00     0.095 A 
HETATM   28  C   UNL     1      15.085  53.600  44.804  1.00  0.00     0.039 A 
HETATM   29  C   UNL     1      15.819  53.437  43.628  1.00  0.00     0.003 A 
HETATM   30  C   UNL     1      16.992  52.688  43.635  1.00  0.00     0.002 A 
HETATM   31  C   UNL     1      17.415  52.073  44.812  1.00  0.00     0.033 A 
BRANCH  27  32
HETATM   32  O   UNL     1      14.911  53.215  47.212  1.00  0.00    -0.354 OA
HETATM   33  C   UNL     1      13.957  54.273  47.269  1.00  0.00     0.210 C 
ENDBRANCH  27  32
ENDBRANCH  20  26
TORSDOF 2
ENDMDL
MODEL 10
REMARK VINA RESULT:      -7.3      3.513      8.891
REMARK  2 active torsions:
REMARK  status: ('A' for Active; 'I' for Inactive)
REMARK    1  A    between atoms: N_20  and  C_21 
REMARK    2  A    between atoms: C_22  and  O_23 
ROOT
HETATM    1  C   UNL     1      26.398  41.082  47.650  1.00  0.00     0.048 C 
HETATM    2  C   UNL     1      26.683  41.899  48.880  1.00  0.00    -0.061 A 
HETATM    3  C   UNL     1      26.062  43.145  49.074  1.00  0.00     0.019 A 
HETATM    4  C   UNL     1      26.320  43.843  50.246  1.00  0.00     0.016 A 
HETATM    5  C   UNL     1      27.192  43.302  51.197  1.00  0.00     0.044 A 
HETATM    6  N   UNL     1      27.334  44.160  52.275  1.00  0.00    -0.324 N 
HETATM    7  C   UNL     1      26.571  45.300  52.107  1.00  0.00     0.264 A 
HETATM    8  O   UNL     1      26.522  46.258  52.861  1.00  0.00    -0.270 OA
HETATM    9  C   UNL     1      25.862  45.201  50.705  1.00  0.00     0.250 A 
HETATM   10  N   UNL     1      26.347  46.292  49.753  1.00  0.00    -0.043 N 
HETATM   11  H   UNL     1      26.111  45.986  48.799  1.00  0.00     0.282 HD
HETATM   12  C   UNL     1      25.555  47.516  50.111  1.00  0.00     0.204 C 
HETATM   13  C   UNL     1      26.058  48.489  49.073  1.00  0.00     0.036 C 
HETATM   14  C   UNL     1      27.570  48.172  49.025  1.00  0.00     0.030 C 
HETATM   15  C   UNL     1      27.755  46.783  49.662  1.00  0.00     0.237 C 
HETATM   16  C   UNL     1      24.163  46.974  50.294  1.00  0.00     0.126 C 
HETATM   17  C   UNL     1      24.364  45.570  50.902  1.00  0.00     0.145 C 
HETATM   18  C   UNL     1      23.401  44.710  50.137  1.00  0.00     0.239 C 
HETATM   19  O   UNL     1      23.247  43.529  50.406  1.00  0.00    -0.272 OA
HETATM   20  N   UNL     1      22.921  45.435  49.067  1.00  0.00    -0.249 N 
HETATM   21  C   UNL     1      23.443  46.701  49.009  1.00  0.00     0.238 C 
HETATM   22  O   UNL     1      23.391  47.511  48.098  1.00  0.00    -0.272 OA
HETATM   23  C   UNL     1      27.820  42.086  51.036  1.00  0.00     0.031 A 
HETATM   24  C   UNL     1      27.555  41.381  49.861  1.00  0.00     0.009 A 
HETATM   25  H   UNL     1      27.903  43.980  53.094  1.00  0.00     0.169 HD
ENDROOT
BRANCH  20  26
HETATM   26  C   UNL     1      22.133  44.865  48.035  1.00  0.00     0.078 A 
HETATM   27  C   UNL     1      20.731  45.005  48.029  1.00  0.00     0.095 A 
HETATM   28  C   UNL     1      19.977  44.373  47.034  1.00  0.00     0.039 A 
HETATM   29  C   UNL     1      20.609  43.649  46.020  1.00  0.00     0.003 A 
HETATM   30  C   UNL     1      21.996  43.562  45.985  1.00  0.00     0.002 A 
HETATM   31  C   UNL     1      22.755  44.173  46.982  1.00  0.00     0.033 A 
BRANCH  27  32
HETATM   32  O   UNL     1      20.191  45.831  48.984  1.00  0.00    -0.354 OA
HETATM   33  C   UNL     1      19.680  47.079  48.524  1.00  0.00     0.210 C 
ENDBRANCH  27  32
ENDBRANCH  20  26
TORSDOF 2
ENDMDL
