MODEL 1
REMARK VINA RESULT:      -9.5      0.000      0.000
REMARK  6 active torsions:
REMARK  status: ('A' for Active; 'I' for Inactive)
REMARK    1  A    between atoms: C_2  and  C_3 
REMARK    2  A    between atoms: C_4  and  N_5 
REMARK       I    between atoms: N_5  and  C_6 
REMARK    3  A    between atoms: C_6  and  C_7 
REMARK    4  A    between atoms: C_7  and  N_8 
REMARK       I    between atoms: N_8  and  C_9 
REMARK    5  A    between atoms: C_9  and  C_10 
REMARK    6  A    between atoms: C_11  and  C_12 
ROOT
HETATM    1  N   UNL     1      26.045  46.167  49.870  1.00  0.00    -0.348 N 
HETATM    2  C   UNL     1      25.964  47.432  50.423  1.00  0.00     0.255 C 
HETATM    3  O   UNL     1      25.619  47.609  51.585  1.00  0.00    -0.268 OA
HETATM    4  H   UNL     1      26.214  46.100  48.877  1.00  0.00     0.163 HD
ENDROOT
BRANCH   1   5
HETATM    5  C   UNL     1      25.335  45.064  50.505  1.00  0.00     0.226 C 
BRANCH   5   6
HETATM    6  C   UNL     1      26.151  44.159  51.444  1.00  0.00     0.239 C 
HETATM    7  N   UNL     1      27.316  44.745  51.907  1.00  0.00    -0.325 N 
HETATM    8  H   UNL     1      27.472  45.687  51.576  1.00  0.00     0.169 HD
HETATM    9  O   UNL     1      25.796  42.996  51.624  1.00  0.00    -0.271 OA
BRANCH   7  10
HETATM   10  C   UNL     1      28.271  44.203  52.797  1.00  0.00     0.041 A 
HETATM   11  C   UNL     1      28.280  44.627  54.145  1.00  0.00    -0.032 A 
HETATM   12  C   UNL     1      29.221  44.067  55.035  1.00  0.00     0.009 A 
HETATM   13  C   UNL     1      30.132  43.104  54.607  1.00  0.00     0.001 A 
HETATM   14  C   UNL     1      30.120  42.690  53.283  1.00  0.00     0.002 A 
HETATM   15  C   UNL     1      29.198  43.236  52.387  1.00  0.00     0.030 A 
BRANCH  11  16
HETATM   16  C   UNL     1      27.349  45.687  54.694  1.00  0.00     0.036 C 
HETATM   17  C   UNL     1      28.049  47.019  54.922  1.00  0.00     0.010 C 
ENDBRANCH  11  16
ENDBRANCH   7  10
ENDBRANCH   5   6
ENDBRANCH   1   5
BRANCH   2  18
HETATM   18  C   UNL     1      26.331  48.514  49.528  1.00  0.00     0.080 A 
HETATM   19  C   UNL     1      25.484  49.351  48.727  1.00  0.00     0.104 A 
HETATM   20  N   UNL     1      26.223  50.184  47.970  1.00  0.00    -0.174 NA
HETATM   21  N   UNL     1      27.489  49.894  48.270  1.00  0.00    -0.288 N 
HETATM   22  H   UNL     1      28.224  50.400  47.784  1.00  0.00     0.188 HD
HETATM   23  C   UNL     1      27.617  48.919  49.211  1.00  0.00     0.128 A 
BRANCH  19  24
HETATM   24  C   UNL     1      24.020  49.418  48.670  1.00  0.00    -0.005 A 
HETATM   25  C   UNL     1      23.237  48.257  48.674  1.00  0.00     0.014 A 
HETATM   26  C   UNL     1      21.842  48.335  48.650  1.00  0.00     0.001 A 
HETATM   27  C   UNL     1      21.213  49.578  48.628  1.00  0.00     0.000 A 
HETATM   28  C   UNL     1      21.979  50.743  48.631  1.00  0.00     0.001 A 
HETATM   29  C   UNL     1      23.373  50.663  48.656  1.00  0.00     0.014 A 
ENDBRANCH  19  24
ENDBRANCH   2  18
TORSDOF 6
ENDMDL
MODEL 2
REMARK VINA RESULT:      -9.3      1.838      8.310
REMARK  6 active torsions:
REMARK  status: ('A' for Active; 'I' for Inactive)
REMARK    1  A    between atoms: C_2  and  C_3 
REMARK    2  A    between atoms: C_4  and  N_5 
REMARK       I    between atoms: N_5  and  C_6 
REMARK    3  A    between atoms: C_6  and  C_7 
REMARK    4  A    between atoms: C_7  and  N_8 
REMARK       I    between atoms: N_8  and  C_9 
REMARK    5  A    between atoms: C_9  and  C_10 
REMARK    6  A    between atoms: C_11  and  C_12 
ROOT
HETATM    1  N   UNL     1      25.959  44.182  52.286  1.00  0.00    -0.348 N 
HETATM    2  C   UNL     1      26.587  43.595  53.370  1.00  0.00     0.255 C 
HETATM    3  O   UNL     1      26.135  43.685  54.505  1.00  0.00    -0.268 OA
HETATM    4  H   UNL     1      26.447  44.175  51.402  1.00  0.00     0.163 HD
ENDROOT
BRANCH   1   5
HETATM    5  C   UNL     1      24.998  45.254  52.512  1.00  0.00     0.226 C 
BRANCH   5   6
HETATM    6  C   UNL     1      25.372  46.648  51.983  1.00  0.00     0.239 C 
HETATM    7  N   UNL     1      25.443  46.719  50.603  1.00  0.00    -0.325 N 
HETATM    8  H   UNL     1      25.232  45.853  50.128  1.00  0.00     0.169 HD
HETATM    9  O   UNL     1      25.681  47.535  52.777  1.00  0.00    -0.271 OA
BRANCH   7  10
HETATM   10  C   UNL     1      25.733  47.845  49.801  1.00  0.00     0.041 A 
HETATM   11  C   UNL     1      24.673  48.548  49.184  1.00  0.00    -0.032 A 
HETATM   12  C   UNL     1      24.967  49.686  48.402  1.00  0.00     0.009 A 
HETATM   13  C   UNL     1      26.277  50.126  48.235  1.00  0.00     0.001 A 
HETATM   14  C   UNL     1      27.316  49.433  48.841  1.00  0.00     0.002 A 
HETATM   15  C   UNL     1      27.045  48.303  49.616  1.00  0.00     0.030 A 
BRANCH  11  16
HETATM   16  C   UNL     1      23.223  48.130  49.286  1.00  0.00     0.036 C 
HETATM   17  C   UNL     1      22.265  49.305  49.149  1.00  0.00     0.010 C 
ENDBRANCH  11  16
ENDBRANCH   7  10
ENDBRANCH   5   6
ENDBRANCH   1   5
BRANCH   2  18
HETATM   18  C   UNL     1      27.797  42.860  53.050  1.00  0.00     0.080 A 
HETATM   19  C   UNL     1      29.116  43.012  53.595  1.00  0.00     0.104 A 
HETATM   20  N   UNL     1      29.982  42.192  52.972  1.00  0.00    -0.174 NA
HETATM   21  N   UNL     1      29.252  41.543  52.063  1.00  0.00    -0.288 N 
HETATM   22  H   UNL     1      29.724  40.880  51.456  1.00  0.00     0.188 HD
HETATM   23  C   UNL     1      27.935  41.884  52.077  1.00  0.00     0.128 A 
BRANCH  19  24
HETATM   24  C   UNL     1      29.582  43.868  54.692  1.00  0.00    -0.005 A 
HETATM   25  C   UNL     1      29.001  45.118  54.937  1.00  0.00     0.014 A 
HETATM   26  C   UNL     1      29.433  45.911  56.004  1.00  0.00     0.001 A 
HETATM   27  C   UNL     1      30.449  45.458  56.843  1.00  0.00     0.000 A 
HETATM   28  C   UNL     1      31.032  44.213  56.615  1.00  0.00     0.001 A 
HETATM   29  C   UNL     1      30.598  43.421  55.549  1.00  0.00     0.014 A 
ENDBRANCH  19  24
ENDBRANCH   2  18
TORSDOF 6
ENDMDL
MODEL 3
REMARK VINA RESULT:      -9.1      1.328      2.449
REMARK  6 active torsions:
REMARK  status: ('A' for Active; 'I' for Inactive)
REMARK    1  A    between atoms: C_2  and  C_3 
REMARK    2  A    between atoms: C_4  and  N_5 
REMARK       I    between atoms: N_5  and  C_6 
REMARK    3  A    between atoms: C_6  and  C_7 
REMARK    4  A    between atoms: C_7  and  N_8 
REMARK       I    between atoms: N_8  and  C_9 
REMARK    5  A    between atoms: C_9  and  C_10 
REMARK    6  A    between atoms: C_11  and  C_12 
ROOT
HETATM    1  N   UNL     1      25.393  47.176  51.328  1.00  0.00    -0.348 N 
HETATM    2  C   UNL     1      25.851  47.022  50.032  1.00  0.00     0.255 C 
HETATM    3  O   UNL     1      25.828  45.938  49.463  1.00  0.00    -0.268 OA
HETATM    4  H   UNL     1      25.555  48.065  51.779  1.00  0.00     0.163 HD
ENDROOT
BRANCH   1   5
HETATM    5  C   UNL     1      25.265  46.004  52.184  1.00  0.00     0.226 C 
BRANCH   5   6
HETATM    6  C   UNL     1      26.182  45.938  53.417  1.00  0.00     0.239 C 
HETATM    7  N   UNL     1      27.296  45.138  53.240  1.00  0.00    -0.325 N 
HETATM    8  H   UNL     1      27.366  44.713  52.327  1.00  0.00     0.169 HD
HETATM    9  O   UNL     1      25.828  46.478  54.463  1.00  0.00    -0.271 OA
BRANCH   7  10
HETATM   10  C   UNL     1      28.343  44.884  54.155  1.00  0.00     0.041 A 
HETATM   11  C   UNL     1      29.149  43.737  53.984  1.00  0.00    -0.032 A 
HETATM   12  C   UNL     1      30.206  43.499  54.888  1.00  0.00     0.009 A 
HETATM   13  C   UNL     1      30.469  44.377  55.937  1.00  0.00     0.001 A 
HETATM   14  C   UNL     1      29.675  45.504  56.102  1.00  0.00     0.002 A 
HETATM   15  C   UNL     1      28.621  45.753  55.219  1.00  0.00     0.030 A 
BRANCH  11  16
HETATM   16  C   UNL     1      28.924  42.712  52.893  1.00  0.00     0.036 C 
HETATM   17  C   UNL     1      28.314  41.422  53.420  1.00  0.00     0.010 C 
ENDBRANCH  11  16
ENDBRANCH   7  10
ENDBRANCH   5   6
ENDBRANCH   1   5
BRANCH   2  18
HETATM   18  C   UNL     1      26.339  48.239  49.408  1.00  0.00     0.080 A 
HETATM   19  C   UNL     1      25.596  49.278  48.753  1.00  0.00     0.104 A 
HETATM   20  N   UNL     1      26.429  50.197  48.232  1.00  0.00    -0.174 NA
HETATM   21  N   UNL     1      27.654  49.767  48.537  1.00  0.00    -0.288 N 
HETATM   22  H   UNL     1      28.447  50.312  48.211  1.00  0.00     0.188 HD
HETATM   23  C   UNL     1      27.664  48.613  49.257  1.00  0.00     0.128 A 
BRANCH  19  24
HETATM   24  C   UNL     1      24.145  49.453  48.627  1.00  0.00    -0.005 A 
HETATM   25  C   UNL     1      23.562  50.726  48.629  1.00  0.00     0.014 A 
HETATM   26  C   UNL     1      22.182  50.881  48.477  1.00  0.00     0.001 A 
HETATM   27  C   UNL     1      21.368  49.762  48.315  1.00  0.00     0.000 A 
HETATM   28  C   UNL     1      21.934  48.488  48.305  1.00  0.00     0.001 A 
HETATM   29  C   UNL     1      23.314  48.335  48.455  1.00  0.00     0.014 A 
ENDBRANCH  19  24
ENDBRANCH   2  18
TORSDOF 6
ENDMDL
MODEL 4
REMARK VINA RESULT:      -9.1     10.961     12.961
REMARK  6 active torsions:
REMARK  status: ('A' for Active; 'I' for Inactive)
REMARK    1  A    between atoms: C_2  and  C_3 
REMARK    2  A    between atoms: C_4  and  N_5 
REMARK       I    between atoms: N_5  and  C_6 
REMARK    3  A    between atoms: C_6  and  C_7 
REMARK    4  A    between atoms: C_7  and  N_8 
REMARK       I    between atoms: N_8  and  C_9 
REMARK    5  A    between atoms: C_9  and  C_10 
REMARK    6  A    between atoms: C_11  and  C_12 
ROOT
HETATM    1  N   UNL     1      28.744  52.583  39.352  1.00  0.00    -0.348 N 
HETATM    2  C   UNL     1      27.997  51.656  40.056  1.00  0.00     0.255 C 
HETATM    3  O   UNL     1      27.516  51.912  41.153  1.00  0.00    -0.268 OA
HETATM    4  H   UNL     1      29.214  52.268  38.516  1.00  0.00     0.163 HD
ENDROOT
BRANCH   1   5
HETATM    5  C   UNL     1      29.325  53.717  40.060  1.00  0.00     0.226 C 
BRANCH   5   6
HETATM    6  C   UNL     1      30.793  53.588  40.497  1.00  0.00     0.239 C 
HETATM    7  N   UNL     1      31.227  52.279  40.607  1.00  0.00    -0.325 N 
HETATM    8  H   UNL     1      30.530  51.586  40.378  1.00  0.00     0.169 HD
HETATM    9  O   UNL     1      31.421  54.596  40.815  1.00  0.00    -0.271 OA
BRANCH   7  10
HETATM   10  C   UNL     1      32.515  51.814  40.958  1.00  0.00     0.041 A 
HETATM   11  C   UNL     1      32.837  51.632  42.322  1.00  0.00    -0.032 A 
HETATM   12  C   UNL     1      34.116  51.146  42.667  1.00  0.00     0.009 A 
HETATM   13  C   UNL     1      35.058  50.839  41.688  1.00  0.00     0.001 A 
HETATM   14  C   UNL     1      34.738  51.018  40.349  1.00  0.00     0.002 A 
HETATM   15  C   UNL     1      33.478  51.502  39.989  1.00  0.00     0.030 A 
BRANCH  11  16
HETATM   16  C   UNL     1      31.891  51.964  43.456  1.00  0.00     0.036 C 
HETATM   17  C   UNL     1      32.576  51.939  44.815  1.00  0.00     0.010 C 
ENDBRANCH  11  16
ENDBRANCH   7  10
ENDBRANCH   5   6
ENDBRANCH   1   5
BRANCH   2  18
HETATM   18  C   UNL     1      27.820  50.380  39.387  1.00  0.00     0.080 A 
HETATM   19  C   UNL     1      28.612  49.188  39.493  1.00  0.00     0.104 A 
HETATM   20  N   UNL     1      28.163  48.245  38.643  1.00  0.00    -0.174 NA
HETATM   21  N   UNL     1      27.128  48.808  38.016  1.00  0.00    -0.288 N 
HETATM   22  H   UNL     1      26.650  48.267  37.302  1.00  0.00     0.188 HD
HETATM   23  C   UNL     1      26.862  50.076  38.434  1.00  0.00     0.128 A 
BRANCH  19  24
HETATM   24  C   UNL     1      29.744  48.893  40.377  1.00  0.00    -0.005 A 
HETATM   25  C   UNL     1      29.628  48.996  41.769  1.00  0.00     0.014 A 
HETATM   26  C   UNL     1      30.705  48.682  42.602  1.00  0.00     0.001 A 
HETATM   27  C   UNL     1      31.911  48.255  42.051  1.00  0.00     0.000 A 
HETATM   28  C   UNL     1      32.040  48.140  40.668  1.00  0.00     0.001 A 
HETATM   29  C   UNL     1      30.962  48.453  39.837  1.00  0.00     0.014 A 
ENDBRANCH  19  24
ENDBRANCH   2  18
TORSDOF 6
ENDMDL
MODEL 5
REMARK VINA RESULT:      -8.7     11.114     12.720
REMARK  6 active torsions:
REMARK  status: ('A' for Active; 'I' for Inactive)
REMARK    1  A    between atoms: C_2  and  C_3 
REMARK    2  A    between atoms: C_4  and  N_5 
REMARK       I    between atoms: N_5  and  C_6 
REMARK    3  A    between atoms: C_6  and  C_7 
REMARK    4  A    between atoms: C_7  and  N_8 
REMARK       I    between atoms: N_8  and  C_9 
REMARK    5  A    between atoms: C_9  and  C_10 
REMARK    6  A    between atoms: C_11  and  C_12 
ROOT
HETATM    1  N   UNL     1      30.077  48.168  40.620  1.00  0.00    -0.348 N 
HETATM    2  C   UNL     1      29.328  48.489  39.503  1.00  0.00     0.255 C 
HETATM    3  O   UNL     1      29.390  47.829  38.472  1.00  0.00    -0.268 OA
HETATM    4  H   UNL     1      30.073  48.822  41.390  1.00  0.00     0.163 HD
ENDROOT
BRANCH   1   5
HETATM    5  C   UNL     1      31.248  47.313  40.474  1.00  0.00     0.226 C 
BRANCH   5   6
HETATM    6  C   UNL     1      32.565  47.827  41.079  1.00  0.00     0.239 C 
HETATM    7  N   UNL     1      32.742  49.192  40.948  1.00  0.00    -0.325 N 
HETATM    8  H   UNL     1      31.983  49.671  40.484  1.00  0.00     0.169 HD
HETATM    9  O   UNL     1      33.386  47.021  41.513  1.00  0.00    -0.271 OA
BRANCH   7  10
HETATM   10  C   UNL     1      33.819  49.981  41.412  1.00  0.00     0.041 A 
HETATM   11  C   UNL     1      33.657  50.755  42.583  1.00  0.00    -0.032 A 
HETATM   12  C   UNL     1      34.743  51.523  43.054  1.00  0.00     0.009 A 
HETATM   13  C   UNL     1      35.966  51.525  42.389  1.00  0.00     0.001 A 
HETATM   14  C   UNL     1      36.122  50.764  41.239  1.00  0.00     0.002 A 
HETATM   15  C   UNL     1      35.057  50.000  40.756  1.00  0.00     0.030 A 
BRANCH  11  16
HETATM   16  C   UNL     1      32.359  50.838  43.357  1.00  0.00     0.036 C 
HETATM   17  C   UNL     1      32.415  51.859  44.484  1.00  0.00     0.010 C 
ENDBRANCH  11  16
ENDBRANCH   7  10
ENDBRANCH   5   6
ENDBRANCH   1   5
BRANCH   2  18
HETATM   18  C   UNL     1      28.464  49.645  39.657  1.00  0.00     0.080 A 
HETATM   19  C   UNL     1      28.821  51.028  39.795  1.00  0.00     0.104 A 
HETATM   20  N   UNL     1      27.725  51.781  40.000  1.00  0.00    -0.174 NA
HETATM   21  N   UNL     1      26.707  50.919  39.996  1.00  0.00    -0.288 N 
HETATM   22  H   UNL     1      25.772  51.283  40.160  1.00  0.00     0.188 HD
HETATM   23  C   UNL     1      27.083  49.631  39.774  1.00  0.00     0.128 A 
BRANCH  19  24
HETATM   24  C   UNL     1      30.140  51.666  39.711  1.00  0.00    -0.005 A 
HETATM   25  C   UNL     1      30.535  52.645  40.630  1.00  0.00     0.014 A 
HETATM   26  C   UNL     1      31.805  53.223  40.557  1.00  0.00     0.001 A 
HETATM   27  C   UNL     1      32.698  52.822  39.566  1.00  0.00     0.000 A 
HETATM   28  C   UNL     1      32.322  51.843  38.648  1.00  0.00     0.001 A 
HETATM   29  C   UNL     1      31.052  51.265  38.723  1.00  0.00     0.014 A 
ENDBRANCH  19  24
ENDBRANCH   2  18
TORSDOF 6
ENDMDL
MODEL 6
REMARK VINA RESULT:      -8.6      4.470      6.161
REMARK  6 active torsions:
REMARK  status: ('A' for Active; 'I' for Inactive)
REMARK    1  A    between atoms: C_2  and  C_3 
REMARK    2  A    between atoms: C_4  and  N_5 
REMARK       I    between atoms: N_5  and  C_6 
REMARK    3  A    between atoms: C_6  and  C_7 
REMARK    4  A    between atoms: C_7  and  N_8 
REMARK       I    between atoms: N_8  and  C_9 
REMARK    5  A    between atoms: C_9  and  C_10 
REMARK    6  A    between atoms: C_11  and  C_12 
ROOT
HETATM    1  N   UNL     1      27.608  40.613  51.616  1.00  0.00    -0.348 N 
HETATM    2  C   UNL     1      27.706  40.549  50.238  1.00  0.00     0.255 C 
HETATM    3  O   UNL     1      28.778  40.361  49.675  1.00  0.00    -0.268 OA
HETATM    4  H   UNL     1      26.720  40.893  52.009  1.00  0.00     0.163 HD
ENDROOT
BRANCH   1   5
HETATM    5  C   UNL     1      28.803  40.876  52.406  1.00  0.00     0.226 C 
BRANCH   5   6
HETATM    6  C   UNL     1      29.089  42.343  52.770  1.00  0.00     0.239 C 
HETATM    7  N   UNL     1      28.609  42.711  54.014  1.00  0.00    -0.325 N 
HETATM    8  H   UNL     1      28.145  41.970  54.520  1.00  0.00     0.169 HD
HETATM    9  O   UNL     1      29.596  43.087  51.932  1.00  0.00    -0.271 OA
BRANCH   7  10
HETATM   10  C   UNL     1      28.723  43.964  54.657  1.00  0.00     0.041 A 
HETATM   11  C   UNL     1      29.840  44.218  55.485  1.00  0.00    -0.032 A 
HETATM   12  C   UNL     1      29.961  45.479  56.107  1.00  0.00     0.009 A 
HETATM   13  C   UNL     1      29.004  46.472  55.915  1.00  0.00     0.001 A 
HETATM   14  C   UNL     1      27.908  46.219  55.102  1.00  0.00     0.002 A 
HETATM   15  C   UNL     1      27.770  44.976  54.480  1.00  0.00     0.030 A 
BRANCH  11  16
HETATM   16  C   UNL     1      30.915  43.194  55.775  1.00  0.00     0.036 C 
HETATM   17  C   UNL     1      31.659  43.478  57.073  1.00  0.00     0.010 C 
ENDBRANCH  11  16
ENDBRANCH   7  10
ENDBRANCH   5   6
ENDBRANCH   1   5
BRANCH   2  18
HETATM   18  C   UNL     1      26.450  40.704  49.527  1.00  0.00     0.080 A 
HETATM   19  C   UNL     1      25.530  41.805  49.549  1.00  0.00     0.104 A 
HETATM   20  N   UNL     1      24.438  41.523  48.814  1.00  0.00    -0.174 NA
HETATM   21  N   UNL     1      24.647  40.293  48.342  1.00  0.00    -0.288 N 
HETATM   22  H   UNL     1      23.920  39.871  47.770  1.00  0.00     0.188 HD
HETATM   23  C   UNL     1      25.841  39.760  48.716  1.00  0.00     0.128 A 
BRANCH  19  24
HETATM   24  C   UNL     1      25.651  43.112  50.203  1.00  0.00    -0.005 A 
HETATM   25  C   UNL     1      26.600  44.052  49.783  1.00  0.00     0.014 A 
HETATM   26  C   UNL     1      26.685  45.305  50.394  1.00  0.00     0.001 A 
HETATM   27  C   UNL     1      25.816  45.636  51.431  1.00  0.00     0.000 A 
HETATM   28  C   UNL     1      24.861  44.714  51.857  1.00  0.00     0.001 A 
HETATM   29  C   UNL     1      24.777  43.461  51.244  1.00  0.00     0.014 A 
ENDBRANCH  19  24
ENDBRANCH   2  18
TORSDOF 6
ENDMDL
MODEL 7
REMARK VINA RESULT:      -8.5      4.997      8.527
REMARK  6 active torsions:
REMARK  status: ('A' for Active; 'I' for Inactive)
REMARK    1  A    between atoms: C_2  and  C_3 
REMARK    2  A    between atoms: C_4  and  N_5 
REMARK       I    between atoms: N_5  and  C_6 
REMARK    3  A    between atoms: C_6  and  C_7 
REMARK    4  A    between atoms: C_7  and  N_8 
REMARK       I    between atoms: N_8  and  C_9 
REMARK    5  A    between atoms: C_9  and  C_10 
REMARK    6  A    between atoms: C_11  and  C_12 
ROOT
HETATM    1  N   UNL     1      27.432  42.742  53.612  1.00  0.00    -0.348 N 
HETATM    2  C   UNL     1      28.195  43.838  53.251  1.00  0.00     0.255 C 
HETATM    3  O   UNL     1      29.058  43.767  52.384  1.00  0.00    -0.268 OA
HETATM    4  H   UNL     1      26.829  42.837  54.416  1.00  0.00     0.163 HD
ENDROOT
BRANCH   1   5
HETATM    5  C   UNL     1      27.904  41.403  53.283  1.00  0.00     0.226 C 
BRANCH   5   6
HETATM    6  C   UNL     1      27.527  40.853  51.897  1.00  0.00     0.239 C 
HETATM    7  N   UNL     1      28.582  40.258  51.229  1.00  0.00    -0.325 N 
HETATM    8  H   UNL     1      29.454  40.256  51.740  1.00  0.00     0.169 HD
HETATM    9  O   UNL     1      26.403  41.066  51.447  1.00  0.00    -0.271 OA
BRANCH   7  10
HETATM   10  C   UNL     1      28.572  39.636  49.960  1.00  0.00     0.041 A 
HETATM   11  C   UNL     1      29.362  38.483  49.748  1.00  0.00    -0.032 A 
HETATM   12  C   UNL     1      29.331  37.853  48.486  1.00  0.00     0.009 A 
HETATM   13  C   UNL     1      28.534  38.344  47.455  1.00  0.00     0.001 A 
HETATM   14  C   UNL     1      27.759  39.476  47.667  1.00  0.00     0.002 A 
HETATM   15  C   UNL     1      27.780  40.115  48.909  1.00  0.00     0.030 A 
BRANCH  11  16
HETATM   16  C   UNL     1      30.279  37.894  50.797  1.00  0.00     0.036 C 
HETATM   17  C   UNL     1      29.736  36.602  51.390  1.00  0.00     0.010 C 
ENDBRANCH  11  16
ENDBRANCH   7  10
ENDBRANCH   5   6
ENDBRANCH   1   5
BRANCH   2  18
HETATM   18  C   UNL     1      27.881  45.063  53.963  1.00  0.00     0.080 A 
HETATM   19  C   UNL     1      28.434  45.561  55.191  1.00  0.00     0.104 A 
HETATM   20  N   UNL     1      27.813  46.696  55.562  1.00  0.00    -0.174 NA
HETATM   21  N   UNL     1      26.900  46.917  54.615  1.00  0.00    -0.288 N 
HETATM   22  H   UNL     1      26.294  47.726  54.715  1.00  0.00     0.188 HD
HETATM   23  C   UNL     1      26.907  45.987  53.622  1.00  0.00     0.128 A 
BRANCH  19  24
HETATM   24  C   UNL     1      29.534  45.031  56.004  1.00  0.00    -0.005 A 
HETATM   25  C   UNL     1      29.827  45.561  57.266  1.00  0.00     0.014 A 
HETATM   26  C   UNL     1      30.859  45.027  58.043  1.00  0.00     0.001 A 
HETATM   27  C   UNL     1      31.605  43.951  57.568  1.00  0.00     0.000 A 
HETATM   28  C   UNL     1      31.320  43.408  56.317  1.00  0.00     0.001 A 
HETATM   29  C   UNL     1      30.289  43.942  55.541  1.00  0.00     0.014 A 
ENDBRANCH  19  24
ENDBRANCH   2  18
TORSDOF 6
ENDMDL
MODEL 8
REMARK VINA RESULT:      -8.3     11.000     13.468
REMARK  6 active torsions:
REMARK  status: ('A' for Active; 'I' for Inactive)
REMARK    1  A    between atoms: C_2  and  C_3 
REMARK    2  A    between atoms: C_4  and  N_5 
REMARK       I    between atoms: N_5  and  C_6 
REMARK    3  A    between atoms: C_6  and  C_7 
REMARK    4  A    between atoms: C_7  and  N_8 
REMARK       I    between atoms: N_8  and  C_9 
REMARK    5  A    between atoms: C_9  and  C_10 
REMARK    6  A    between atoms: C_11  and  C_12 
ROOT
HETATM    1  N   UNL     1      27.261  49.225  38.289  1.00  0.00    -0.348 N 
HETATM    2  C   UNL     1      27.013  48.544  39.467  1.00  0.00     0.255 C 
HETATM    3  O   UNL     1      26.340  49.032  40.367  1.00  0.00    -0.268 OA
HETATM    4  H   UNL     1      27.922  48.819  37.644  1.00  0.00     0.163 HD
ENDROOT
BRANCH   1   5
HETATM    5  C   UNL     1      27.091  50.672  38.252  1.00  0.00     0.226 C 
BRANCH   5   6
HETATM    6  C   UNL     1      28.367  51.525  38.346  1.00  0.00     0.239 C 
HETATM    7  N   UNL     1      29.440  50.861  38.913  1.00  0.00    -0.325 N 
HETATM    8  H   UNL     1      29.248  49.906  39.180  1.00  0.00     0.169 HD
HETATM    9  O   UNL     1      28.324  52.714  38.035  1.00  0.00    -0.271 OA
BRANCH   7  10
HETATM   10  C   UNL     1      30.753  51.342  39.121  1.00  0.00     0.041 A 
HETATM   11  C   UNL     1      31.017  52.172  40.233  1.00  0.00    -0.032 A 
HETATM   12  C   UNL     1      32.334  52.632  40.449  1.00  0.00     0.009 A 
HETATM   13  C   UNL     1      33.371  52.276  39.591  1.00  0.00     0.001 A 
HETATM   14  C   UNL     1      33.107  51.460  38.499  1.00  0.00     0.002 A 
HETATM   15  C   UNL     1      31.810  50.999  38.267  1.00  0.00     0.030 A 
BRANCH  11  16
HETATM   16  C   UNL     1      29.952  52.634  41.204  1.00  0.00     0.036 C 
HETATM   17  C   UNL     1      30.460  52.710  42.637  1.00  0.00     0.010 C 
ENDBRANCH  11  16
ENDBRANCH   7  10
ENDBRANCH   5   6
ENDBRANCH   1   5
BRANCH   2  18
HETATM   18  C   UNL     1      27.594  47.215  39.538  1.00  0.00     0.080 A 
HETATM   19  C   UNL     1      28.887  46.820  40.020  1.00  0.00     0.104 A 
HETATM   20  N   UNL     1      29.075  45.500  39.838  1.00  0.00    -0.174 NA
HETATM   21  N   UNL     1      27.952  45.066  39.263  1.00  0.00    -0.288 N 
HETATM   22  H   UNL     1      27.892  44.083  39.013  1.00  0.00     0.188 HD
HETATM   23  C   UNL     1      27.022  46.041  39.078  1.00  0.00     0.128 A 
BRANCH  19  24
HETATM   24  C   UNL     1      29.929  47.623  40.667  1.00  0.00    -0.005 A 
HETATM   25  C   UNL     1      29.659  48.380  41.814  1.00  0.00     0.014 A 
HETATM   26  C   UNL     1      30.669  49.117  42.439  1.00  0.00     0.001 A 
HETATM   27  C   UNL     1      31.964  49.099  41.926  1.00  0.00     0.000 A 
HETATM   28  C   UNL     1      32.250  48.345  40.790  1.00  0.00     0.001 A 
HETATM   29  C   UNL     1      31.240  47.608  40.167  1.00  0.00     0.014 A 
ENDBRANCH  19  24
ENDBRANCH   2  18
TORSDOF 6
ENDMDL
MODEL 9
REMARK VINA RESULT:      -8.3      2.045      8.404
REMARK  6 active torsions:
REMARK  status: ('A' for Active; 'I' for Inactive)
REMARK    1  A    between atoms: C_2  and  C_3 
REMARK    2  A    between atoms: C_4  and  N_5 
REMARK       I    between atoms: N_5  and  C_6 
REMARK    3  A    between atoms: C_6  and  C_7 
REMARK    4  A    between atoms: C_7  and  N_8 
REMARK       I    between atoms: N_8  and  C_9 
REMARK    5  A    between atoms: C_9  and  C_10 
REMARK    6  A    between atoms: C_11  and  C_12 
ROOT
HETATM    1  N   UNL     1      25.308  44.709  50.748  1.00  0.00    -0.348 N 
HETATM    2  C   UNL     1      26.623  44.280  50.734  1.00  0.00     0.255 C 
HETATM    3  O   UNL     1      27.455  44.772  49.981  1.00  0.00    -0.268 OA
HETATM    4  H   UNL     1      24.649  44.179  51.300  1.00  0.00     0.163 HD
ENDROOT
BRANCH   1   5
HETATM    5  C   UNL     1      24.784  45.445  49.605  1.00  0.00     0.226 C 
BRANCH   5   6
HETATM    6  C   UNL     1      24.285  46.875  49.867  1.00  0.00     0.239 C 
HETATM    7  N   UNL     1      23.528  47.398  48.834  1.00  0.00    -0.325 N 
HETATM    8  H   UNL     1      23.397  46.772  48.052  1.00  0.00     0.169 HD
HETATM    9  O   UNL     1      24.665  47.474  50.871  1.00  0.00    -0.271 OA
BRANCH   7  10
HETATM   10  C   UNL     1      22.903  48.664  48.764  1.00  0.00     0.041 A 
HETATM   11  C   UNL     1      21.492  48.739  48.747  1.00  0.00    -0.032 A 
HETATM   12  C   UNL     1      20.872  50.005  48.700  1.00  0.00     0.009 A 
HETATM   13  C   UNL     1      21.626  51.176  48.676  1.00  0.00     0.001 A 
HETATM   14  C   UNL     1      23.012  51.099  48.694  1.00  0.00     0.002 A 
HETATM   15  C   UNL     1      23.643  49.853  48.736  1.00  0.00     0.030 A 
BRANCH  11  16
HETATM   16  C   UNL     1      20.590  47.523  48.741  1.00  0.00     0.036 C 
HETATM   17  C   UNL     1      19.934  47.289  47.389  1.00  0.00     0.010 C 
ENDBRANCH  11  16
ENDBRANCH   7  10
ENDBRANCH   5   6
ENDBRANCH   1   5
BRANCH   2  18
HETATM   18  C   UNL     1      26.932  43.226  51.683  1.00  0.00     0.080 A 
HETATM   19  C   UNL     1      27.461  43.335  53.013  1.00  0.00     0.104 A 
HETATM   20  N   UNL     1      27.684  42.114  53.533  1.00  0.00    -0.174 NA
HETATM   21  N   UNL     1      27.316  41.257  52.579  1.00  0.00    -0.288 N 
HETATM   22  H   UNL     1      27.428  40.264  52.760  1.00  0.00     0.188 HD
HETATM   23  C   UNL     1      26.839  41.862  51.458  1.00  0.00     0.128 A 
BRANCH  19  24
HETATM   24  C   UNL     1      27.732  44.531  53.816  1.00  0.00    -0.005 A 
HETATM   25  C   UNL     1      28.854  44.611  54.649  1.00  0.00     0.014 A 
HETATM   26  C   UNL     1      29.118  45.768  55.386  1.00  0.00     0.001 A 
HETATM   27  C   UNL     1      28.263  46.864  55.293  1.00  0.00     0.000 A 
HETATM   28  C   UNL     1      27.145  46.803  54.463  1.00  0.00     0.001 A 
HETATM   29  C   UNL     1      26.884  45.646  53.726  1.00  0.00     0.014 A 
ENDBRANCH  19  24
ENDBRANCH   2  18
TORSDOF 6
ENDMDL
MODEL 10
REMARK VINA RESULT:      -8.3      2.262      3.643
REMARK  6 active torsions:
REMARK  status: ('A' for Active; 'I' for Inactive)
REMARK    1  A    between atoms: C_2  and  C_3 
REMARK    2  A    between atoms: C_4  and  N_5 
REMARK       I    between atoms: N_5  and  C_6 
REMARK    3  A    between atoms: C_6  and  C_7 
REMARK    4  A    between atoms: C_7  and  N_8 
REMARK       I    between atoms: N_8  and  C_9 
REMARK    5  A    between atoms: C_9  and  C_10 
REMARK    6  A    between atoms: C_11  and  C_12 
ROOT
HETATM    1  N   UNL     1      22.778  45.606  49.598  1.00  0.00    -0.348 N 
HETATM    2  C   UNL     1      22.646  46.490  48.542  1.00  0.00     0.255 C 
HETATM    3  O   UNL     1      22.751  46.126  47.377  1.00  0.00    -0.268 OA
HETATM    4  H   UNL     1      22.804  45.992  50.531  1.00  0.00     0.163 HD
ENDROOT
BRANCH   1   5
HETATM    5  C   UNL     1      23.447  44.331  49.381  1.00  0.00     0.226 C 
BRANCH   5   6
HETATM    6  C   UNL     1      24.923  44.237  49.805  1.00  0.00     0.239 C 
HETATM    7  N   UNL     1      25.104  43.726  51.078  1.00  0.00    -0.325 N 
HETATM    8  H   UNL     1      24.250  43.474  51.554  1.00  0.00     0.169 HD
HETATM    9  O   UNL     1      25.793  44.704  49.073  1.00  0.00    -0.271 OA
BRANCH   7  10
HETATM   10  C   UNL     1      26.321  43.487  51.756  1.00  0.00     0.041 A 
HETATM   11  C   UNL     1      26.855  44.492  52.594  1.00  0.00    -0.032 A 
HETATM   12  C   UNL     1      28.058  44.240  53.287  1.00  0.00     0.009 A 
HETATM   13  C   UNL     1      28.720  43.021  53.162  1.00  0.00     0.001 A 
HETATM   14  C   UNL     1      28.192  42.036  52.339  1.00  0.00     0.002 A 
HETATM   15  C   UNL     1      27.004  42.269  51.642  1.00  0.00     0.030 A 
BRANCH  11  16
HETATM   16  C   UNL     1      26.224  45.856  52.771  1.00  0.00     0.036 C 
HETATM   17  C   UNL     1      25.895  46.164  54.225  1.00  0.00     0.010 C 
ENDBRANCH  11  16
ENDBRANCH   7  10
ENDBRANCH   5   6
ENDBRANCH   1   5
BRANCH   2  18
HETATM   18  C   UNL     1      22.361  47.861  48.925  1.00  0.00     0.080 A 
HETATM   19  C   UNL     1      23.277  48.916  49.255  1.00  0.00     0.104 A 
HETATM   20  N   UNL     1      22.608  50.019  49.638  1.00  0.00    -0.174 NA
HETATM   21  N   UNL     1      21.318  49.688  49.560  1.00  0.00    -0.288 N 
HETATM   22  H   UNL     1      20.629  50.382  49.833  1.00  0.00     0.188 HD
HETATM   23  C   UNL     1      21.108  48.418  49.119  1.00  0.00     0.128 A 
BRANCH  19  24
HETATM   24  C   UNL     1      24.742  48.935  49.194  1.00  0.00    -0.005 A 
HETATM   25  C   UNL     1      25.512  47.975  49.862  1.00  0.00     0.014 A 
HETATM   26  C   UNL     1      26.906  47.986  49.770  1.00  0.00     0.001 A 
HETATM   27  C   UNL     1      27.547  48.956  49.003  1.00  0.00     0.000 A 
HETATM   28  C   UNL     1      26.795  49.914  48.326  1.00  0.00     0.001 A 
HETATM   29  C   UNL     1      25.401  49.901  48.417  1.00  0.00     0.014 A 
ENDBRANCH  19  24
ENDBRANCH   2  18
TORSDOF 6
ENDMDL
