MODEL 1
REMARK VINA RESULT:      -8.8      0.000      0.000
REMARK  11 active torsions:
REMARK  status: ('A' for Active; 'I' for Inactive)
REMARK    1  A    between atoms: C_4  and  C_5 
REMARK       I    between atoms: C_5  and  N_6 
REMARK    2  A    between atoms: N_6  and  C_7 
REMARK    3  A    between atoms: C_7  and  C_8 
REMARK    4  A    between atoms: C_8  and  C_9 
REMARK    5  A    between atoms: C_9  and  C_10 
REMARK    6  A    between atoms: C_10  and  C_11 
REMARK    7  A    between atoms: C_11  and  C_12 
REMARK       I    between atoms: C_12  and  N_13 
REMARK    8  A    between atoms: N_13  and  N_14 
REMARK    9  A    between atoms: C_15  and  C_16 
REMARK   10  A    between atoms: C_17  and  O_18 
REMARK   11  A    between atoms: C_20  and  O_21 
ROOT
HETATM    1  C   UNL     1      24.174  49.315  48.604  1.00  0.00     0.237 C 
HETATM    2  N   UNL     1      23.203  49.094  49.572  1.00  0.00    -0.247 N 
HETATM    3  O   UNL     1      23.956  49.827  47.509  1.00  0.00    -0.272 OA
HETATM    4  H   UNL     1      23.437  48.662  50.460  1.00  0.00     0.192 HD
ENDROOT
BRANCH   1   5
HETATM    5  C   UNL     1      25.552  48.862  49.050  1.00  0.00     0.105 C 
BRANCH   5   6
HETATM    6  C   UNL     1      25.498  47.504  49.746  1.00  0.00     0.009 C 
BRANCH   6   7
HETATM    7  C   UNL     1      26.245  47.509  51.079  1.00  0.00     0.002 C 
BRANCH   7   8
HETATM    8  C   UNL     1      25.593  46.543  52.070  1.00  0.00     0.020 C 
BRANCH   8   9
HETATM    9  C   UNL     1      25.787  46.995  53.515  1.00  0.00     0.123 C 
BRANCH   9  10
HETATM   10  N   UNL     1      27.044  46.505  54.047  1.00  0.00    -0.357 N 
HETATM   11  C   UNL     1      27.155  45.237  54.584  1.00  0.00     0.251 C 
HETATM   12  O   UNL     1      26.199  44.476  54.692  1.00  0.00    -0.268 OA
HETATM   13  H   UNL     1      27.876  47.022  53.809  1.00  0.00     0.162 HD
BRANCH  11  14
HETATM   14  C   UNL     1      28.516  44.795  55.019  1.00  0.00     0.032 A 
HETATM   15  C   UNL     1      29.153  43.660  54.499  1.00  0.00     0.017 A 
HETATM   16  C   UNL     1      30.430  43.303  54.946  1.00  0.00     0.001 A 
HETATM   17  C   UNL     1      31.082  44.080  55.901  1.00  0.00     0.000 A 
HETATM   18  C   UNL     1      30.463  45.220  56.411  1.00  0.00     0.001 A 
HETATM   19  C   UNL     1      29.186  45.576  55.972  1.00  0.00     0.017 A 
ENDBRANCH  11  14
ENDBRANCH   9  10
ENDBRANCH   8   9
ENDBRANCH   7   8
ENDBRANCH   6   7
ENDBRANCH   5   6
ENDBRANCH   1   5
BRANCH   2  20
HETATM   20  N   UNL     1      21.920  49.453  49.305  1.00  0.00    -0.184 NA
HETATM   21  C   UNL     1      21.538  50.612  49.732  1.00  0.00     0.153 C 
BRANCH  21  22
HETATM   22  C   UNL     1      20.157  51.076  49.486  1.00  0.00     0.016 A 
HETATM   23  C   UNL     1      19.064  50.577  50.210  1.00  0.00     0.080 A 
HETATM   24  C   UNL     1      17.776  51.039  49.953  1.00  0.00     0.074 A 
HETATM   25  C   UNL     1      17.584  52.002  48.967  1.00  0.00     0.068 A 
HETATM   26  C   UNL     1      18.658  52.506  48.239  1.00  0.00     0.037 A 
HETATM   27  C   UNL     1      19.951  52.044  48.497  1.00  0.00     0.018 A 
BRANCH  23  28
HETATM   28  O   UNL     1      19.179  49.630  51.193  1.00  0.00    -0.360 OA
HETATM   29  H   UNL     1      19.296  50.087  52.059  1.00  0.00     0.217 HD
ENDBRANCH  23  28
BRANCH  25  30
HETATM   30  O   UNL     1      16.341  52.485  48.681  1.00  0.00    -0.361 OA
HETATM   31  H   UNL     1      15.722  51.736  48.637  1.00  0.00     0.217 HD
ENDBRANCH  25  30
ENDBRANCH  21  22
ENDBRANCH   2  20
TORSDOF 11
ENDMDL
MODEL 2
REMARK VINA RESULT:      -8.6      2.126     11.623
REMARK  11 active torsions:
REMARK  status: ('A' for Active; 'I' for Inactive)
REMARK    1  A    between atoms: C_4  and  C_5 
REMARK       I    between atoms: C_5  and  N_6 
REMARK    2  A    between atoms: N_6  and  C_7 
REMARK    3  A    between atoms: C_7  and  C_8 
REMARK    4  A    between atoms: C_8  and  C_9 
REMARK    5  A    between atoms: C_9  and  C_10 
REMARK    6  A    between atoms: C_10  and  C_11 
REMARK    7  A    between atoms: C_11  and  C_12 
REMARK       I    between atoms: C_12  and  N_13 
REMARK    8  A    between atoms: N_13  and  N_14 
REMARK    9  A    between atoms: C_15  and  C_16 
REMARK   10  A    between atoms: C_17  and  O_18 
REMARK   11  A    between atoms: C_20  and  O_21 
ROOT
HETATM    1  C   UNL     1      25.272  44.368  52.884  1.00  0.00     0.237 C 
HETATM    2  N   UNL     1      26.599  43.982  52.747  1.00  0.00    -0.247 N 
HETATM    3  O   UNL     1      24.738  44.644  53.954  1.00  0.00    -0.272 OA
HETATM    4  H   UNL     1      26.990  43.760  51.838  1.00  0.00     0.192 HD
ENDROOT
BRANCH   1   5
HETATM    5  C   UNL     1      24.545  44.424  51.552  1.00  0.00     0.105 C 
BRANCH   5   6
HETATM    6  C   UNL     1      25.259  45.340  50.560  1.00  0.00     0.009 C 
BRANCH   6   7
HETATM    7  C   UNL     1      25.397  46.766  51.089  1.00  0.00     0.002 C 
BRANCH   7   8
HETATM    8  C   UNL     1      24.893  47.778  50.057  1.00  0.00     0.020 C 
BRANCH   8   9
HETATM    9  C   UNL     1      23.582  47.330  49.417  1.00  0.00     0.123 C 
BRANCH   9  10
HETATM   10  N   UNL     1      22.534  48.306  49.643  1.00  0.00    -0.357 N 
HETATM   11  C   UNL     1      22.123  49.167  48.644  1.00  0.00     0.251 C 
HETATM   12  O   UNL     1      22.648  49.197  47.536  1.00  0.00    -0.268 OA
HETATM   13  H   UNL     1      21.965  48.187  50.466  1.00  0.00     0.162 HD
BRANCH  11  14
HETATM   14  C   UNL     1      20.972  50.071  48.951  1.00  0.00     0.032 A 
HETATM   15  C   UNL     1      20.798  51.321  48.343  1.00  0.00     0.017 A 
HETATM   16  C   UNL     1      19.696  52.117  48.671  1.00  0.00     0.001 A 
HETATM   17  C   UNL     1      18.756  51.666  49.596  1.00  0.00     0.000 A 
HETATM   18  C   UNL     1      18.911  50.417  50.193  1.00  0.00     0.001 A 
HETATM   19  C   UNL     1      20.014  49.623  49.873  1.00  0.00     0.017 A 
ENDBRANCH  11  14
ENDBRANCH   9  10
ENDBRANCH   8   9
ENDBRANCH   7   8
ENDBRANCH   6   7
ENDBRANCH   5   6
ENDBRANCH   1   5
BRANCH   2  20
HETATM   20  N   UNL     1      27.370  43.890  53.862  1.00  0.00    -0.184 NA
HETATM   21  C   UNL     1      28.494  44.529  53.848  1.00  0.00     0.153 C 
BRANCH  21  22
HETATM   22  C   UNL     1      29.393  44.477  55.020  1.00  0.00     0.016 A 
HETATM   23  C   UNL     1      29.415  45.492  55.987  1.00  0.00     0.080 A 
HETATM   24  C   UNL     1      30.274  45.407  57.080  1.00  0.00     0.074 A 
HETATM   25  C   UNL     1      31.113  44.304  57.201  1.00  0.00     0.068 A 
HETATM   26  C   UNL     1      31.105  43.289  56.248  1.00  0.00     0.037 A 
HETATM   27  C   UNL     1      30.242  43.372  55.152  1.00  0.00     0.018 A 
BRANCH  23  28
HETATM   28  O   UNL     1      28.619  46.604  55.933  1.00  0.00    -0.360 OA
HETATM   29  H   UNL     1      27.763  46.401  56.379  1.00  0.00     0.217 HD
ENDBRANCH  23  28
BRANCH  25  30
HETATM   30  O   UNL     1      31.971  44.178  58.254  1.00  0.00    -0.361 OA
HETATM   31  H   UNL     1      31.545  44.550  59.045  1.00  0.00     0.217 HD
ENDBRANCH  25  30
ENDBRANCH  21  22
ENDBRANCH   2  20
TORSDOF 11
ENDMDL
MODEL 3
REMARK VINA RESULT:      -8.6      2.706     11.381
REMARK  11 active torsions:
REMARK  status: ('A' for Active; 'I' for Inactive)
REMARK    1  A    between atoms: C_4  and  C_5 
REMARK       I    between atoms: C_5  and  N_6 
REMARK    2  A    between atoms: N_6  and  C_7 
REMARK    3  A    between atoms: C_7  and  C_8 
REMARK    4  A    between atoms: C_8  and  C_9 
REMARK    5  A    between atoms: C_9  and  C_10 
REMARK    6  A    between atoms: C_10  and  C_11 
REMARK    7  A    between atoms: C_11  and  C_12 
REMARK       I    between atoms: C_12  and  N_13 
REMARK    8  A    between atoms: N_13  and  N_14 
REMARK    9  A    between atoms: C_15  and  C_16 
REMARK   10  A    between atoms: C_17  and  O_18 
REMARK   11  A    between atoms: C_20  and  O_21 
ROOT
HETATM    1  C   UNL     1      25.431  44.093  52.771  1.00  0.00     0.237 C 
HETATM    2  N   UNL     1      26.806  43.935  52.647  1.00  0.00    -0.247 N 
HETATM    3  O   UNL     1      24.838  44.170  53.843  1.00  0.00    -0.272 OA
HETATM    4  H   UNL     1      27.245  43.872  51.735  1.00  0.00     0.192 HD
ENDROOT
BRANCH   1   5
HETATM    5  C   UNL     1      24.732  44.170  51.426  1.00  0.00     0.105 C 
BRANCH   5   6
HETATM    6  C   UNL     1      25.336  45.258  50.541  1.00  0.00     0.009 C 
BRANCH   6   7
HETATM    7  C   UNL     1      25.072  46.660  51.089  1.00  0.00     0.002 C 
BRANCH   7   8
HETATM    8  C   UNL     1      26.209  47.611  50.715  1.00  0.00     0.020 C 
BRANCH   8   9
HETATM    9  C   UNL     1      25.950  48.307  49.381  1.00  0.00     0.123 C 
BRANCH   9  10
HETATM   10  N   UNL     1      24.566  48.725  49.274  1.00  0.00    -0.357 N 
HETATM   11  C   UNL     1      24.139  49.555  48.255  1.00  0.00     0.251 C 
HETATM   12  O   UNL     1      24.904  50.027  47.420  1.00  0.00    -0.268 OA
HETATM   13  H   UNL     1      23.889  48.217  49.821  1.00  0.00     0.162 HD
BRANCH  11  14
HETATM   14  C   UNL     1      22.675  49.849  48.180  1.00  0.00     0.032 A 
HETATM   15  C   UNL     1      21.732  48.923  47.713  1.00  0.00     0.017 A 
HETATM   16  C   UNL     1      20.375  49.259  47.672  1.00  0.00     0.001 A 
HETATM   17  C   UNL     1      19.950  50.512  48.108  1.00  0.00     0.000 A 
HETATM   18  C   UNL     1      20.878  51.434  48.590  1.00  0.00     0.001 A 
HETATM   19  C   UNL     1      22.234  51.104  48.626  1.00  0.00     0.017 A 
ENDBRANCH  11  14
ENDBRANCH   9  10
ENDBRANCH   8   9
ENDBRANCH   7   8
ENDBRANCH   6   7
ENDBRANCH   5   6
ENDBRANCH   1   5
BRANCH   2  20
HETATM   20  N   UNL     1      27.558  43.851  53.774  1.00  0.00    -0.184 NA
HETATM   21  C   UNL     1      28.372  44.829  54.007  1.00  0.00     0.153 C 
BRANCH  21  22
HETATM   22  C   UNL     1      29.229  44.812  55.210  1.00  0.00     0.016 A 
HETATM   23  C   UNL     1      30.264  43.880  55.373  1.00  0.00     0.080 A 
HETATM   24  C   UNL     1      31.054  43.896  56.520  1.00  0.00     0.074 A 
HETATM   25  C   UNL     1      30.804  44.847  57.504  1.00  0.00     0.068 A 
HETATM   26  C   UNL     1      29.779  45.777  57.358  1.00  0.00     0.037 A 
HETATM   27  C   UNL     1      28.987  45.763  56.207  1.00  0.00     0.018 A 
BRANCH  23  28
HETATM   28  O   UNL     1      30.567  42.919  54.447  1.00  0.00    -0.360 OA
HETATM   29  H   UNL     1      31.230  42.302  54.838  1.00  0.00     0.217 HD
ENDBRANCH  23  28
BRANCH  25  30
HETATM   30  O   UNL     1      31.552  44.900  58.644  1.00  0.00    -0.361 OA
HETATM   31  H   UNL     1      31.482  44.044  59.099  1.00  0.00     0.217 HD
ENDBRANCH  25  30
ENDBRANCH  21  22
ENDBRANCH   2  20
TORSDOF 11
ENDMDL
MODEL 4
REMARK VINA RESULT:      -8.3      1.977      2.453
REMARK  11 active torsions:
REMARK  status: ('A' for Active; 'I' for Inactive)
REMARK    1  A    between atoms: C_4  and  C_5 
REMARK       I    between atoms: C_5  and  N_6 
REMARK    2  A    between atoms: N_6  and  C_7 
REMARK    3  A    between atoms: C_7  and  C_8 
REMARK    4  A    between atoms: C_8  and  C_9 
REMARK    5  A    between atoms: C_9  and  C_10 
REMARK    6  A    between atoms: C_10  and  C_11 
REMARK    7  A    between atoms: C_11  and  C_12 
REMARK       I    between atoms: C_12  and  N_13 
REMARK    8  A    between atoms: N_13  and  N_14 
REMARK    9  A    between atoms: C_15  and  C_16 
REMARK   10  A    between atoms: C_17  and  O_18 
REMARK   11  A    between atoms: C_20  and  O_21 
ROOT
HETATM    1  C   UNL     1      24.700  47.350  50.085  1.00  0.00     0.237 C 
HETATM    2  N   UNL     1      23.815  47.761  49.096  1.00  0.00    -0.247 N 
HETATM    3  O   UNL     1      24.733  47.814  51.221  1.00  0.00    -0.272 OA
HETATM    4  H   UNL     1      23.834  47.346  48.171  1.00  0.00     0.192 HD
ENDROOT
BRANCH   1   5
HETATM    5  C   UNL     1      25.627  46.245  49.610  1.00  0.00     0.105 C 
BRANCH   5   6
HETATM    6  C   UNL     1      25.481  44.985  50.462  1.00  0.00     0.009 C 
BRANCH   6   7
HETATM    7  C   UNL     1      26.474  44.956  51.622  1.00  0.00     0.002 C 
BRANCH   7   8
HETATM    8  C   UNL     1      26.209  43.755  52.532  1.00  0.00     0.020 C 
BRANCH   8   9
HETATM    9  C   UNL     1      27.471  42.926  52.759  1.00  0.00     0.123 C 
BRANCH   9  10
HETATM   10  N   UNL     1      28.124  43.305  53.998  1.00  0.00    -0.357 N 
HETATM   11  C   UNL     1      29.494  43.464  54.071  1.00  0.00     0.251 C 
HETATM   12  O   UNL     1      30.239  43.246  53.121  1.00  0.00    -0.268 OA
HETATM   13  H   UNL     1      27.538  43.665  54.734  1.00  0.00     0.162 HD
BRANCH  11  14
HETATM   14  C   UNL     1      30.058  43.947  55.369  1.00  0.00     0.032 A 
HETATM   15  C   UNL     1      30.981  43.209  56.124  1.00  0.00     0.017 A 
HETATM   16  C   UNL     1      31.473  43.719  57.329  1.00  0.00     0.001 A 
HETATM   17  C   UNL     1      31.061  44.971  57.781  1.00  0.00     0.000 A 
HETATM   18  C   UNL     1      30.157  45.719  57.030  1.00  0.00     0.001 A 
HETATM   19  C   UNL     1      29.658  45.210  55.829  1.00  0.00     0.017 A 
ENDBRANCH  11  14
ENDBRANCH   9  10
ENDBRANCH   8   9
ENDBRANCH   7   8
ENDBRANCH   6   7
ENDBRANCH   5   6
ENDBRANCH   1   5
BRANCH   2  20
HETATM   20  N   UNL     1      22.926  48.746  49.384  1.00  0.00    -0.184 NA
HETATM   21  C   UNL     1      21.764  48.667  48.821  1.00  0.00     0.153 C 
BRANCH  21  22
HETATM   22  C   UNL     1      20.741  49.702  49.079  1.00  0.00     0.016 A 
HETATM   23  C   UNL     1      19.638  49.466  49.912  1.00  0.00     0.080 A 
HETATM   24  C   UNL     1      18.695  50.467  50.134  1.00  0.00     0.074 A 
HETATM   25  C   UNL     1      18.858  51.704  49.519  1.00  0.00     0.068 A 
HETATM   26  C   UNL     1      19.947  51.952  48.688  1.00  0.00     0.037 A 
HETATM   27  C   UNL     1      20.894  50.950  48.465  1.00  0.00     0.018 A 
BRANCH  23  28
HETATM   28  O   UNL     1      19.414  48.275  50.549  1.00  0.00    -0.360 OA
HETATM   29  H   UNL     1      19.842  47.555  50.030  1.00  0.00     0.217 HD
ENDBRANCH  23  28
BRANCH  25  30
HETATM   30  O   UNL     1      17.960  52.713  49.707  1.00  0.00    -0.361 OA
HETATM   31  H   UNL     1      17.375  52.754  48.932  1.00  0.00     0.217 HD
ENDBRANCH  25  30
ENDBRANCH  21  22
ENDBRANCH   2  20
TORSDOF 11
ENDMDL
MODEL 5
REMARK VINA RESULT:      -8.3      3.698     11.396
REMARK  11 active torsions:
REMARK  status: ('A' for Active; 'I' for Inactive)
REMARK    1  A    between atoms: C_4  and  C_5 
REMARK       I    between atoms: C_5  and  N_6 
REMARK    2  A    between atoms: N_6  and  C_7 
REMARK    3  A    between atoms: C_7  and  C_8 
REMARK    4  A    between atoms: C_8  and  C_9 
REMARK    5  A    between atoms: C_9  and  C_10 
REMARK    6  A    between atoms: C_10  and  C_11 
REMARK    7  A    between atoms: C_11  and  C_12 
REMARK       I    between atoms: C_12  and  N_13 
REMARK    8  A    between atoms: N_13  and  N_14 
REMARK    9  A    between atoms: C_15  and  C_16 
REMARK   10  A    between atoms: C_17  and  O_18 
REMARK   11  A    between atoms: C_20  and  O_21 
ROOT
HETATM    1  C   UNL     1      28.243  41.480  52.128  1.00  0.00     0.237 C 
HETATM    2  N   UNL     1      29.397  42.250  52.200  1.00  0.00    -0.247 N 
HETATM    3  O   UNL     1      27.636  41.051  53.105  1.00  0.00    -0.272 OA
HETATM    4  H   UNL     1      29.863  42.575  51.359  1.00  0.00     0.192 HD
ENDROOT
BRANCH   1   5
HETATM    5  C   UNL     1      27.802  41.228  50.698  1.00  0.00     0.105 C 
BRANCH   5   6
HETATM    6  C   UNL     1      27.264  42.499  50.044  1.00  0.00     0.009 C 
BRANCH   6   7
HETATM    7  C   UNL     1      25.980  42.991  50.711  1.00  0.00     0.002 C 
BRANCH   7   8
HETATM    8  C   UNL     1      25.413  44.202  49.967  1.00  0.00     0.020 C 
BRANCH   8   9
HETATM    9  C   UNL     1      24.455  45.006  50.842  1.00  0.00     0.123 C 
BRANCH   9  10
HETATM   10  N   UNL     1      23.890  46.120  50.104  1.00  0.00    -0.357 N 
HETATM   11  C   UNL     1      24.423  47.391  50.197  1.00  0.00     0.251 C 
HETATM   12  O   UNL     1      25.360  47.665  50.939  1.00  0.00    -0.268 OA
HETATM   13  H   UNL     1      23.250  45.899  49.357  1.00  0.00     0.162 HD
BRANCH  11  14
HETATM   14  C   UNL     1      23.825  48.448  49.324  1.00  0.00     0.032 A 
HETATM   15  C   UNL     1      24.588  49.445  48.699  1.00  0.00     0.017 A 
HETATM   16  C   UNL     1      23.968  50.403  47.891  1.00  0.00     0.001 A 
HETATM   17  C   UNL     1      22.590  50.365  47.690  1.00  0.00     0.000 A 
HETATM   18  C   UNL     1      21.825  49.369  48.293  1.00  0.00     0.001 A 
HETATM   19  C   UNL     1      22.440  48.414  49.106  1.00  0.00     0.017 A 
ENDBRANCH  11  14
ENDBRANCH   9  10
ENDBRANCH   8   9
ENDBRANCH   7   8
ENDBRANCH   6   7
ENDBRANCH   5   6
ENDBRANCH   1   5
BRANCH   2  20
HETATM   20  N   UNL     1      29.905  42.553  53.422  1.00  0.00    -0.184 NA
HETATM   21  C   UNL     1      29.532  43.674  53.948  1.00  0.00     0.153 C 
BRANCH  21  22
HETATM   22  C   UNL     1      30.043  44.080  55.273  1.00  0.00     0.016 A 
HETATM   23  C   UNL     1      29.657  45.281  55.884  1.00  0.00     0.080 A 
HETATM   24  C   UNL     1      30.157  45.630  57.136  1.00  0.00     0.074 A 
HETATM   25  C   UNL     1      31.047  44.772  57.775  1.00  0.00     0.068 A 
HETATM   26  C   UNL     1      31.442  43.577  57.181  1.00  0.00     0.037 A 
HETATM   27  C   UNL     1      30.940  43.226  55.925  1.00  0.00     0.018 A 
BRANCH  23  28
HETATM   28  O   UNL     1      28.786  46.171  55.315  1.00  0.00    -0.360 OA
HETATM   29  H   UNL     1      28.939  46.184  54.341  1.00  0.00     0.217 HD
ENDBRANCH  23  28
BRANCH  25  30
HETATM   30  O   UNL     1      31.563  45.072  59.001  1.00  0.00    -0.361 OA
HETATM   31  H   UNL     1      30.851  45.437  59.554  1.00  0.00     0.217 HD
ENDBRANCH  25  30
ENDBRANCH  21  22
ENDBRANCH   2  20
TORSDOF 11
ENDMDL
MODEL 6
REMARK VINA RESULT:      -8.2     12.443     14.814
REMARK  11 active torsions:
REMARK  status: ('A' for Active; 'I' for Inactive)
REMARK    1  A    between atoms: C_4  and  C_5 
REMARK       I    between atoms: C_5  and  N_6 
REMARK    2  A    between atoms: N_6  and  C_7 
REMARK    3  A    between atoms: C_7  and  C_8 
REMARK    4  A    between atoms: C_8  and  C_9 
REMARK    5  A    between atoms: C_9  and  C_10 
REMARK    6  A    between atoms: C_10  and  C_11 
REMARK    7  A    between atoms: C_11  and  C_12 
REMARK       I    between atoms: C_12  and  N_13 
REMARK    8  A    between atoms: N_13  and  N_14 
REMARK    9  A    between atoms: C_15  and  C_16 
REMARK   10  A    between atoms: C_17  and  O_18 
REMARK   11  A    between atoms: C_20  and  O_21 
ROOT
HETATM    1  C   UNL     1      34.807  52.670  39.384  1.00  0.00     0.237 C 
HETATM    2  N   UNL     1      33.640  53.314  39.777  1.00  0.00    -0.247 N 
HETATM    3  O   UNL     1      34.844  51.550  38.884  1.00  0.00    -0.272 OA
HETATM    4  H   UNL     1      33.666  54.239  40.190  1.00  0.00     0.192 HD
ENDROOT
BRANCH   1   5
HETATM    5  C   UNL     1      36.045  53.511  39.633  1.00  0.00     0.105 C 
BRANCH   5   6
HETATM    6  C   UNL     1      37.314  52.661  39.616  1.00  0.00     0.009 C 
BRANCH   6   7
HETATM    7  C   UNL     1      37.776  52.285  41.023  1.00  0.00     0.002 C 
BRANCH   7   8
HETATM    8  C   UNL     1      37.325  50.868  41.381  1.00  0.00     0.020 C 
BRANCH   8   9
HETATM    9  C   UNL     1      36.405  50.856  42.599  1.00  0.00     0.123 C 
BRANCH   9  10
HETATM   10  N   UNL     1      35.174  50.144  42.313  1.00  0.00    -0.357 N 
HETATM   11  C   UNL     1      33.946  50.773  42.378  1.00  0.00     0.251 C 
HETATM   12  O   UNL     1      33.816  51.942  42.728  1.00  0.00    -0.268 OA
HETATM   13  H   UNL     1      35.256  49.253  41.850  1.00  0.00     0.162 HD
BRANCH  11  14
HETATM   14  C   UNL     1      32.747  49.976  41.973  1.00  0.00     0.032 A 
HETATM   15  C   UNL     1      32.572  49.460  40.681  1.00  0.00     0.017 A 
HETATM   16  C   UNL     1      31.429  48.718  40.368  1.00  0.00     0.001 A 
HETATM   17  C   UNL     1      30.462  48.475  41.342  1.00  0.00     0.000 A 
HETATM   18  C   UNL     1      30.635  48.969  42.633  1.00  0.00     0.001 A 
HETATM   19  C   UNL     1      31.772  49.716  42.948  1.00  0.00     0.017 A 
ENDBRANCH  11  14
ENDBRANCH   9  10
ENDBRANCH   8   9
ENDBRANCH   7   8
ENDBRANCH   6   7
ENDBRANCH   5   6
ENDBRANCH   1   5
BRANCH   2  20
HETATM   20  N   UNL     1      32.454  52.674  39.611  1.00  0.00    -0.184 NA
HETATM   21  C   UNL     1      31.480  53.042  40.379  1.00  0.00     0.153 C 
BRANCH  21  22
HETATM   22  C   UNL     1      30.157  52.392  40.265  1.00  0.00     0.016 A 
HETATM   23  C   UNL     1      29.693  51.857  39.055  1.00  0.00     0.080 A 
HETATM   24  C   UNL     1      28.442  51.250  38.986  1.00  0.00     0.074 A 
HETATM   25  C   UNL     1      27.656  51.180  40.132  1.00  0.00     0.068 A 
HETATM   26  C   UNL     1      28.102  51.709  41.340  1.00  0.00     0.037 A 
HETATM   27  C   UNL     1      29.358  52.317  41.410  1.00  0.00     0.018 A 
BRANCH  23  28
HETATM   28  O   UNL     1      30.412  51.889  37.890  1.00  0.00    -0.360 OA
HETATM   29  H   UNL     1      29.813  52.170  37.158  1.00  0.00     0.217 HD
ENDBRANCH  23  28
BRANCH  25  30
HETATM   30  O   UNL     1      26.424  50.595  40.111  1.00  0.00    -0.361 OA
HETATM   31  H   UNL     1      26.407  49.937  39.396  1.00  0.00     0.217 HD
ENDBRANCH  25  30
ENDBRANCH  21  22
ENDBRANCH   2  20
TORSDOF 11
ENDMDL
MODEL 7
REMARK VINA RESULT:      -8.2     12.302     14.990
REMARK  11 active torsions:
REMARK  status: ('A' for Active; 'I' for Inactive)
REMARK    1  A    between atoms: C_4  and  C_5 
REMARK       I    between atoms: C_5  and  N_6 
REMARK    2  A    between atoms: N_6  and  C_7 
REMARK    3  A    between atoms: C_7  and  C_8 
REMARK    4  A    between atoms: C_8  and  C_9 
REMARK    5  A    between atoms: C_9  and  C_10 
REMARK    6  A    between atoms: C_10  and  C_11 
REMARK    7  A    between atoms: C_11  and  C_12 
REMARK       I    between atoms: C_12  and  N_13 
REMARK    8  A    between atoms: N_13  and  N_14 
REMARK    9  A    between atoms: C_15  and  C_16 
REMARK   10  A    between atoms: C_17  and  O_18 
REMARK   11  A    between atoms: C_20  and  O_21 
ROOT
HETATM    1  C   UNL     1      29.057  46.551  40.279  1.00  0.00     0.237 C 
HETATM    2  N   UNL     1      29.106  47.694  41.067  1.00  0.00    -0.247 N 
HETATM    3  O   UNL     1      29.997  46.131  39.610  1.00  0.00    -0.272 OA
HETATM    4  H   UNL     1      28.297  48.000  41.597  1.00  0.00     0.192 HD
ENDROOT
BRANCH   1   5
HETATM    5  C   UNL     1      27.706  45.861  40.341  1.00  0.00     0.105 C 
BRANCH   5   6
HETATM    6  C   UNL     1      26.584  46.780  39.860  1.00  0.00     0.009 C 
BRANCH   6   7
HETATM    7  C   UNL     1      26.837  47.306  38.447  1.00  0.00     0.002 C 
BRANCH   7   8
HETATM    8  C   UNL     1      26.270  48.718  38.287  1.00  0.00     0.020 C 
BRANCH   8   9
HETATM    9  C   UNL     1      26.521  49.574  39.525  1.00  0.00     0.123 C 
BRANCH   9  10
HETATM   10  N   UNL     1      27.805  50.242  39.444  1.00  0.00    -0.357 N 
HETATM   11  C   UNL     1      28.132  51.283  40.291  1.00  0.00     0.251 C 
HETATM   12  O   UNL     1      27.348  51.736  41.118  1.00  0.00    -0.268 OA
HETATM   13  H   UNL     1      28.529  49.783  38.913  1.00  0.00     0.162 HD
BRANCH  11  14
HETATM   14  C   UNL     1      29.516  51.840  40.188  1.00  0.00     0.032 A 
HETATM   15  C   UNL     1      30.484  51.326  39.314  1.00  0.00     0.017 A 
HETATM   16  C   UNL     1      31.760  51.896  39.262  1.00  0.00     0.001 A 
HETATM   17  C   UNL     1      32.073  52.988  40.069  1.00  0.00     0.000 A 
HETATM   18  C   UNL     1      31.113  53.517  40.929  1.00  0.00     0.001 A 
HETATM   19  C   UNL     1      29.840  52.946  40.988  1.00  0.00     0.017 A 
ENDBRANCH  11  14
ENDBRANCH   9  10
ENDBRANCH   8   9
ENDBRANCH   7   8
ENDBRANCH   6   7
ENDBRANCH   5   6
ENDBRANCH   1   5
BRANCH   2  20
HETATM   20  N   UNL     1      30.258  48.412  41.105  1.00  0.00    -0.184 NA
HETATM   21  C   UNL     1      30.622  48.870  42.259  1.00  0.00     0.153 C 
BRANCH  21  22
HETATM   22  C   UNL     1      31.862  49.664  42.385  1.00  0.00     0.016 A 
HETATM   23  C   UNL     1      33.011  49.375  41.636  1.00  0.00     0.080 A 
HETATM   24  C   UNL     1      34.160  50.148  41.780  1.00  0.00     0.074 A 
HETATM   25  C   UNL     1      34.157  51.210  42.678  1.00  0.00     0.068 A 
HETATM   26  C   UNL     1      33.025  51.508  43.431  1.00  0.00     0.037 A 
HETATM   27  C   UNL     1      31.871  50.735  43.286  1.00  0.00     0.018 A 
BRANCH  23  28
HETATM   28  O   UNL     1      33.085  48.347  40.734  1.00  0.00    -0.360 OA
HETATM   29  H   UNL     1      32.448  48.523  40.002  1.00  0.00     0.217 HD
ENDBRANCH  23  28
BRANCH  25  30
HETATM   30  O   UNL     1      35.260  51.994  42.852  1.00  0.00    -0.361 OA
HETATM   31  H   UNL     1      36.025  51.417  43.014  1.00  0.00     0.217 HD
ENDBRANCH  25  30
ENDBRANCH  21  22
ENDBRANCH   2  20
TORSDOF 11
ENDMDL
MODEL 8
REMARK VINA RESULT:      -8.1      1.939      2.230
REMARK  11 active torsions:
REMARK  status: ('A' for Active; 'I' for Inactive)
REMARK    1  A    between atoms: C_4  and  C_5 
REMARK       I    between atoms: C_5  and  N_6 
REMARK    2  A    between atoms: N_6  and  C_7 
REMARK    3  A    between atoms: C_7  and  C_8 
REMARK    4  A    between atoms: C_8  and  C_9 
REMARK    5  A    between atoms: C_9  and  C_10 
REMARK    6  A    between atoms: C_10  and  C_11 
REMARK    7  A    between atoms: C_11  and  C_12 
REMARK       I    between atoms: C_12  and  N_13 
REMARK    8  A    between atoms: N_13  and  N_14 
REMARK    9  A    between atoms: C_15  and  C_16 
REMARK   10  A    between atoms: C_17  and  O_18 
REMARK   11  A    between atoms: C_20  and  O_21 
ROOT
HETATM    1  C   UNL     1      23.937  48.214  49.548  1.00  0.00     0.237 C 
HETATM    2  N   UNL     1      22.594  47.860  49.529  1.00  0.00    -0.247 N 
HETATM    3  O   UNL     1      24.414  49.155  48.920  1.00  0.00    -0.272 OA
HETATM    4  H   UNL     1      22.253  47.069  50.064  1.00  0.00     0.192 HD
ENDROOT
BRANCH   1   5
HETATM    5  C   UNL     1      24.763  47.309  50.445  1.00  0.00     0.105 C 
BRANCH   5   6
HETATM    6  C   UNL     1      26.257  47.446  50.158  1.00  0.00     0.009 C 
BRANCH   6   7
HETATM    7  C   UNL     1      26.881  46.124  49.712  1.00  0.00     0.002 C 
BRANCH   7   8
HETATM    8  C   UNL     1      26.010  44.942  50.140  1.00  0.00     0.020 C 
BRANCH   8   9
HETATM    9  C   UNL     1      26.851  43.770  50.639  1.00  0.00     0.123 C 
BRANCH   9  10
HETATM   10  N   UNL     1      27.613  44.141  51.816  1.00  0.00    -0.357 N 
HETATM   11  C   UNL     1      27.953  43.210  52.779  1.00  0.00     0.251 C 
HETATM   12  O   UNL     1      27.592  42.039  52.726  1.00  0.00    -0.268 OA
HETATM   13  H   UNL     1      28.076  45.036  51.800  1.00  0.00     0.162 HD
BRANCH  11  14
HETATM   14  C   UNL     1      28.820  43.677  53.905  1.00  0.00     0.032 A 
HETATM   15  C   UNL     1      29.943  42.966  54.350  1.00  0.00     0.017 A 
HETATM   16  C   UNL     1      30.715  43.459  55.407  1.00  0.00     0.001 A 
HETATM   17  C   UNL     1      30.381  44.668  56.015  1.00  0.00     0.000 A 
HETATM   18  C   UNL     1      29.276  45.390  55.569  1.00  0.00     0.001 A 
HETATM   19  C   UNL     1      28.499  44.897  54.518  1.00  0.00     0.017 A 
ENDBRANCH  11  14
ENDBRANCH   9  10
ENDBRANCH   8   9
ENDBRANCH   7   8
ENDBRANCH   6   7
ENDBRANCH   5   6
ENDBRANCH   1   5
BRANCH   2  20
HETATM   20  N   UNL     1      21.738  48.587  48.766  1.00  0.00    -0.184 NA
HETATM   21  C   UNL     1      21.040  49.492  49.372  1.00  0.00     0.153 C 
BRANCH  21  22
HETATM   22  C   UNL     1      20.082  50.323  48.613  1.00  0.00     0.016 A 
HETATM   23  C   UNL     1      19.374  49.824  47.511  1.00  0.00     0.080 A 
HETATM   24  C   UNL     1      18.477  50.636  46.821  1.00  0.00     0.074 A 
HETATM   25  C   UNL     1      18.292  51.951  47.238  1.00  0.00     0.068 A 
HETATM   26  C   UNL     1      18.989  52.461  48.330  1.00  0.00     0.037 A 
HETATM   27  C   UNL     1      19.888  51.647  49.023  1.00  0.00     0.018 A 
BRANCH  23  28
HETATM   28  O   UNL     1      19.506  48.543  47.046  1.00  0.00    -0.360 OA
HETATM   29  H   UNL     1      19.530  47.929  47.817  1.00  0.00     0.217 HD
ENDBRANCH  23  28
BRANCH  25  30
HETATM   30  O   UNL     1      17.424  52.783  46.594  1.00  0.00    -0.361 OA
HETATM   31  H   UNL     1      17.759  52.941  45.695  1.00  0.00     0.217 HD
ENDBRANCH  25  30
ENDBRANCH  21  22
ENDBRANCH   2  20
TORSDOF 11
ENDMDL
MODEL 9
REMARK VINA RESULT:      -8.0      2.615      2.751
REMARK  11 active torsions:
REMARK  status: ('A' for Active; 'I' for Inactive)
REMARK    1  A    between atoms: C_4  and  C_5 
REMARK       I    between atoms: C_5  and  N_6 
REMARK    2  A    between atoms: N_6  and  C_7 
REMARK    3  A    between atoms: C_7  and  C_8 
REMARK    4  A    between atoms: C_8  and  C_9 
REMARK    5  A    between atoms: C_9  and  C_10 
REMARK    6  A    between atoms: C_10  and  C_11 
REMARK    7  A    between atoms: C_11  and  C_12 
REMARK       I    between atoms: C_12  and  N_13 
REMARK    8  A    between atoms: N_13  and  N_14 
REMARK    9  A    between atoms: C_15  and  C_16 
REMARK   10  A    between atoms: C_17  and  O_18 
REMARK   11  A    between atoms: C_20  and  O_21 
ROOT
HETATM    1  C   UNL     1      23.656  48.637  49.395  1.00  0.00     0.237 C 
HETATM    2  N   UNL     1      22.779  47.578  49.200  1.00  0.00    -0.247 N 
HETATM    3  O   UNL     1      23.315  49.815  49.456  1.00  0.00    -0.272 OA
HETATM    4  H   UNL     1      23.115  46.622  49.152  1.00  0.00     0.192 HD
ENDROOT
BRANCH   1   5
HETATM    5  C   UNL     1      25.097  48.180  49.535  1.00  0.00     0.105 C 
BRANCH   5   6
HETATM    6  C   UNL     1      25.198  46.878  50.327  1.00  0.00     0.009 C 
BRANCH   6   7
HETATM    7  C   UNL     1      25.883  47.077  51.678  1.00  0.00     0.002 C 
BRANCH   7   8
HETATM    8  C   UNL     1      25.730  45.830  52.552  1.00  0.00     0.020 C 
BRANCH   8   9
HETATM    9  C   UNL     1      25.991  46.134  54.024  1.00  0.00     0.123 C 
BRANCH   9  10
HETATM   10  N   UNL     1      27.128  45.380  54.517  1.00  0.00    -0.357 N 
HETATM   11  C   UNL     1      28.228  46.011  55.066  1.00  0.00     0.251 C 
HETATM   12  O   UNL     1      28.334  47.232  55.121  1.00  0.00    -0.268 OA
HETATM   13  H   UNL     1      26.999  44.391  54.655  1.00  0.00     0.162 HD
BRANCH  11  14
HETATM   14  C   UNL     1      29.305  45.140  55.629  1.00  0.00     0.032 A 
HETATM   15  C   UNL     1      29.749  43.969  55.000  1.00  0.00     0.017 A 
HETATM   16  C   UNL     1      30.764  43.200  55.578  1.00  0.00     0.001 A 
HETATM   17  C   UNL     1      31.351  43.601  56.776  1.00  0.00     0.000 A 
HETATM   18  C   UNL     1      30.929  44.772  57.401  1.00  0.00     0.001 A 
HETATM   19  C   UNL     1      29.911  45.539  56.830  1.00  0.00     0.017 A 
ENDBRANCH  11  14
ENDBRANCH   9  10
ENDBRANCH   8   9
ENDBRANCH   7   8
ENDBRANCH   6   7
ENDBRANCH   5   6
ENDBRANCH   1   5
BRANCH   2  20
HETATM   20  N   UNL     1      21.455  47.843  49.058  1.00  0.00    -0.184 NA
HETATM   21  C   UNL     1      20.753  46.979  48.400  1.00  0.00     0.153 C 
BRANCH  21  22
HETATM   22  C   UNL     1      19.306  47.196  48.197  1.00  0.00     0.016 A 
HETATM   23  C   UNL     1      18.451  47.543  49.252  1.00  0.00     0.080 A 
HETATM   24  C   UNL     1      17.091  47.742  49.023  1.00  0.00     0.074 A 
HETATM   25  C   UNL     1      16.591  47.591  47.734  1.00  0.00     0.068 A 
HETATM   26  C   UNL     1      17.427  47.245  46.676  1.00  0.00     0.037 A 
HETATM   27  C   UNL     1      18.791  47.047  46.905  1.00  0.00     0.018 A 
BRANCH  23  28
HETATM   28  O   UNL     1      18.873  47.708  50.544  1.00  0.00    -0.360 OA
HETATM   29  H   UNL     1      18.120  48.046  51.082  1.00  0.00     0.217 HD
ENDBRANCH  23  28
BRANCH  25  30
HETATM   30  O   UNL     1      15.267  47.777  47.462  1.00  0.00    -0.361 OA
HETATM   31  H   UNL     1      15.109  48.727  47.331  1.00  0.00     0.217 HD
ENDBRANCH  25  30
ENDBRANCH  21  22
ENDBRANCH   2  20
TORSDOF 11
ENDMDL
MODEL 10
REMARK VINA RESULT:      -7.9      1.899      2.449
REMARK  11 active torsions:
REMARK  status: ('A' for Active; 'I' for Inactive)
REMARK    1  A    between atoms: C_4  and  C_5 
REMARK       I    between atoms: C_5  and  N_6 
REMARK    2  A    between atoms: N_6  and  C_7 
REMARK    3  A    between atoms: C_7  and  C_8 
REMARK    4  A    between atoms: C_8  and  C_9 
REMARK    5  A    between atoms: C_9  and  C_10 
REMARK    6  A    between atoms: C_10  and  C_11 
REMARK    7  A    between atoms: C_11  and  C_12 
REMARK       I    between atoms: C_12  and  N_13 
REMARK    8  A    between atoms: N_13  and  N_14 
REMARK    9  A    between atoms: C_15  and  C_16 
REMARK   10  A    between atoms: C_17  and  O_18 
REMARK   11  A    between atoms: C_20  and  O_21 
ROOT
HETATM    1  C   UNL     1      24.615  47.515  49.792  1.00  0.00     0.237 C 
HETATM    2  N   UNL     1      23.282  47.400  49.417  1.00  0.00    -0.247 N 
HETATM    3  O   UNL     1      25.212  48.581  49.907  1.00  0.00    -0.272 OA
HETATM    4  H   UNL     1      22.838  46.492  49.332  1.00  0.00     0.192 HD
ENDROOT
BRANCH   1   5
HETATM    5  C   UNL     1      25.261  46.167  50.057  1.00  0.00     0.105 C 
BRANCH   5   6
HETATM    6  C   UNL     1      24.299  45.213  50.762  1.00  0.00     0.009 C 
BRANCH   6   7
HETATM    7  C   UNL     1      24.720  44.931  52.204  1.00  0.00     0.002 C 
BRANCH   7   8
HETATM    8  C   UNL     1      26.151  45.412  52.454  1.00  0.00     0.020 C 
BRANCH   8   9
HETATM    9  C   UNL     1      26.320  45.979  53.860  1.00  0.00     0.123 C 
BRANCH   9  10
HETATM   10  N   UNL     1      27.411  45.325  54.557  1.00  0.00    -0.357 N 
HETATM   11  C   UNL     1      28.459  46.047  55.096  1.00  0.00     0.251 C 
HETATM   12  O   UNL     1      28.558  47.263  54.974  1.00  0.00    -0.268 OA
HETATM   13  H   UNL     1      27.271  44.366  54.832  1.00  0.00     0.162 HD
BRANCH  11  14
HETATM   14  C   UNL     1      29.484  45.286  55.874  1.00  0.00     0.032 A 
HETATM   15  C   UNL     1      29.928  45.682  57.144  1.00  0.00     0.017 A 
HETATM   16  C   UNL     1      30.887  44.923  57.822  1.00  0.00     0.001 A 
HETATM   17  C   UNL     1      31.398  43.761  57.247  1.00  0.00     0.000 A 
HETATM   18  C   UNL     1      30.950  43.350  55.993  1.00  0.00     0.001 A 
HETATM   19  C   UNL     1      29.997  44.109  55.309  1.00  0.00     0.017 A 
ENDBRANCH  11  14
ENDBRANCH   9  10
ENDBRANCH   8   9
ENDBRANCH   7   8
ENDBRANCH   6   7
ENDBRANCH   5   6
ENDBRANCH   1   5
BRANCH   2  20
HETATM   20  N   UNL     1      22.580  48.531  49.148  1.00  0.00    -0.184 NA
HETATM   21  C   UNL     1      21.319  48.389  48.899  1.00  0.00     0.153 C 
BRANCH  21  22
HETATM   22  C   UNL     1      20.484  49.570  48.593  1.00  0.00     0.016 A 
HETATM   23  C   UNL     1      19.692  49.642  47.438  1.00  0.00     0.080 A 
HETATM   24  C   UNL     1      18.916  50.770  47.183  1.00  0.00     0.074 A 
HETATM   25  C   UNL     1      18.937  51.827  48.087  1.00  0.00     0.068 A 
HETATM   26  C   UNL     1      19.720  51.772  49.237  1.00  0.00     0.037 A 
HETATM   27  C   UNL     1      20.497  50.640  49.494  1.00  0.00     0.018 A 
BRANCH  23  28
HETATM   28  O   UNL     1      19.623  48.640  46.507  1.00  0.00    -0.360 OA
HETATM   29  H   UNL     1      20.220  48.867  45.755  1.00  0.00     0.217 HD
ENDBRANCH  23  28
BRANCH  25  30
HETATM   30  O   UNL     1      18.194  52.951  47.879  1.00  0.00    -0.361 OA
HETATM   31  H   UNL     1      18.658  53.513  47.236  1.00  0.00     0.217 HD
ENDBRANCH  25  30
ENDBRANCH  21  22
ENDBRANCH   2  20
TORSDOF 11
ENDMDL
