MODEL 1
REMARK VINA RESULT:      -8.9      0.000      0.000
REMARK  10 active torsions:
REMARK  status: ('A' for Active; 'I' for Inactive)
REMARK    1  A    between atoms: C_2  and  O_3 
REMARK    2  A    between atoms: O_3  and  C_4 
REMARK    3  A    between atoms: C_7  and  C_8 
REMARK    4  A    between atoms: C_8  and  C_9 
REMARK    5  A    between atoms: C_10  and  C_11 
REMARK    6  A    between atoms: C_13  and  N_14 
REMARK    7  A    between atoms: N_20  and  C_21 
REMARK    8  A    between atoms: C_21  and  C_22 
REMARK    9  A    between atoms: C_22  and  N_23 
REMARK   10  A    between atoms: C_34  and  O_35 
ROOT
HETATM    1  C   UNL     1      25.770  44.294  50.812  1.00  0.00     0.059 C 
HETATM    2  C   UNL     1      26.317  45.639  51.176  1.00  0.00     0.161 C 
HETATM    3  N   UNL     1      26.006  45.689  52.604  1.00  0.00    -0.332 N 
HETATM    4  C   UNL     1      25.181  44.647  52.973  1.00  0.00     0.278 C 
HETATM    5  O   UNL     1      24.672  44.516  54.073  1.00  0.00    -0.265 OA
HETATM    6  C   UNL     1      25.094  43.727  51.825  1.00  0.00     0.146 C 
ENDROOT
BRANCH   1   7
HETATM    7  C   UNL     1      25.840  43.603  49.510  1.00  0.00     0.193 C 
HETATM    8  O   UNL     1      26.938  43.241  49.090  1.00  0.00    -0.287 OA
BRANCH   7   9
HETATM    9  C   UNL     1      24.624  43.284  48.730  1.00  0.00     0.015 A 
HETATM   10  C   UNL     1      24.143  41.982  48.563  1.00  0.00     0.018 A 
HETATM   11  C   UNL     1      22.965  41.753  47.834  1.00  0.00     0.038 A 
HETATM   12  C   UNL     1      22.238  42.824  47.316  1.00  0.00     0.069 A 
HETATM   13  C   UNL     1      22.714  44.124  47.507  1.00  0.00     0.038 A 
HETATM   14  C   UNL     1      23.896  44.358  48.212  1.00  0.00     0.018 A 
BRANCH  12  15
HETATM   15  O   UNL     1      21.063  42.764  46.629  1.00  0.00    -0.347 OA
BRANCH  15  16
HETATM   16  C   UNL     1      20.483  43.947  46.075  1.00  0.00     0.120 C 
HETATM   17  C   UNL     1      19.088  44.128  46.662  1.00  0.00     0.040 C 
HETATM   18  C   UNL     1      20.407  43.743  44.564  1.00  0.00     0.040 C 
ENDBRANCH  15  16
ENDBRANCH  12  15
ENDBRANCH   7   9
ENDBRANCH   1   7
BRANCH   2  19
HETATM   19  C   UNL     1      25.717  46.811  50.421  1.00  0.00    -0.028 A 
HETATM   20  C   UNL     1      26.572  47.737  49.800  1.00  0.00     0.045 A 
HETATM   21  C   UNL     1      26.046  48.840  49.105  1.00  0.00     0.103 A 
HETATM   22  C   UNL     1      24.665  49.029  49.009  1.00  0.00     0.036 A 
HETATM   23  C   UNL     1      23.811  48.115  49.625  1.00  0.00     0.003 A 
HETATM   24  C   UNL     1      24.330  47.024  50.332  1.00  0.00     0.010 A 
BRANCH  21  25
HETATM   25  N   UNL     1      26.964  49.819  48.509  1.00  0.00    -0.116 N 
HETATM   26  O   UNL     1      26.489  50.588  47.661  1.00  0.00    -0.532 OA
HETATM   27  O   UNL     1      28.149  49.788  48.858  1.00  0.00    -0.532 OA
ENDBRANCH  21  25
ENDBRANCH   2  19
BRANCH   6  28
HETATM   28  O   UNL     1      24.432  42.537  51.868  1.00  0.00    -0.355 OA
HETATM   29  H   UNL     1      23.482  42.730  52.049  1.00  0.00     0.218 HD
ENDBRANCH   6  28
BRANCH   3  30
HETATM   30  C   UNL     1      26.340  46.807  53.477  1.00  0.00     0.155 C 
BRANCH  30  31
HETATM   31  C   UNL     1      27.722  46.652  54.177  1.00  0.00     0.254 C 
BRANCH  31  32
HETATM   32  N   UNL     1      27.729  45.585  55.283  1.00  0.00    -0.066 N 
HETATM   33  H   UNL     1      26.745  45.525  55.595  1.00  0.00     0.280 HD
HETATM   34  C   UNL     1      28.529  46.014  56.521  1.00  0.00     0.262 C 
HETATM   35  C   UNL     1      30.053  45.805  56.344  1.00  0.00     0.260 C 
HETATM   36  N   UNL     1      30.363  44.389  55.936  1.00  0.00    -0.072 N 
HETATM   37  H   UNL     1      30.190  43.724  56.706  1.00  0.00     0.277 HD
HETATM   38  H   UNL     1      31.379  44.307  55.757  1.00  0.00     0.277 HD
HETATM   39  C   UNL     1      29.638  43.961  54.680  1.00  0.00     0.260 C 
HETATM   40  C   UNL     1      28.108  44.165  54.825  1.00  0.00     0.262 C 
ENDBRANCH  31  32
ENDBRANCH  30  31
ENDBRANCH   3  30
TORSDOF 10
ENDMDL
MODEL 2
REMARK VINA RESULT:      -8.9      3.684      6.525
REMARK  10 active torsions:
REMARK  status: ('A' for Active; 'I' for Inactive)
REMARK    1  A    between atoms: C_2  and  O_3 
REMARK    2  A    between atoms: O_3  and  C_4 
REMARK    3  A    between atoms: C_7  and  C_8 
REMARK    4  A    between atoms: C_8  and  C_9 
REMARK    5  A    between atoms: C_10  and  C_11 
REMARK    6  A    between atoms: C_13  and  N_14 
REMARK    7  A    between atoms: N_20  and  C_21 
REMARK    8  A    between atoms: C_21  and  C_22 
REMARK    9  A    between atoms: C_22  and  N_23 
REMARK   10  A    between atoms: C_34  and  O_35 
ROOT
HETATM    1  C   UNL     1      24.084  49.175  48.686  1.00  0.00     0.059 C 
HETATM    2  C   UNL     1      23.875  48.014  49.607  1.00  0.00     0.161 C 
HETATM    3  N   UNL     1      25.253  47.716  49.995  1.00  0.00    -0.332 N 
HETATM    4  C   UNL     1      26.154  48.426  49.228  1.00  0.00     0.278 C 
HETATM    5  O   UNL     1      27.363  48.279  49.258  1.00  0.00    -0.265 OA
HETATM    6  C   UNL     1      25.384  49.405  48.440  1.00  0.00     0.146 C 
ENDROOT
BRANCH   1   7
HETATM    7  C   UNL     1      23.062  49.999  48.012  1.00  0.00     0.193 C 
HETATM    8  O   UNL     1      23.320  50.477  46.908  1.00  0.00    -0.287 OA
BRANCH   7   9
HETATM    9  C   UNL     1      21.723  50.217  48.600  1.00  0.00     0.015 A 
HETATM   10  C   UNL     1      21.524  50.808  49.851  1.00  0.00     0.018 A 
HETATM   11  C   UNL     1      20.223  51.012  50.336  1.00  0.00     0.038 A 
HETATM   12  C   UNL     1      19.118  50.674  49.555  1.00  0.00     0.069 A 
HETATM   13  C   UNL     1      19.325  50.105  48.296  1.00  0.00     0.038 A 
HETATM   14  C   UNL     1      20.616  49.879  47.815  1.00  0.00     0.018 A 
BRANCH  12  15
HETATM   15  O   UNL     1      17.805  50.851  49.869  1.00  0.00    -0.347 OA
BRANCH  15  16
HETATM   16  C   UNL     1      16.990  51.751  49.113  1.00  0.00     0.120 C 
HETATM   17  C   UNL     1      16.565  52.903  50.017  1.00  0.00     0.040 C 
HETATM   18  C   UNL     1      15.772  50.963  48.639  1.00  0.00     0.040 C 
ENDBRANCH  15  16
ENDBRANCH  12  15
ENDBRANCH   7   9
ENDBRANCH   1   7
BRANCH   2  19
HETATM   19  C   UNL     1      23.183  46.812  48.991  1.00  0.00    -0.028 A 
HETATM   20  C   UNL     1      23.276  45.564  49.631  1.00  0.00     0.045 A 
HETATM   21  C   UNL     1      22.657  44.430  49.077  1.00  0.00     0.103 A 
HETATM   22  C   UNL     1      21.931  44.524  47.888  1.00  0.00     0.036 A 
HETATM   23  C   UNL     1      21.837  45.758  47.246  1.00  0.00     0.003 A 
HETATM   24  C   UNL     1      22.465  46.888  47.784  1.00  0.00     0.010 A 
BRANCH  21  25
HETATM   25  N   UNL     1      22.813  43.130  49.742  1.00  0.00    -0.116 N 
HETATM   26  O   UNL     1      23.259  43.142  50.899  1.00  0.00    -0.532 OA
HETATM   27  O   UNL     1      22.530  42.114  49.099  1.00  0.00    -0.532 OA
ENDBRANCH  21  25
ENDBRANCH   2  19
BRANCH   6  28
HETATM   28  O   UNL     1      25.963  50.340  47.636  1.00  0.00    -0.355 OA
HETATM   29  H   UNL     1      26.912  50.410  47.895  1.00  0.00     0.218 HD
ENDBRANCH   6  28
BRANCH   3  30
HETATM   30  C   UNL     1      25.634  46.651  50.914  1.00  0.00     0.155 C 
BRANCH  30  31
HETATM   31  C   UNL     1      26.080  47.172  52.311  1.00  0.00     0.254 C 
BRANCH  31  32
HETATM   32  N   UNL     1      25.832  46.164  53.445  1.00  0.00    -0.066 N 
HETATM   33  H   UNL     1      24.810  46.183  53.593  1.00  0.00     0.280 HD
HETATM   34  C   UNL     1      26.449  46.606  54.780  1.00  0.00     0.262 C 
HETATM   35  C   UNL     1      27.964  46.292  54.866  1.00  0.00     0.260 C 
HETATM   36  N   UNL     1      28.235  44.841  54.572  1.00  0.00    -0.072 N 
HETATM   37  H   UNL     1      27.893  44.228  55.329  1.00  0.00     0.277 HD
HETATM   38  H   UNL     1      29.259  44.686  54.567  1.00  0.00     0.277 HD
HETATM   39  C   UNL     1      27.696  44.395  53.231  1.00  0.00     0.260 C 
HETATM   40  C   UNL     1      26.180  44.701  53.114  1.00  0.00     0.262 C 
ENDBRANCH  31  32
ENDBRANCH  30  31
ENDBRANCH   3  30
TORSDOF 10
ENDMDL
MODEL 3
REMARK VINA RESULT:      -8.9      4.088      6.874
REMARK  10 active torsions:
REMARK  status: ('A' for Active; 'I' for Inactive)
REMARK    1  A    between atoms: C_2  and  O_3 
REMARK    2  A    between atoms: O_3  and  C_4 
REMARK    3  A    between atoms: C_7  and  C_8 
REMARK    4  A    between atoms: C_8  and  C_9 
REMARK    5  A    between atoms: C_10  and  C_11 
REMARK    6  A    between atoms: C_13  and  N_14 
REMARK    7  A    between atoms: N_20  and  C_21 
REMARK    8  A    between atoms: C_21  and  C_22 
REMARK    9  A    between atoms: C_22  and  N_23 
REMARK   10  A    between atoms: C_34  and  O_35 
ROOT
HETATM    1  C   UNL     1      24.017  49.084  48.835  1.00  0.00     0.059 C 
HETATM    2  C   UNL     1      23.416  47.912  49.545  1.00  0.00     0.161 C 
HETATM    3  N   UNL     1      24.619  47.230  50.023  1.00  0.00    -0.332 N 
HETATM    4  C   UNL     1      25.757  47.777  49.468  1.00  0.00     0.278 C 
HETATM    5  O   UNL     1      26.882  47.326  49.598  1.00  0.00    -0.265 OA
HETATM    6  C   UNL     1      25.355  49.006  48.761  1.00  0.00     0.146 C 
ENDROOT
BRANCH   1   7
HETATM    7  C   UNL     1      23.320  50.216  48.192  1.00  0.00     0.193 C 
HETATM    8  O   UNL     1      23.903  50.847  47.311  1.00  0.00    -0.287 OA
BRANCH   7   9
HETATM    9  C   UNL     1      21.927  50.572  48.536  1.00  0.00     0.015 A 
HETATM   10  C   UNL     1      20.886  50.580  47.603  1.00  0.00     0.018 A 
HETATM   11  C   UNL     1      19.580  50.899  48.005  1.00  0.00     0.038 A 
HETATM   12  C   UNL     1      19.299  51.159  49.345  1.00  0.00     0.069 A 
HETATM   13  C   UNL     1      20.340  51.126  50.276  1.00  0.00     0.038 A 
HETATM   14  C   UNL     1      21.646  50.831  49.881  1.00  0.00     0.018 A 
BRANCH  12  15
HETATM   15  O   UNL     1      18.082  51.438  49.891  1.00  0.00    -0.347 OA
BRANCH  15  16
HETATM   16  C   UNL     1      17.068  52.083  49.115  1.00  0.00     0.120 C 
HETATM   17  C   UNL     1      16.396  53.146  49.978  1.00  0.00     0.040 C 
HETATM   18  C   UNL     1      16.063  51.008  48.708  1.00  0.00     0.040 C 
ENDBRANCH  15  16
ENDBRANCH  12  15
ENDBRANCH   7   9
ENDBRANCH   1   7
BRANCH   2  19
HETATM   19  C   UNL     1      22.550  47.007  48.688  1.00  0.00    -0.028 A 
HETATM   20  C   UNL     1      21.154  47.044  48.844  1.00  0.00     0.045 A 
HETATM   21  C   UNL     1      20.328  46.208  48.074  1.00  0.00     0.103 A 
HETATM   22  C   UNL     1      20.876  45.334  47.133  1.00  0.00     0.036 A 
HETATM   23  C   UNL     1      22.261  45.290  46.974  1.00  0.00     0.003 A 
HETATM   24  C   UNL     1      23.090  46.109  47.750  1.00  0.00     0.010 A 
BRANCH  21  25
HETATM   25  N   UNL     1      18.876  46.232  48.294  1.00  0.00    -0.116 N 
HETATM   26  O   UNL     1      18.382  47.309  48.662  1.00  0.00    -0.532 OA
HETATM   27  O   UNL     1      18.249  45.179  48.139  1.00  0.00    -0.532 OA
ENDBRANCH  21  25
ENDBRANCH   2  19
BRANCH   6  28
HETATM   28  O   UNL     1      26.243  49.855  48.170  1.00  0.00    -0.355 OA
HETATM   29  H   UNL     1      25.990  50.774  48.423  1.00  0.00     0.218 HD
ENDBRANCH   6  28
BRANCH   3  30
HETATM   30  C   UNL     1      24.608  46.001  50.805  1.00  0.00     0.155 C 
BRANCH  30  31
HETATM   31  C   UNL     1      25.206  46.172  52.232  1.00  0.00     0.254 C 
BRANCH  31  32
HETATM   32  N   UNL     1      26.636  45.626  52.363  1.00  0.00    -0.066 N 
HETATM   33  H   UNL     1      27.241  46.389  52.016  1.00  0.00     0.280 HD
HETATM   34  C   UNL     1      26.906  44.432  51.436  1.00  0.00     0.262 C 
HETATM   35  C   UNL     1      26.370  43.099  52.015  1.00  0.00     0.260 C 
HETATM   36  N   UNL     1      26.894  42.862  53.407  1.00  0.00    -0.072 N 
HETATM   37  H   UNL     1      27.904  42.650  53.403  1.00  0.00     0.277 HD
HETATM   38  H   UNL     1      26.459  42.003  53.786  1.00  0.00     0.277 HD
HETATM   39  C   UNL     1      26.584  43.995  54.359  1.00  0.00     0.260 C 
HETATM   40  C   UNL     1      27.104  45.345  53.803  1.00  0.00     0.262 C 
ENDBRANCH  31  32
ENDBRANCH  30  31
ENDBRANCH   3  30
TORSDOF 10
ENDMDL
MODEL 4
REMARK VINA RESULT:      -8.9     11.075     15.351
REMARK  10 active torsions:
REMARK  status: ('A' for Active; 'I' for Inactive)
REMARK    1  A    between atoms: C_2  and  O_3 
REMARK    2  A    between atoms: O_3  and  C_4 
REMARK    3  A    between atoms: C_7  and  C_8 
REMARK    4  A    between atoms: C_8  and  C_9 
REMARK    5  A    between atoms: C_10  and  C_11 
REMARK    6  A    between atoms: C_13  and  N_14 
REMARK    7  A    between atoms: N_20  and  C_21 
REMARK    8  A    between atoms: C_21  and  C_22 
REMARK    9  A    between atoms: C_22  and  N_23 
REMARK   10  A    between atoms: C_34  and  O_35 
ROOT
HETATM    1  C   UNL     1      34.040  50.629  41.596  1.00  0.00     0.059 C 
HETATM    2  C   UNL     1      32.660  50.675  42.173  1.00  0.00     0.161 C 
HETATM    3  N   UNL     1      32.307  49.255  42.162  1.00  0.00    -0.332 N 
HETATM    4  C   UNL     1      33.234  48.515  41.457  1.00  0.00     0.278 C 
HETATM    5  O   UNL     1      33.123  47.331  41.189  1.00  0.00    -0.265 OA
HETATM    6  C   UNL     1      34.371  49.404  41.159  1.00  0.00     0.146 C 
ENDROOT
BRANCH   1   7
HETATM    7  C   UNL     1      34.989  51.745  41.414  1.00  0.00     0.193 C 
HETATM    8  O   UNL     1      34.877  52.462  40.421  1.00  0.00    -0.287 OA
BRANCH   7   9
HETATM    9  C   UNL     1      36.029  52.056  42.418  1.00  0.00     0.015 A 
HETATM   10  C   UNL     1      37.385  52.177  42.102  1.00  0.00     0.018 A 
HETATM   11  C   UNL     1      38.317  52.504  43.101  1.00  0.00     0.038 A 
HETATM   12  C   UNL     1      37.891  52.761  44.403  1.00  0.00     0.069 A 
HETATM   13  C   UNL     1      36.531  52.660  44.707  1.00  0.00     0.038 A 
HETATM   14  C   UNL     1      35.602  52.315  43.724  1.00  0.00     0.018 A 
BRANCH  12  15
HETATM   15  O   UNL     1      38.665  53.130  45.462  1.00  0.00    -0.347 OA
BRANCH  15  16
HETATM   16  C   UNL     1      38.213  54.128  46.381  1.00  0.00     0.120 C 
HETATM   17  C   UNL     1      38.989  55.415  46.125  1.00  0.00     0.040 C 
HETATM   18  C   UNL     1      38.494  53.603  47.787  1.00  0.00     0.040 C 
ENDBRANCH  15  16
ENDBRANCH  12  15
ENDBRANCH   7   9
ENDBRANCH   1   7
BRANCH   2  19
HETATM   19  C   UNL     1      31.660  51.516  41.400  1.00  0.00    -0.028 A 
HETATM   20  C   UNL     1      31.441  51.244  40.039  1.00  0.00     0.045 A 
HETATM   21  C   UNL     1      30.531  52.015  39.295  1.00  0.00     0.103 A 
HETATM   22  C   UNL     1      29.822  53.057  39.895  1.00  0.00     0.036 A 
HETATM   23  C   UNL     1      30.036  53.335  41.245  1.00  0.00     0.003 A 
HETATM   24  C   UNL     1      30.953  52.581  41.987  1.00  0.00     0.010 A 
BRANCH  21  25
HETATM   25  N   UNL     1      30.360  51.739  37.863  1.00  0.00    -0.116 N 
HETATM   26  O   UNL     1      31.336  51.265  37.262  1.00  0.00    -0.532 OA
HETATM   27  O   UNL     1      29.277  52.031  37.343  1.00  0.00    -0.532 OA
ENDBRANCH  21  25
ENDBRANCH   2  19
BRANCH   6  28
HETATM   28  O   UNL     1      35.514  48.979  40.550  1.00  0.00    -0.355 OA
HETATM   29  H   UNL     1      36.191  48.835  41.254  1.00  0.00     0.218 HD
ENDBRANCH   6  28
BRANCH   3  30
HETATM   30  C   UNL     1      31.038  48.722  42.640  1.00  0.00     0.155 C 
BRANCH  30  31
HETATM   31  C   UNL     1      30.067  48.318  41.492  1.00  0.00     0.254 C 
BRANCH  31  32
HETATM   32  N   UNL     1      28.584  48.431  41.879  1.00  0.00    -0.066 N 
HETATM   33  H   UNL     1      28.561  48.221  42.891  1.00  0.00     0.280 HD
HETATM   34  C   UNL     1      27.710  47.358  41.215  1.00  0.00     0.262 C 
HETATM   35  C   UNL     1      27.332  47.720  39.758  1.00  0.00     0.260 C 
HETATM   36  N   UNL     1      26.701  49.086  39.684  1.00  0.00    -0.072 N 
HETATM   37  H   UNL     1      25.761  49.094  40.109  1.00  0.00     0.277 HD
HETATM   38  H   UNL     1      26.530  49.322  38.690  1.00  0.00     0.277 HD
HETATM   39  C   UNL     1      27.571  50.174  40.272  1.00  0.00     0.260 C 
HETATM   40  C   UNL     1      27.971  49.836  41.732  1.00  0.00     0.262 C 
ENDBRANCH  31  32
ENDBRANCH  30  31
ENDBRANCH   3  30
TORSDOF 10
ENDMDL
MODEL 5
REMARK VINA RESULT:      -8.8     10.309     14.293
REMARK  10 active torsions:
REMARK  status: ('A' for Active; 'I' for Inactive)
REMARK    1  A    between atoms: C_2  and  O_3 
REMARK    2  A    between atoms: O_3  and  C_4 
REMARK    3  A    between atoms: C_7  and  C_8 
REMARK    4  A    between atoms: C_8  and  C_9 
REMARK    5  A    between atoms: C_10  and  C_11 
REMARK    6  A    between atoms: C_13  and  N_14 
REMARK    7  A    between atoms: N_20  and  C_21 
REMARK    8  A    between atoms: C_21  and  C_22 
REMARK    9  A    between atoms: C_22  and  N_23 
REMARK   10  A    between atoms: C_34  and  O_35 
ROOT
HETATM    1  C   UNL     1      28.391  50.139  38.360  1.00  0.00     0.059 C 
HETATM    2  C   UNL     1      29.118  48.864  38.652  1.00  0.00     0.161 C 
HETATM    3  N   UNL     1      28.034  47.890  38.517  1.00  0.00    -0.332 N 
HETATM    4  C   UNL     1      26.810  48.516  38.411  1.00  0.00     0.278 C 
HETATM    5  O   UNL     1      25.733  47.945  38.409  1.00  0.00    -0.265 OA
HETATM    6  C   UNL     1      27.065  49.958  38.245  1.00  0.00     0.146 C 
ENDROOT
BRANCH   1   7
HETATM    7  C   UNL     1      28.948  51.503  38.255  1.00  0.00     0.193 C 
HETATM    8  O   UNL     1      28.292  52.367  37.675  1.00  0.00    -0.287 OA
BRANCH   7   9
HETATM    9  C   UNL     1      30.239  51.868  38.877  1.00  0.00     0.015 A 
HETATM   10  C   UNL     1      30.342  52.426  40.154  1.00  0.00     0.018 A 
HETATM   11  C   UNL     1      31.603  52.722  40.696  1.00  0.00     0.038 A 
HETATM   12  C   UNL     1      32.764  52.413  39.988  1.00  0.00     0.069 A 
HETATM   13  C   UNL     1      32.653  51.833  38.721  1.00  0.00     0.038 A 
HETATM   14  C   UNL     1      31.402  51.556  38.167  1.00  0.00     0.018 A 
BRANCH  12  15
HETATM   15  O   UNL     1      34.049  52.598  40.397  1.00  0.00    -0.347 OA
BRANCH  15  16
HETATM   16  C   UNL     1      35.134  52.456  39.476  1.00  0.00     0.120 C 
HETATM   17  C   UNL     1      36.139  51.466  40.054  1.00  0.00     0.040 C 
HETATM   18  C   UNL     1      35.770  53.835  39.318  1.00  0.00     0.040 C 
ENDBRANCH  15  16
ENDBRANCH  12  15
ENDBRANCH   7   9
ENDBRANCH   1   7
BRANCH   2  19
HETATM   19  C   UNL     1      29.783  48.793  40.014  1.00  0.00    -0.028 A 
HETATM   20  C   UNL     1      31.143  48.448  40.096  1.00  0.00     0.045 A 
HETATM   21  C   UNL     1      31.782  48.361  41.345  1.00  0.00     0.103 A 
HETATM   22  C   UNL     1      31.082  48.624  42.524  1.00  0.00     0.036 A 
HETATM   23  C   UNL     1      29.732  48.965  42.450  1.00  0.00     0.003 A 
HETATM   24  C   UNL     1      29.086  49.038  41.211  1.00  0.00     0.010 A 
BRANCH  21  25
HETATM   25  N   UNL     1      33.191  47.950  41.403  1.00  0.00    -0.116 N 
HETATM   26  O   UNL     1      34.041  48.832  41.210  1.00  0.00    -0.532 OA
HETATM   27  O   UNL     1      33.438  46.755  41.601  1.00  0.00    -0.532 OA
ENDBRANCH  21  25
ENDBRANCH   2  19
BRANCH   6  28
HETATM   28  O   UNL     1      26.081  50.872  38.018  1.00  0.00    -0.355 OA
HETATM   29  H   UNL     1      25.601  51.011  38.869  1.00  0.00     0.218 HD
ENDBRANCH   6  28
BRANCH   3  30
HETATM   30  C   UNL     1      28.198  46.453  38.693  1.00  0.00     0.155 C 
BRANCH  30  31
HETATM   31  C   UNL     1      27.779  45.952  40.106  1.00  0.00     0.254 C 
BRANCH  31  32
HETATM   32  N   UNL     1      26.348  45.394  40.156  1.00  0.00    -0.066 N 
HETATM   33  H   UNL     1      25.851  45.881  39.392  1.00  0.00     0.280 HD
HETATM   34  C   UNL     1      25.603  45.778  41.442  1.00  0.00     0.262 C 
HETATM   35  C   UNL     1      25.974  44.865  42.637  1.00  0.00     0.260 C 
HETATM   36  N   UNL     1      25.787  43.412  42.289  1.00  0.00    -0.072 N 
HETATM   37  H   UNL     1      24.788  43.169  42.195  1.00  0.00     0.277 HD
HETATM   38  H   UNL     1      26.112  42.833  43.083  1.00  0.00     0.277 HD
HETATM   39  C   UNL     1      26.563  42.990  41.062  1.00  0.00     0.260 C 
HETATM   40  C   UNL     1      26.216  43.891  39.849  1.00  0.00     0.262 C 
ENDBRANCH  31  32
ENDBRANCH  30  31
ENDBRANCH   3  30
TORSDOF 10
ENDMDL
MODEL 6
REMARK VINA RESULT:      -8.6     11.899     14.813
REMARK  10 active torsions:
REMARK  status: ('A' for Active; 'I' for Inactive)
REMARK    1  A    between atoms: C_2  and  O_3 
REMARK    2  A    between atoms: O_3  and  C_4 
REMARK    3  A    between atoms: C_7  and  C_8 
REMARK    4  A    between atoms: C_8  and  C_9 
REMARK    5  A    between atoms: C_10  and  C_11 
REMARK    6  A    between atoms: C_13  and  N_14 
REMARK    7  A    between atoms: N_20  and  C_21 
REMARK    8  A    between atoms: C_21  and  C_22 
REMARK    9  A    between atoms: C_22  and  N_23 
REMARK   10  A    between atoms: C_34  and  O_35 
ROOT
HETATM    1  C   UNL     1      35.437  52.370  40.383  1.00  0.00     0.059 C 
HETATM    2  C   UNL     1      35.242  52.190  41.856  1.00  0.00     0.161 C 
HETATM    3  N   UNL     1      36.540  51.635  42.242  1.00  0.00    -0.332 N 
HETATM    4  C   UNL     1      37.291  51.304  41.134  1.00  0.00     0.278 C 
HETATM    5  O   UNL     1      38.358  50.715  41.165  1.00  0.00    -0.265 OA
HETATM    6  C   UNL     1      36.595  51.844  39.953  1.00  0.00     0.146 C 
ENDROOT
BRANCH   1   7
HETATM    7  C   UNL     1      34.508  52.974  39.408  1.00  0.00     0.193 C 
HETATM    8  O   UNL     1      34.912  53.893  38.697  1.00  0.00    -0.287 OA
BRANCH   7   9
HETATM    9  C   UNL     1      33.131  52.468  39.225  1.00  0.00     0.015 A 
HETATM   10  C   UNL     1      32.814  51.407  38.373  1.00  0.00     0.018 A 
HETATM   11  C   UNL     1      31.488  50.956  38.269  1.00  0.00     0.038 A 
HETATM   12  C   UNL     1      30.486  51.529  39.052  1.00  0.00     0.069 A 
HETATM   13  C   UNL     1      30.816  52.574  39.919  1.00  0.00     0.038 A 
HETATM   14  C   UNL     1      32.128  53.042  40.011  1.00  0.00     0.018 A 
BRANCH  12  15
HETATM   15  O   UNL     1      29.172  51.173  39.095  1.00  0.00    -0.347 OA
BRANCH  15  16
HETATM   16  C   UNL     1      28.791  49.795  39.089  1.00  0.00     0.120 C 
HETATM   17  C   UNL     1      27.487  49.652  38.312  1.00  0.00     0.040 C 
HETATM   18  C   UNL     1      28.597  49.377  40.544  1.00  0.00     0.040 C 
ENDBRANCH  15  16
ENDBRANCH  12  15
ENDBRANCH   7   9
ENDBRANCH   1   7
BRANCH   2  19
HETATM   19  C   UNL     1      34.093  51.282  42.254  1.00  0.00    -0.028 A 
HETATM   20  C   UNL     1      33.902  50.075  41.561  1.00  0.00     0.045 A 
HETATM   21  C   UNL     1      32.838  49.220  41.898  1.00  0.00     0.103 A 
HETATM   22  C   UNL     1      31.959  49.549  42.932  1.00  0.00     0.036 A 
HETATM   23  C   UNL     1      32.141  50.747  43.622  1.00  0.00     0.003 A 
HETATM   24  C   UNL     1      33.190  51.610  43.281  1.00  0.00     0.010 A 
BRANCH  21  25
HETATM   25  N   UNL     1      32.633  47.989  41.125  1.00  0.00    -0.116 N 
HETATM   26  O   UNL     1      31.783  48.028  40.223  1.00  0.00    -0.532 OA
HETATM   27  O   UNL     1      33.285  46.989  41.444  1.00  0.00    -0.532 OA
ENDBRANCH  21  25
ENDBRANCH   2  19
BRANCH   6  28
HETATM   28  O   UNL     1      37.103  51.781  38.690  1.00  0.00    -0.355 OA
HETATM   29  H   UNL     1      37.578  52.629  38.517  1.00  0.00     0.218 HD
ENDBRANCH   6  28
BRANCH   3  30
HETATM   30  C   UNL     1      36.904  51.275  43.606  1.00  0.00     0.155 C 
BRANCH  30  31
HETATM   31  C   UNL     1      36.953  52.493  44.574  1.00  0.00     0.254 C 
BRANCH  31  32
HETATM   32  N   UNL     1      38.376  53.014  44.827  1.00  0.00    -0.066 N 
HETATM   33  H   UNL     1      38.995  52.302  44.403  1.00  0.00     0.280 HD
HETATM   34  C   UNL     1      38.745  53.045  46.317  1.00  0.00     0.262 C 
HETATM   35  C   UNL     1      38.185  54.296  47.040  1.00  0.00     0.260 C 
HETATM   36  N   UNL     1      38.593  55.561  46.331  1.00  0.00    -0.072 N 
HETATM   37  H   UNL     1      39.604  55.745  46.433  1.00  0.00     0.277 HD
HETATM   38  H   UNL     1      38.142  56.367  46.799  1.00  0.00     0.277 HD
HETATM   39  C   UNL     1      38.184  55.585  44.876  1.00  0.00     0.260 C 
HETATM   40  C   UNL     1      38.726  54.340  44.126  1.00  0.00     0.262 C 
ENDBRANCH  31  32
ENDBRANCH  30  31
ENDBRANCH   3  30
TORSDOF 10
ENDMDL
MODEL 7
REMARK VINA RESULT:      -8.6     11.497     14.692
REMARK  10 active torsions:
REMARK  status: ('A' for Active; 'I' for Inactive)
REMARK    1  A    between atoms: C_2  and  O_3 
REMARK    2  A    between atoms: O_3  and  C_4 
REMARK    3  A    between atoms: C_7  and  C_8 
REMARK    4  A    between atoms: C_8  and  C_9 
REMARK    5  A    between atoms: C_10  and  C_11 
REMARK    6  A    between atoms: C_13  and  N_14 
REMARK    7  A    between atoms: N_20  and  C_21 
REMARK    8  A    between atoms: C_21  and  C_22 
REMARK    9  A    between atoms: C_22  and  N_23 
REMARK   10  A    between atoms: C_34  and  O_35 
ROOT
HETATM    1  C   UNL     1      33.569  50.150  40.915  1.00  0.00     0.059 C 
HETATM    2  C   UNL     1      33.077  51.223  39.994  1.00  0.00     0.161 C 
HETATM    3  N   UNL     1      34.127  52.229  40.154  1.00  0.00    -0.332 N 
HETATM    4  C   UNL     1      34.972  51.908  41.195  1.00  0.00     0.278 C 
HETATM    5  O   UNL     1      35.857  52.629  41.622  1.00  0.00    -0.265 OA
HETATM    6  C   UNL     1      34.638  50.540  41.627  1.00  0.00     0.146 C 
ENDROOT
BRANCH   1   7
HETATM    7  C   UNL     1      32.989  48.813  41.149  1.00  0.00     0.193 C 
HETATM    8  O   UNL     1      33.747  47.870  41.373  1.00  0.00    -0.287 OA
BRANCH   7   9
HETATM    9  C   UNL     1      31.528  48.590  41.178  1.00  0.00     0.015 A 
HETATM   10  C   UNL     1      30.733  48.872  42.293  1.00  0.00     0.018 A 
HETATM   11  C   UNL     1      29.346  48.665  42.241  1.00  0.00     0.038 A 
HETATM   12  C   UNL     1      28.742  48.225  41.064  1.00  0.00     0.069 A 
HETATM   13  C   UNL     1      29.540  47.968  39.946  1.00  0.00     0.038 A 
HETATM   14  C   UNL     1      30.924  48.152  39.996  1.00  0.00     0.018 A 
BRANCH  12  15
HETATM   15  O   UNL     1      27.413  48.022  40.849  1.00  0.00    -0.347 OA
BRANCH  15  16
HETATM   16  C   UNL     1      26.963  47.324  39.684  1.00  0.00     0.120 C 
HETATM   17  C   UNL     1      25.929  48.185  38.968  1.00  0.00     0.040 C 
HETATM   18  C   UNL     1      26.334  46.016  40.161  1.00  0.00     0.040 C 
ENDBRANCH  15  16
ENDBRANCH  12  15
ENDBRANCH   7   9
ENDBRANCH   1   7
BRANCH   2  19
HETATM   19  C   UNL     1      31.702  51.777  40.317  1.00  0.00    -0.028 A 
HETATM   20  C   UNL     1      30.722  51.812  39.311  1.00  0.00     0.045 A 
HETATM   21  C   UNL     1      29.444  52.333  39.577  1.00  0.00     0.103 A 
HETATM   22  C   UNL     1      29.121  52.814  40.848  1.00  0.00     0.036 A 
HETATM   23  C   UNL     1      30.089  52.784  41.851  1.00  0.00     0.003 A 
HETATM   24  C   UNL     1      31.369  52.282  41.587  1.00  0.00     0.010 A 
BRANCH  21  25
HETATM   25  N   UNL     1      28.456  52.403  38.493  1.00  0.00    -0.116 N 
HETATM   26  O   UNL     1      28.521  53.385  37.738  1.00  0.00    -0.532 OA
HETATM   27  O   UNL     1      27.606  51.509  38.425  1.00  0.00    -0.532 OA
ENDBRANCH  21  25
ENDBRANCH   2  19
BRANCH   6  28
HETATM   28  O   UNL     1      35.339  49.863  42.581  1.00  0.00    -0.355 OA
HETATM   29  H   UNL     1      35.770  49.091  42.143  1.00  0.00     0.218 HD
ENDBRANCH   6  28
BRANCH   3  30
HETATM   30  C   UNL     1      34.150  53.507  39.454  1.00  0.00     0.155 C 
BRANCH  30  31
HETATM   31  C   UNL     1      35.567  53.912  38.955  1.00  0.00     0.254 C 
BRANCH  31  32
HETATM   32  N   UNL     1      36.176  55.088  39.735  1.00  0.00    -0.066 N 
HETATM   33  H   UNL     1      36.061  54.830  40.729  1.00  0.00     0.280 HD
HETATM   34  C   UNL     1      35.391  56.395  39.554  1.00  0.00     0.262 C 
HETATM   35  C   UNL     1      35.744  57.120  38.232  1.00  0.00     0.260 C 
HETATM   36  N   UNL     1      37.230  57.334  38.110  1.00  0.00    -0.072 N 
HETATM   37  H   UNL     1      37.570  58.038  38.785  1.00  0.00     0.277 HD
HETATM   38  H   UNL     1      37.433  57.754  37.186  1.00  0.00     0.277 HD
HETATM   39  C   UNL     1      38.025  56.053  38.219  1.00  0.00     0.260 C 
HETATM   40  C   UNL     1      37.688  55.300  39.532  1.00  0.00     0.262 C 
ENDBRANCH  31  32
ENDBRANCH  30  31
ENDBRANCH   3  30
TORSDOF 10
ENDMDL
MODEL 8
REMARK VINA RESULT:      -8.5     10.125     13.503
REMARK  10 active torsions:
REMARK  status: ('A' for Active; 'I' for Inactive)
REMARK    1  A    between atoms: C_2  and  O_3 
REMARK    2  A    between atoms: O_3  and  C_4 
REMARK    3  A    between atoms: C_7  and  C_8 
REMARK    4  A    between atoms: C_8  and  C_9 
REMARK    5  A    between atoms: C_10  and  C_11 
REMARK    6  A    between atoms: C_13  and  N_14 
REMARK    7  A    between atoms: N_20  and  C_21 
REMARK    8  A    between atoms: C_21  and  C_22 
REMARK    9  A    between atoms: C_22  and  N_23 
REMARK   10  A    between atoms: C_34  and  O_35 
ROOT
HETATM    1  C   UNL     1      28.266  47.161  39.002  1.00  0.00     0.059 C 
HETATM    2  C   UNL     1      27.175  48.016  39.566  1.00  0.00     0.161 C 
HETATM    3  N   UNL     1      26.161  47.901  38.518  1.00  0.00    -0.332 N 
HETATM    4  C   UNL     1      26.670  47.281  37.396  1.00  0.00     0.278 C 
HETATM    5  O   UNL     1      26.080  47.163  36.336  1.00  0.00    -0.265 OA
HETATM    6  C   UNL     1      28.000  46.754  37.750  1.00  0.00     0.146 C 
ENDROOT
BRANCH   1   7
HETATM    7  C   UNL     1      29.553  46.796  39.625  1.00  0.00     0.193 C 
HETATM    8  O   UNL     1      29.927  45.625  39.572  1.00  0.00    -0.287 OA
BRANCH   7   9
HETATM    9  C   UNL     1      30.428  47.808  40.256  1.00  0.00     0.015 A 
HETATM   10  C   UNL     1      31.223  48.695  39.525  1.00  0.00     0.018 A 
HETATM   11  C   UNL     1      32.009  49.651  40.188  1.00  0.00     0.038 A 
HETATM   12  C   UNL     1      31.963  49.758  41.578  1.00  0.00     0.069 A 
HETATM   13  C   UNL     1      31.148  48.883  42.300  1.00  0.00     0.038 A 
HETATM   14  C   UNL     1      30.381  47.916  41.649  1.00  0.00     0.018 A 
BRANCH  12  15
HETATM   15  O   UNL     1      32.629  50.658  42.354  1.00  0.00    -0.347 OA
BRANCH  15  16
HETATM   16  C   UNL     1      31.948  51.365  43.394  1.00  0.00     0.120 C 
HETATM   17  C   UNL     1      31.164  52.514  42.770  1.00  0.00     0.040 C 
HETATM   18  C   UNL     1      33.016  51.899  44.345  1.00  0.00     0.040 C 
ENDBRANCH  15  16
ENDBRANCH  12  15
ENDBRANCH   7   9
ENDBRANCH   1   7
BRANCH   2  19
HETATM   19  C   UNL     1      27.555  49.461  39.835  1.00  0.00    -0.028 A 
HETATM   20  C   UNL     1      28.079  50.238  38.788  1.00  0.00     0.045 A 
HETATM   21  C   UNL     1      28.453  51.575  39.010  1.00  0.00     0.103 A 
HETATM   22  C   UNL     1      28.301  52.158  40.270  1.00  0.00     0.036 A 
HETATM   23  C   UNL     1      27.784  51.391  41.314  1.00  0.00     0.003 A 
HETATM   24  C   UNL     1      27.425  50.055  41.103  1.00  0.00     0.010 A 
BRANCH  21  25
HETATM   25  N   UNL     1      29.044  52.348  37.910  1.00  0.00    -0.116 N 
HETATM   26  O   UNL     1      29.882  51.767  37.204  1.00  0.00    -0.532 OA
HETATM   27  O   UNL     1      28.703  53.528  37.783  1.00  0.00    -0.532 OA
ENDBRANCH  21  25
ENDBRANCH   2  19
BRANCH   6  28
HETATM   28  O   UNL     1      28.757  46.000  36.904  1.00  0.00    -0.355 OA
HETATM   29  H   UNL     1      28.585  45.052  37.116  1.00  0.00     0.218 HD
ENDBRANCH   6  28
BRANCH   3  30
HETATM   30  C   UNL     1      24.856  48.548  38.566  1.00  0.00     0.155 C 
BRANCH  30  31
HETATM   31  C   UNL     1      24.017  48.153  39.815  1.00  0.00     0.254 C 
BRANCH  31  32
HETATM   32  N   UNL     1      23.489  46.710  39.765  1.00  0.00    -0.066 N 
HETATM   33  H   UNL     1      23.619  46.419  38.782  1.00  0.00     0.280 HD
HETATM   34  C   UNL     1      21.978  46.618  40.026  1.00  0.00     0.262 C 
HETATM   35  C   UNL     1      21.634  46.665  41.535  1.00  0.00     0.260 C 
HETATM   36  N   UNL     1      22.403  45.621  42.300  1.00  0.00    -0.072 N 
HETATM   37  H   UNL     1      22.072  44.668  42.081  1.00  0.00     0.277 HD
HETATM   38  H   UNL     1      22.202  45.730  43.310  1.00  0.00     0.277 HD
HETATM   39  C   UNL     1      23.900  45.729  42.113  1.00  0.00     0.260 C 
HETATM   40  C   UNL     1      24.275  45.691  40.610  1.00  0.00     0.262 C 
ENDBRANCH  31  32
ENDBRANCH  30  31
ENDBRANCH   3  30
TORSDOF 10
ENDMDL
MODEL 9
REMARK VINA RESULT:      -8.5     11.025     14.014
REMARK  10 active torsions:
REMARK  status: ('A' for Active; 'I' for Inactive)
REMARK    1  A    between atoms: C_2  and  O_3 
REMARK    2  A    between atoms: O_3  and  C_4 
REMARK    3  A    between atoms: C_7  and  C_8 
REMARK    4  A    between atoms: C_8  and  C_9 
REMARK    5  A    between atoms: C_10  and  C_11 
REMARK    6  A    between atoms: C_13  and  N_14 
REMARK    7  A    between atoms: N_20  and  C_21 
REMARK    8  A    between atoms: C_21  and  C_22 
REMARK    9  A    between atoms: C_22  and  N_23 
REMARK   10  A    between atoms: C_34  and  O_35 
ROOT
HETATM    1  C   UNL     1      28.484  47.595  39.438  1.00  0.00     0.059 C 
HETATM    2  C   UNL     1      27.383  48.449  39.984  1.00  0.00     0.161 C 
HETATM    3  N   UNL     1      26.332  48.215  38.994  1.00  0.00    -0.332 N 
HETATM    4  C   UNL     1      26.819  47.529  37.900  1.00  0.00     0.278 C 
HETATM    5  O   UNL     1      26.191  47.308  36.879  1.00  0.00    -0.265 OA
HETATM    6  C   UNL     1      28.184  47.083  38.233  1.00  0.00     0.146 C 
ENDROOT
BRANCH   1   7
HETATM    7  C   UNL     1      29.810  47.329  40.028  1.00  0.00     0.193 C 
HETATM    8  O   UNL     1      30.301  46.208  39.902  1.00  0.00    -0.287 OA
BRANCH   7   9
HETATM    9  C   UNL     1      30.585  48.385  40.714  1.00  0.00     0.015 A 
HETATM   10  C   UNL     1      30.603  48.541  42.103  1.00  0.00     0.018 A 
HETATM   11  C   UNL     1      31.385  49.548  42.691  1.00  0.00     0.038 A 
HETATM   12  C   UNL     1      32.189  50.367  41.899  1.00  0.00     0.069 A 
HETATM   13  C   UNL     1      32.183  50.191  40.513  1.00  0.00     0.038 A 
HETATM   14  C   UNL     1      31.391  49.205  39.920  1.00  0.00     0.018 A 
BRANCH  12  15
HETATM   15  O   UNL     1      33.029  51.351  42.325  1.00  0.00    -0.347 OA
BRANCH  15  16
HETATM   16  C   UNL     1      33.594  51.308  43.638  1.00  0.00     0.120 C 
HETATM   17  C   UNL     1      32.679  52.071  44.589  1.00  0.00     0.040 C 
HETATM   18  C   UNL     1      34.963  51.979  43.558  1.00  0.00     0.040 C 
ENDBRANCH  15  16
ENDBRANCH  12  15
ENDBRANCH   7   9
ENDBRANCH   1   7
BRANCH   2  19
HETATM   19  C   UNL     1      27.714  49.923  40.125  1.00  0.00    -0.028 A 
HETATM   20  C   UNL     1      28.180  50.632  39.005  1.00  0.00     0.045 A 
HETATM   21  C   UNL     1      28.508  51.995  39.109  1.00  0.00     0.103 A 
HETATM   22  C   UNL     1      28.367  52.672  40.322  1.00  0.00     0.036 A 
HETATM   23  C   UNL     1      27.907  51.974  41.439  1.00  0.00     0.003 A 
HETATM   24  C   UNL     1      27.595  50.613  41.345  1.00  0.00     0.010 A 
BRANCH  21  25
HETATM   25  N   UNL     1      29.039  52.698  37.934  1.00  0.00    -0.116 N 
HETATM   26  O   UNL     1      28.649  53.861  37.753  1.00  0.00    -0.532 OA
HETATM   27  O   UNL     1      29.803  52.079  37.185  1.00  0.00    -0.532 OA
ENDBRANCH  21  25
ENDBRANCH   2  19
BRANCH   6  28
HETATM   28  O   UNL     1      28.935  46.294  37.413  1.00  0.00    -0.355 OA
HETATM   29  H   UNL     1      29.641  46.860  37.021  1.00  0.00     0.218 HD
ENDBRANCH   6  28
BRANCH   3  30
HETATM   30  C   UNL     1      25.005  48.813  39.050  1.00  0.00     0.155 C 
BRANCH  30  31
HETATM   31  C   UNL     1      23.903  47.826  39.534  1.00  0.00     0.254 C 
BRANCH  31  32
HETATM   32  N   UNL     1      22.813  48.498  40.383  1.00  0.00    -0.066 N 
HETATM   33  H   UNL     1      23.303  48.812  41.237  1.00  0.00     0.280 HD
HETATM   34  C   UNL     1      21.738  47.512  40.864  1.00  0.00     0.262 C 
HETATM   35  C   UNL     1      20.675  47.217  39.776  1.00  0.00     0.260 C 
HETATM   36  N   UNL     1      20.074  48.492  39.246  1.00  0.00    -0.072 N 
HETATM   37  H   UNL     1      19.473  48.951  39.949  1.00  0.00     0.277 HD
HETATM   38  H   UNL     1      19.424  48.260  38.474  1.00  0.00     0.277 HD
HETATM   39  C   UNL     1      21.106  49.456  38.705  1.00  0.00     0.260 C 
HETATM   40  C   UNL     1      22.188  49.765  39.771  1.00  0.00     0.262 C 
ENDBRANCH  31  32
ENDBRANCH  30  31
ENDBRANCH   3  30
TORSDOF 10
ENDMDL
MODEL 10
REMARK VINA RESULT:      -8.4      3.286      7.750
REMARK  10 active torsions:
REMARK  status: ('A' for Active; 'I' for Inactive)
REMARK    1  A    between atoms: C_2  and  O_3 
REMARK    2  A    between atoms: O_3  and  C_4 
REMARK    3  A    between atoms: C_7  and  C_8 
REMARK    4  A    between atoms: C_8  and  C_9 
REMARK    5  A    between atoms: C_10  and  C_11 
REMARK    6  A    between atoms: C_13  and  N_14 
REMARK    7  A    between atoms: N_20  and  C_21 
REMARK    8  A    between atoms: C_21  and  C_22 
REMARK    9  A    between atoms: C_22  and  N_23 
REMARK   10  A    between atoms: C_34  and  O_35 
ROOT
HETATM    1  C   UNL     1      22.944  44.673  48.815  1.00  0.00     0.059 C 
HETATM    2  C   UNL     1      22.843  46.029  49.441  1.00  0.00     0.161 C 
HETATM    3  N   UNL     1      22.226  46.790  48.355  1.00  0.00    -0.332 N 
HETATM    4  C   UNL     1      22.198  46.061  47.185  1.00  0.00     0.278 C 
HETATM    5  O   UNL     1      21.851  46.494  46.100  1.00  0.00    -0.265 OA
HETATM    6  C   UNL     1      22.602  44.683  47.517  1.00  0.00     0.146 C 
ENDROOT
BRANCH   1   7
HETATM    7  C   UNL     1      23.415  43.418  49.432  1.00  0.00     0.193 C 
HETATM    8  O   UNL     1      22.685  42.428  49.392  1.00  0.00    -0.287 OA
BRANCH   7   9
HETATM    9  C   UNL     1      24.757  43.304  50.042  1.00  0.00     0.015 A 
HETATM   10  C   UNL     1      25.942  43.471  49.319  1.00  0.00     0.018 A 
HETATM   11  C   UNL     1      27.184  43.379  49.968  1.00  0.00     0.038 A 
HETATM   12  C   UNL     1      27.245  43.171  51.346  1.00  0.00     0.069 A 
HETATM   13  C   UNL     1      26.056  43.028  52.065  1.00  0.00     0.038 A 
HETATM   14  C   UNL     1      24.818  43.097  51.423  1.00  0.00     0.018 A 
BRANCH  12  15
HETATM   15  O   UNL     1      28.365  43.103  52.117  1.00  0.00    -0.347 OA
BRANCH  15  16
HETATM   16  C   UNL     1      28.427  42.213  53.235  1.00  0.00     0.120 C 
HETATM   17  C   UNL     1      29.417  42.772  54.250  1.00  0.00     0.040 C 
HETATM   18  C   UNL     1      28.905  40.863  52.706  1.00  0.00     0.040 C 
ENDBRANCH  15  16
ENDBRANCH  12  15
ENDBRANCH   7   9
ENDBRANCH   1   7
BRANCH   2  19
HETATM   19  C   UNL     1      24.159  46.638  49.888  1.00  0.00    -0.028 A 
HETATM   20  C   UNL     1      24.545  46.524  51.234  1.00  0.00     0.045 A 
HETATM   21  C   UNL     1      25.752  47.090  51.680  1.00  0.00     0.103 A 
HETATM   22  C   UNL     1      26.593  47.766  50.794  1.00  0.00     0.036 A 
HETATM   23  C   UNL     1      26.215  47.886  49.457  1.00  0.00     0.003 A 
HETATM   24  C   UNL     1      25.006  47.338  49.010  1.00  0.00     0.010 A 
BRANCH  21  25
HETATM   25  N   UNL     1      26.107  46.997  53.102  1.00  0.00    -0.116 N 
HETATM   26  O   UNL     1      25.627  47.857  53.857  1.00  0.00    -0.532 OA
HETATM   27  O   UNL     1      26.884  46.102  53.449  1.00  0.00    -0.532 OA
ENDBRANCH  21  25
ENDBRANCH   2  19
BRANCH   6  28
HETATM   28  O   UNL     1      22.599  43.663  46.613  1.00  0.00    -0.355 OA
HETATM   29  H   UNL     1      23.531  43.519  46.322  1.00  0.00     0.218 HD
ENDBRANCH   6  28
BRANCH   3  30
HETATM   30  C   UNL     1      21.886  48.205  48.436  1.00  0.00     0.155 C 
BRANCH  30  31
HETATM   31  C   UNL     1      20.453  48.465  48.986  1.00  0.00     0.254 C 
BRANCH  31  32
HETATM   32  N   UNL     1      20.408  49.538  50.086  1.00  0.00    -0.066 N 
HETATM   33  H   UNL     1      21.024  49.174  50.831  1.00  0.00     0.280 HD
HETATM   34  C   UNL     1      19.020  49.675  50.728  1.00  0.00     0.262 C 
HETATM   35  C   UNL     1      18.056  50.540  49.878  1.00  0.00     0.260 C 
HETATM   36  N   UNL     1      18.666  51.881  49.562  1.00  0.00    -0.072 N 
HETATM   37  H   UNL     1      18.732  52.477  50.402  1.00  0.00     0.277 HD
HETATM   38  H   UNL     1      18.026  52.400  48.935  1.00  0.00     0.277 HD
HETATM   39  C   UNL     1      20.006  51.775  48.869  1.00  0.00     0.260 C 
HETATM   40  C   UNL     1      20.991  50.908  49.694  1.00  0.00     0.262 C 
ENDBRANCH  31  32
ENDBRANCH  30  31
ENDBRANCH   3  30
TORSDOF 10
ENDMDL
