MODEL 1
REMARK VINA RESULT:      -8.3      0.000      0.000
REMARK  3 active torsions:
REMARK  status: ('A' for Active; 'I' for Inactive)
REMARK    1  A    between atoms: C_3  and  N_4 
REMARK       I    between atoms: N_4  and  C_5 
REMARK       I    between atoms: C_5  and  N_6 
REMARK    2  A    between atoms: N_6  and  C_7 
REMARK    3  A    between atoms: C_15  and  C_16 
ROOT
HETATM    1  N   UNL     1      27.714  44.790  53.771  1.00  0.00    -0.309 N 
HETATM    2  C   UNL     1      26.416  44.381  53.883  1.00  0.00     0.326 C 
HETATM    3  N   UNL     1      25.557  44.806  52.908  1.00  0.00    -0.292 N 
HETATM    4  O   UNL     1      25.951  43.670  54.773  1.00  0.00    -0.247 OA
HETATM    5  H   UNL     1      27.890  45.373  52.956  1.00  0.00     0.170 HD
HETATM    6  H   UNL     1      24.617  44.466  53.054  1.00  0.00     0.172 HD
ENDROOT
BRANCH   1   7
HETATM    7  C   UNL     1      28.803  44.514  54.614  1.00  0.00     0.037 A 
HETATM    8  C   UNL     1      29.782  43.559  54.339  1.00  0.00     0.029 A 
HETATM    9  C   UNL     1      30.834  43.345  55.234  1.00  0.00     0.003 A 
HETATM   10  C   UNL     1      30.917  44.084  56.412  1.00  0.00     0.016 A 
HETATM   11  C   UNL     1      29.949  45.053  56.706  1.00  0.00     0.050 A 
HETATM   12  C   UNL     1      28.892  45.254  55.801  1.00  0.00     0.045 A 
BRANCH  11  13
HETATM   13  C   UNL     1      30.028  45.842  57.987  1.00  0.00     0.417 C 
HETATM   14  F   UNL     1      31.061  46.732  58.014  1.00  0.00    -0.166 F 
HETATM   15  F   UNL     1      28.903  46.573  58.218  1.00  0.00    -0.166 F 
HETATM   16  F   UNL     1      30.193  45.052  59.085  1.00  0.00    -0.166 F 
ENDBRANCH  11  13
ENDBRANCH   1   7
BRANCH   3  17
HETATM   17  C   UNL     1      25.806  45.613  51.793  1.00  0.00     0.148 A 
HETATM   18  N   UNL     1      26.559  45.148  50.766  1.00  0.00    -0.240 NA
HETATM   19  C   UNL     1      26.744  46.005  49.731  1.00  0.00     0.138 A 
HETATM   20  C   UNL     1      26.204  47.279  49.711  1.00  0.00     0.135 A 
HETATM   21  N   UNL     1      25.452  47.757  50.726  1.00  0.00    -0.268 NA
HETATM   22  C   UNL     1      25.268  46.899  51.760  1.00  0.00     0.166 A 
ENDBRANCH   3  17
TORSDOF 3
ENDMDL
MODEL 2
REMARK VINA RESULT:      -8.1      1.147      1.426
REMARK  3 active torsions:
REMARK  status: ('A' for Active; 'I' for Inactive)
REMARK    1  A    between atoms: C_3  and  N_4 
REMARK       I    between atoms: N_4  and  C_5 
REMARK       I    between atoms: C_5  and  N_6 
REMARK    2  A    between atoms: N_6  and  C_7 
REMARK    3  A    between atoms: C_15  and  C_16 
ROOT
HETATM    1  N   UNL     1      28.371  44.279  53.459  1.00  0.00    -0.309 N 
HETATM    2  C   UNL     1      27.566  43.318  52.918  1.00  0.00     0.326 C 
HETATM    3  N   UNL     1      26.737  43.717  51.906  1.00  0.00    -0.292 N 
HETATM    4  O   UNL     1      27.518  42.136  53.252  1.00  0.00    -0.247 OA
HETATM    5  H   UNL     1      28.256  45.196  53.034  1.00  0.00     0.170 HD
HETATM    6  H   UNL     1      26.173  42.957  51.555  1.00  0.00     0.172 HD
ENDROOT
BRANCH   1   7
HETATM    7  C   UNL     1      29.310  44.162  54.497  1.00  0.00     0.037 A 
HETATM    8  C   UNL     1      30.388  43.276  54.481  1.00  0.00     0.029 A 
HETATM    9  C   UNL     1      31.276  43.221  55.558  1.00  0.00     0.003 A 
HETATM   10  C   UNL     1      31.098  44.054  56.661  1.00  0.00     0.016 A 
HETATM   11  C   UNL     1      30.027  44.957  56.696  1.00  0.00     0.050 A 
HETATM   12  C   UNL     1      29.136  44.996  55.609  1.00  0.00     0.045 A 
BRANCH  11  13
HETATM   13  C   UNL     1      29.823  45.846  57.895  1.00  0.00     0.417 C 
HETATM   14  F   UNL     1      30.844  46.727  58.098  1.00  0.00    -0.166 F 
HETATM   15  F   UNL     1      28.694  46.602  57.795  1.00  0.00    -0.166 F 
HETATM   16  F   UNL     1      29.702  45.146  59.058  1.00  0.00    -0.166 F 
ENDBRANCH  11  13
ENDBRANCH   1   7
BRANCH   3  17
HETATM   17  C   UNL     1      26.581  44.983  51.331  1.00  0.00     0.148 A 
HETATM   18  N   UNL     1      26.018  45.992  52.039  1.00  0.00    -0.240 NA
HETATM   19  C   UNL     1      25.910  47.180  51.394  1.00  0.00     0.138 A 
HETATM   20  C   UNL     1      26.345  47.366  50.093  1.00  0.00     0.135 A 
HETATM   21  N   UNL     1      26.909  46.372  49.376  1.00  0.00    -0.268 NA
HETATM   22  C   UNL     1      27.015  45.184  50.021  1.00  0.00     0.166 A 
ENDBRANCH   3  17
TORSDOF 3
ENDMDL
MODEL 3
REMARK VINA RESULT:      -7.9      2.574      3.345
REMARK  3 active torsions:
REMARK  status: ('A' for Active; 'I' for Inactive)
REMARK    1  A    between atoms: C_3  and  N_4 
REMARK       I    between atoms: N_4  and  C_5 
REMARK       I    between atoms: C_5  and  N_6 
REMARK    2  A    between atoms: N_6  and  C_7 
REMARK    3  A    between atoms: C_15  and  C_16 
ROOT
HETATM    1  N   UNL     1      26.391  46.140  52.651  1.00  0.00    -0.309 N 
HETATM    2  C   UNL     1      25.238  45.517  52.272  1.00  0.00     0.326 C 
HETATM    3  N   UNL     1      24.596  46.034  51.180  1.00  0.00    -0.292 N 
HETATM    4  O   UNL     1      24.726  44.539  52.815  1.00  0.00    -0.247 OA
HETATM    5  H   UNL     1      26.642  46.931  52.062  1.00  0.00     0.170 HD
HETATM    6  H   UNL     1      23.753  45.525  50.958  1.00  0.00     0.172 HD
ENDROOT
BRANCH   1   7
HETATM    7  C   UNL     1      27.250  45.834  53.720  1.00  0.00     0.037 A 
HETATM    8  C   UNL     1      27.357  46.601  54.880  1.00  0.00     0.029 A 
HETATM    9  C   UNL     1      28.239  46.227  55.898  1.00  0.00     0.003 A 
HETATM   10  C   UNL     1      29.021  45.081  55.765  1.00  0.00     0.016 A 
HETATM   11  C   UNL     1      28.925  44.292  54.611  1.00  0.00     0.050 A 
HETATM   12  C   UNL     1      28.040  44.684  53.592  1.00  0.00     0.045 A 
BRANCH  11  13
HETATM   13  C   UNL     1      29.782  43.062  54.460  1.00  0.00     0.417 C 
HETATM   14  F   UNL     1      30.600  42.835  55.527  1.00  0.00    -0.166 F 
HETATM   15  F   UNL     1      29.042  41.929  54.311  1.00  0.00    -0.166 F 
HETATM   16  F   UNL     1      30.601  43.120  53.372  1.00  0.00    -0.166 F 
ENDBRANCH  11  13
ENDBRANCH   1   7
BRANCH   3  17
HETATM   17  C   UNL     1      24.945  47.127  50.379  1.00  0.00     0.148 A 
HETATM   18  N   UNL     1      26.242  47.355  50.060  1.00  0.00    -0.240 NA
HETATM   19  C   UNL     1      26.478  48.439  49.279  1.00  0.00     0.138 A 
HETATM   20  C   UNL     1      25.466  49.269  48.828  1.00  0.00     0.135 A 
HETATM   21  N   UNL     1      24.170  49.054  49.136  1.00  0.00    -0.268 NA
HETATM   22  C   UNL     1      23.935  47.971  49.918  1.00  0.00     0.166 A 
ENDBRANCH   3  17
TORSDOF 3
ENDMDL
MODEL 4
REMARK VINA RESULT:      -7.8      1.530      1.788
REMARK  3 active torsions:
REMARK  status: ('A' for Active; 'I' for Inactive)
REMARK    1  A    between atoms: C_3  and  N_4 
REMARK       I    between atoms: N_4  and  C_5 
REMARK       I    between atoms: C_5  and  N_6 
REMARK    2  A    between atoms: N_6  and  C_7 
REMARK    3  A    between atoms: C_15  and  C_16 
ROOT
HETATM    1  N   UNL     1      27.729  45.532  54.104  1.00  0.00    -0.309 N 
HETATM    2  C   UNL     1      27.134  46.719  54.421  1.00  0.00     0.326 C 
HETATM    3  N   UNL     1      26.091  47.109  53.627  1.00  0.00    -0.292 N 
HETATM    4  O   UNL     1      27.445  47.465  55.348  1.00  0.00    -0.247 OA
HETATM    5  H   UNL     1      27.315  45.069  53.298  1.00  0.00     0.170 HD
HETATM    6  H   UNL     1      25.700  47.993  53.919  1.00  0.00     0.172 HD
ENDROOT
BRANCH   1   7
HETATM    7  C   UNL     1      28.809  44.890  54.733  1.00  0.00     0.037 A 
HETATM    8  C   UNL     1      29.497  43.805  54.189  1.00  0.00     0.029 A 
HETATM    9  C   UNL     1      30.561  43.221  54.883  1.00  0.00     0.003 A 
HETATM   10  C   UNL     1      30.949  43.720  56.125  1.00  0.00     0.016 A 
HETATM   11  C   UNL     1      30.277  44.813  56.687  1.00  0.00     0.050 A 
HETATM   12  C   UNL     1      29.203  45.385  55.982  1.00  0.00     0.045 A 
BRANCH  11  13
HETATM   13  C   UNL     1      30.684  45.342  58.038  1.00  0.00     0.417 C 
HETATM   14  F   UNL     1      30.963  46.677  58.037  1.00  0.00    -0.166 F 
HETATM   15  F   UNL     1      29.715  45.165  58.978  1.00  0.00    -0.166 F 
HETATM   16  F   UNL     1      31.799  44.732  58.530  1.00  0.00    -0.166 F 
ENDBRANCH  11  13
ENDBRANCH   1   7
BRANCH   3  17
HETATM   17  C   UNL     1      25.530  46.468  52.517  1.00  0.00     0.148 A 
HETATM   18  N   UNL     1      25.061  45.201  52.623  1.00  0.00    -0.240 NA
HETATM   19  C   UNL     1      24.538  44.667  51.492  1.00  0.00     0.138 A 
HETATM   20  C   UNL     1      24.478  45.361  50.296  1.00  0.00     0.135 A 
HETATM   21  N   UNL     1      24.941  46.623  50.174  1.00  0.00    -0.268 NA
HETATM   22  C   UNL     1      25.465  47.156  51.306  1.00  0.00     0.166 A 
ENDBRANCH   3  17
TORSDOF 3
ENDMDL
MODEL 5
REMARK VINA RESULT:      -7.8      2.785      3.646
REMARK  3 active torsions:
REMARK  status: ('A' for Active; 'I' for Inactive)
REMARK    1  A    between atoms: C_3  and  N_4 
REMARK       I    between atoms: N_4  and  C_5 
REMARK       I    between atoms: C_5  and  N_6 
REMARK    2  A    between atoms: N_6  and  C_7 
REMARK    3  A    between atoms: C_15  and  C_16 
ROOT
HETATM    1  N   UNL     1      27.862  43.761  53.400  1.00  0.00    -0.309 N 
HETATM    2  C   UNL     1      26.505  43.719  53.256  1.00  0.00     0.326 C 
HETATM    3  N   UNL     1      26.026  42.991  52.201  1.00  0.00    -0.292 N 
HETATM    4  O   UNL     1      25.678  44.268  53.981  1.00  0.00    -0.247 OA
HETATM    5  H   UNL     1      28.365  43.233  52.690  1.00  0.00     0.170 HD
HETATM    6  H   UNL     1      25.018  43.004  52.157  1.00  0.00     0.172 HD
ENDROOT
BRANCH   1   7
HETATM    7  C   UNL     1      28.626  44.422  54.376  1.00  0.00     0.037 A 
HETATM    8  C   UNL     1      28.497  45.776  54.685  1.00  0.00     0.029 A 
HETATM    9  C   UNL     1      29.299  46.358  55.670  1.00  0.00     0.003 A 
HETATM   10  C   UNL     1      30.237  45.589  56.358  1.00  0.00     0.016 A 
HETATM   11  C   UNL     1      30.379  44.226  56.069  1.00  0.00     0.050 A 
HETATM   12  C   UNL     1      29.571  43.655  55.070  1.00  0.00     0.045 A 
BRANCH  11  13
HETATM   13  C   UNL     1      31.404  43.398  56.800  1.00  0.00     0.417 C 
HETATM   14  F   UNL     1      30.883  42.283  57.388  1.00  0.00    -0.166 F 
HETATM   15  F   UNL     1      32.396  42.956  55.979  1.00  0.00    -0.166 F 
HETATM   16  F   UNL     1      32.025  44.086  57.799  1.00  0.00    -0.166 F 
ENDBRANCH  11  13
ENDBRANCH   1   7
BRANCH   3  17
HETATM   17  C   UNL     1      26.727  42.272  51.226  1.00  0.00     0.148 A 
HETATM   18  N   UNL     1      27.457  41.184  51.571  1.00  0.00    -0.240 NA
HETATM   19  C   UNL     1      28.100  40.555  50.556  1.00  0.00     0.138 A 
HETATM   20  C   UNL     1      28.023  40.987  49.243  1.00  0.00     0.135 A 
HETATM   21  N   UNL     1      27.299  42.068  48.883  1.00  0.00    -0.268 NA
HETATM   22  C   UNL     1      26.658  42.696  49.900  1.00  0.00     0.166 A 
ENDBRANCH   3  17
TORSDOF 3
ENDMDL
MODEL 6
REMARK VINA RESULT:      -7.6      1.725      2.519
REMARK  3 active torsions:
REMARK  status: ('A' for Active; 'I' for Inactive)
REMARK    1  A    between atoms: C_3  and  N_4 
REMARK       I    between atoms: N_4  and  C_5 
REMARK       I    between atoms: C_5  and  N_6 
REMARK    2  A    between atoms: N_6  and  C_7 
REMARK    3  A    between atoms: C_15  and  C_16 
ROOT
HETATM    1  N   UNL     1      27.637  45.267  54.176  1.00  0.00    -0.309 N 
HETATM    2  C   UNL     1      26.590  44.426  53.929  1.00  0.00     0.326 C 
HETATM    3  N   UNL     1      25.975  44.560  52.715  1.00  0.00    -0.292 N 
HETATM    4  O   UNL     1      26.153  43.564  54.690  1.00  0.00    -0.247 OA
HETATM    5  H   UNL     1      27.839  45.905  53.410  1.00  0.00     0.170 HD
HETATM    6  H   UNL     1      25.212  43.908  52.601  1.00  0.00     0.172 HD
ENDROOT
BRANCH   1   7
HETATM    7  C   UNL     1      28.446  45.357  55.322  1.00  0.00     0.037 A 
HETATM    8  C   UNL     1      28.293  46.328  56.312  1.00  0.00     0.029 A 
HETATM    9  C   UNL     1      29.143  46.349  57.421  1.00  0.00     0.003 A 
HETATM   10  C   UNL     1      30.152  45.397  57.552  1.00  0.00     0.016 A 
HETATM   11  C   UNL     1      30.320  44.408  56.573  1.00  0.00     0.050 A 
HETATM   12  C   UNL     1      29.463  44.404  55.459  1.00  0.00     0.045 A 
BRANCH  11  13
HETATM   13  C   UNL     1      31.421  43.389  56.705  1.00  0.00     0.417 C 
HETATM   14  F   UNL     1      32.531  43.867  57.337  1.00  0.00    -0.166 F 
HETATM   15  F   UNL     1      31.033  42.294  57.415  1.00  0.00    -0.166 F 
HETATM   16  F   UNL     1      31.855  42.920  55.502  1.00  0.00    -0.166 F 
ENDBRANCH  11  13
ENDBRANCH   1   7
BRANCH   3  17
HETATM   17  C   UNL     1      26.256  45.445  51.669  1.00  0.00     0.148 A 
HETATM   18  N   UNL     1      25.937  46.758  51.779  1.00  0.00    -0.240 NA
HETATM   19  C   UNL     1      26.249  47.534  50.711  1.00  0.00     0.138 A 
HETATM   20  C   UNL     1      26.856  47.031  49.573  1.00  0.00     0.135 A 
HETATM   21  N   UNL     1      27.180  45.727  49.449  1.00  0.00    -0.268 NA
HETATM   22  C   UNL     1      26.867  44.951  50.517  1.00  0.00     0.166 A 
ENDBRANCH   3  17
TORSDOF 3
ENDMDL
MODEL 7
REMARK VINA RESULT:      -7.5      2.819      3.615
REMARK  3 active torsions:
REMARK  status: ('A' for Active; 'I' for Inactive)
REMARK    1  A    between atoms: C_3  and  N_4 
REMARK       I    between atoms: N_4  and  C_5 
REMARK       I    between atoms: C_5  and  N_6 
REMARK    2  A    between atoms: N_6  and  C_7 
REMARK    3  A    between atoms: C_15  and  C_16 
ROOT
HETATM    1  N   UNL     1      26.292  45.547  52.885  1.00  0.00    -0.309 N 
HETATM    2  C   UNL     1      25.469  46.542  52.444  1.00  0.00     0.326 C 
HETATM    3  N   UNL     1      24.620  46.222  51.421  1.00  0.00    -0.292 N 
HETATM    4  O   UNL     1      25.418  47.691  52.879  1.00  0.00    -0.247 OA
HETATM    5  H   UNL     1      26.172  44.666  52.389  1.00  0.00     0.170 HD
HETATM    6  H   UNL     1      24.042  47.003  51.147  1.00  0.00     0.172 HD
ENDROOT
BRANCH   1   7
HETATM    7  C   UNL     1      27.256  45.585  53.906  1.00  0.00     0.037 A 
HETATM    8  C   UNL     1      27.298  46.560  54.904  1.00  0.00     0.029 A 
HETATM    9  C   UNL     1      28.293  46.527  55.885  1.00  0.00     0.003 A 
HETATM   10  C   UNL     1      29.255  45.518  55.878  1.00  0.00     0.016 A 
HETATM   11  C   UNL     1      29.227  44.525  54.890  1.00  0.00     0.050 A 
HETATM   12  C   UNL     1      28.226  44.574  53.905  1.00  0.00     0.045 A 
BRANCH  11  13
HETATM   13  C   UNL     1      30.276  43.444  54.872  1.00  0.00     0.417 C 
HETATM   14  F   UNL     1      30.768  43.184  53.626  1.00  0.00    -0.166 F 
HETATM   15  F   UNL     1      31.357  43.755  55.640  1.00  0.00    -0.166 F 
HETATM   16  F   UNL     1      29.815  42.251  55.342  1.00  0.00    -0.166 F 
ENDBRANCH  11  13
ENDBRANCH   1   7
BRANCH   3  17
HETATM   17  C   UNL     1      24.464  45.009  50.741  1.00  0.00     0.148 A 
HETATM   18  N   UNL     1      24.180  43.873  51.424  1.00  0.00    -0.240 NA
HETATM   19  C   UNL     1      24.048  42.749  50.676  1.00  0.00     0.138 A 
HETATM   20  C   UNL     1      24.193  42.747  49.299  1.00  0.00     0.135 A 
HETATM   21  N   UNL     1      24.475  43.870  48.605  1.00  0.00    -0.268 NA
HETATM   22  C   UNL     1      24.607  44.993  49.354  1.00  0.00     0.166 A 
ENDBRANCH   3  17
TORSDOF 3
ENDMDL
MODEL 8
REMARK VINA RESULT:      -7.3      1.976      2.676
REMARK  3 active torsions:
REMARK  status: ('A' for Active; 'I' for Inactive)
REMARK    1  A    between atoms: C_3  and  N_4 
REMARK       I    between atoms: N_4  and  C_5 
REMARK       I    between atoms: C_5  and  N_6 
REMARK    2  A    between atoms: N_6  and  C_7 
REMARK    3  A    between atoms: C_15  and  C_16 
ROOT
HETATM    1  N   UNL     1      26.780  44.919  52.057  1.00  0.00    -0.309 N 
HETATM    2  C   UNL     1      25.439  44.920  52.313  1.00  0.00     0.326 C 
HETATM    3  N   UNL     1      24.701  45.892  51.695  1.00  0.00    -0.292 N 
HETATM    4  O   UNL     1      24.836  44.133  53.041  1.00  0.00    -0.247 OA
HETATM    5  H   UNL     1      27.076  45.657  51.422  1.00  0.00     0.170 HD
HETATM    6  H   UNL     1      23.721  45.832  51.930  1.00  0.00     0.172 HD
ENDROOT
BRANCH   1   7
HETATM    7  C   UNL     1      27.771  44.052  52.545  1.00  0.00     0.037 A 
HETATM    8  C   UNL     1      28.114  42.840  51.946  1.00  0.00     0.029 A 
HETATM    9  C   UNL     1      29.113  42.033  52.499  1.00  0.00     0.003 A 
HETATM   10  C   UNL     1      29.781  42.434  53.655  1.00  0.00     0.016 A 
HETATM   11  C   UNL     1      29.458  43.651  54.269  1.00  0.00     0.050 A 
HETATM   12  C   UNL     1      28.446  44.448  53.707  1.00  0.00     0.045 A 
BRANCH  11  13
HETATM   13  C   UNL     1      30.168  44.077  55.528  1.00  0.00     0.417 C 
HETATM   14  F   UNL     1      29.434  44.922  56.307  1.00  0.00    -0.166 F 
HETATM   15  F   UNL     1      30.488  43.020  56.326  1.00  0.00    -0.166 F 
HETATM   16  F   UNL     1      31.340  44.727  55.281  1.00  0.00    -0.166 F 
ENDBRANCH  11  13
ENDBRANCH   1   7
BRANCH   3  17
HETATM   17  C   UNL     1      25.117  46.907  50.827  1.00  0.00     0.148 A 
HETATM   18  N   UNL     1      26.436  47.184  50.680  1.00  0.00    -0.240 NA
HETATM   19  C   UNL     1      26.738  48.185  49.816  1.00  0.00     0.138 A 
HETATM   20  C   UNL     1      25.770  48.889  49.121  1.00  0.00     0.135 A 
HETATM   21  N   UNL     1      24.453  48.626  49.257  1.00  0.00    -0.268 NA
HETATM   22  C   UNL     1      24.153  47.625  50.121  1.00  0.00     0.166 A 
ENDBRANCH   3  17
TORSDOF 3
ENDMDL
MODEL 9
REMARK VINA RESULT:      -7.2      6.097      8.294
REMARK  3 active torsions:
REMARK  status: ('A' for Active; 'I' for Inactive)
REMARK    1  A    between atoms: C_3  and  N_4 
REMARK       I    between atoms: N_4  and  C_5 
REMARK       I    between atoms: C_5  and  N_6 
REMARK    2  A    between atoms: N_6  and  C_7 
REMARK    3  A    between atoms: C_15  and  C_16 
ROOT
HETATM    1  N   UNL     1      25.563  46.690  50.653  1.00  0.00    -0.309 N 
HETATM    2  C   UNL     1      25.424  46.606  52.009  1.00  0.00     0.326 C 
HETATM    3  N   UNL     1      25.357  45.347  52.537  1.00  0.00    -0.292 N 
HETATM    4  O   UNL     1      25.357  47.550  52.793  1.00  0.00    -0.247 OA
HETATM    5  H   UNL     1      25.601  45.786  50.189  1.00  0.00     0.170 HD
HETATM    6  H   UNL     1      25.255  45.360  53.542  1.00  0.00     0.172 HD
ENDROOT
BRANCH   1   7
HETATM    7  C   UNL     1      25.656  47.835  49.844  1.00  0.00     0.037 A 
HETATM    8  C   UNL     1      26.857  48.358  49.364  1.00  0.00     0.029 A 
HETATM    9  C   UNL     1      26.863  49.504  48.566  1.00  0.00     0.003 A 
HETATM   10  C   UNL     1      25.666  50.139  48.237  1.00  0.00     0.016 A 
HETATM   11  C   UNL     1      24.447  49.628  48.702  1.00  0.00     0.050 A 
HETATM   12  C   UNL     1      24.457  48.478  49.511  1.00  0.00     0.045 A 
BRANCH  11  13
HETATM   13  C   UNL     1      23.154  50.322  48.361  1.00  0.00     0.417 C 
HETATM   14  F   UNL     1      22.192  50.178  49.317  1.00  0.00    -0.166 F 
HETATM   15  F   UNL     1      23.314  51.665  48.195  1.00  0.00    -0.166 F 
HETATM   16  F   UNL     1      22.597  49.865  47.205  1.00  0.00    -0.166 F 
ENDBRANCH  11  13
ENDBRANCH   1   7
BRANCH   3  17
HETATM   17  C   UNL     1      25.405  44.107  51.890  1.00  0.00     0.148 A 
HETATM   18  N   UNL     1      24.340  43.664  51.179  1.00  0.00    -0.240 NA
HETATM   19  C   UNL     1      24.484  42.451  50.589  1.00  0.00     0.138 A 
HETATM   20  C   UNL     1      25.642  41.701  50.698  1.00  0.00     0.135 A 
HETATM   21  N   UNL     1      26.712  42.129  51.402  1.00  0.00    -0.268 NA
HETATM   22  C   UNL     1      26.566  43.342  51.991  1.00  0.00     0.166 A 
ENDBRANCH   3  17
TORSDOF 3
ENDMDL
MODEL 10
REMARK VINA RESULT:      -7.2      3.192      3.950
REMARK  3 active torsions:
REMARK  status: ('A' for Active; 'I' for Inactive)
REMARK    1  A    between atoms: C_3  and  N_4 
REMARK       I    between atoms: N_4  and  C_5 
REMARK       I    between atoms: C_5  and  N_6 
REMARK    2  A    between atoms: N_6  and  C_7 
REMARK    3  A    between atoms: C_15  and  C_16 
ROOT
HETATM    1  N   UNL     1      28.135  42.590  52.966  1.00  0.00    -0.309 N 
HETATM    2  C   UNL     1      28.017  41.231  53.016  1.00  0.00     0.326 C 
HETATM    3  N   UNL     1      27.410  40.632  51.947  1.00  0.00    -0.292 N 
HETATM    4  O   UNL     1      28.404  40.500  53.926  1.00  0.00    -0.247 OA
HETATM    5  H   UNL     1      27.751  43.003  52.119  1.00  0.00     0.170 HD
HETATM    6  H   UNL     1      27.358  39.629  52.051  1.00  0.00     0.172 HD
ENDROOT
BRANCH   1   7
HETATM    7  C   UNL     1      28.705  43.462  53.908  1.00  0.00     0.037 A 
HETATM    8  C   UNL     1      29.883  43.197  54.607  1.00  0.00     0.029 A 
HETATM    9  C   UNL     1      30.381  44.119  55.532  1.00  0.00     0.003 A 
HETATM   10  C   UNL     1      29.708  45.317  55.764  1.00  0.00     0.016 A 
HETATM   11  C   UNL     1      28.527  45.608  55.068  1.00  0.00     0.050 A 
HETATM   12  C   UNL     1      28.032  44.668  54.147  1.00  0.00     0.045 A 
BRANCH  11  13
HETATM   13  C   UNL     1      27.790  46.895  55.330  1.00  0.00     0.417 C 
HETATM   14  F   UNL     1      27.717  47.220  56.653  1.00  0.00    -0.166 F 
HETATM   15  F   UNL     1      28.373  47.962  54.717  1.00  0.00    -0.166 F 
HETATM   16  F   UNL     1      26.502  46.867  54.886  1.00  0.00    -0.166 F 
ENDBRANCH  11  13
ENDBRANCH   1   7
BRANCH   3  17
HETATM   17  C   UNL     1      26.879  41.209  50.788  1.00  0.00     0.148 A 
HETATM   18  N   UNL     1      25.664  41.808  50.817  1.00  0.00    -0.240 NA
HETATM   19  C   UNL     1      25.235  42.337  49.643  1.00  0.00     0.138 A 
HETATM   20  C   UNL     1      25.983  42.277  48.480  1.00  0.00     0.135 A 
HETATM   21  N   UNL     1      27.195  41.684  48.436  1.00  0.00    -0.268 NA
HETATM   22  C   UNL     1      27.622  41.155  49.610  1.00  0.00     0.166 A 
ENDBRANCH   3  17
TORSDOF 3
ENDMDL
