MODEL 1
REMARK VINA RESULT:      -9.8      0.000      0.000
REMARK  10 active torsions:
REMARK  status: ('A' for Active; 'I' for Inactive)
REMARK    1  A    between atoms: C_2  and  O_3 
REMARK    2  A    between atoms: O_3  and  C_4 
REMARK    3  A    between atoms: C_7  and  C_8 
REMARK    4  A    between atoms: C_8  and  C_9 
REMARK    5  A    between atoms: C_10  and  C_11 
REMARK    6  A    between atoms: C_13  and  N_14 
REMARK    7  A    between atoms: N_20  and  C_21 
REMARK    8  A    between atoms: C_21  and  C_22 
REMARK    9  A    between atoms: C_22  and  N_23 
REMARK   10  A    between atoms: C_34  and  O_35 
ROOT
HETATM    1  C   UNL     1      25.744  45.909  52.488  1.00  0.00     0.059 C 
HETATM    2  C   UNL     1      26.231  45.830  51.082  1.00  0.00     0.161 C 
HETATM    3  N   UNL     1      25.418  44.742  50.566  1.00  0.00    -0.332 N 
HETATM    4  C   UNL     1      24.773  44.076  51.599  1.00  0.00     0.278 C 
HETATM    5  O   UNL     1      24.369  42.927  51.521  1.00  0.00    -0.265 OA
HETATM    6  C   UNL     1      24.872  44.940  52.799  1.00  0.00     0.146 C 
ENDROOT
BRANCH   1   7
HETATM    7  C   UNL     1      26.303  46.784  53.535  1.00  0.00     0.193 C 
HETATM    8  O   UNL     1      25.758  47.833  53.844  1.00  0.00    -0.287 OA
BRANCH   7   9
HETATM    9  C   UNL     1      27.405  46.207  54.323  1.00  0.00     0.015 A 
HETATM   10  C   UNL     1      28.043  46.943  55.320  1.00  0.00     0.018 A 
HETATM   11  C   UNL     1      29.220  46.447  55.893  1.00  0.00     0.038 A 
HETATM   12  C   UNL     1      29.741  45.221  55.470  1.00  0.00     0.069 A 
HETATM   13  C   UNL     1      29.042  44.455  54.533  1.00  0.00     0.038 A 
HETATM   14  C   UNL     1      27.878  44.948  53.946  1.00  0.00     0.018 A 
BRANCH  12  15
HETATM   15  O   UNL     1      30.889  44.647  55.934  1.00  0.00    -0.347 OA
BRANCH  15  16
HETATM   16  C   UNL     1      30.850  43.998  57.212  1.00  0.00     0.120 C 
HETATM   17  C   UNL     1      31.085  45.021  58.323  1.00  0.00     0.040 C 
HETATM   18  C   UNL     1      31.972  42.964  57.210  1.00  0.00     0.040 C 
ENDBRANCH  15  16
ENDBRANCH  12  15
ENDBRANCH   7   9
ENDBRANCH   1   7
BRANCH   2  19
HETATM   19  C   UNL     1      26.129  47.065  50.218  1.00  0.00    -0.028 A 
HETATM   20  C   UNL     1      24.849  47.547  49.890  1.00  0.00     0.045 A 
HETATM   21  C   UNL     1      24.700  48.725  49.142  1.00  0.00     0.103 A 
HETATM   22  C   UNL     1      25.817  49.424  48.686  1.00  0.00     0.036 A 
HETATM   23  C   UNL     1      27.090  48.946  49.002  1.00  0.00     0.003 A 
HETATM   24  C   UNL     1      27.247  47.784  49.771  1.00  0.00     0.010 A 
BRANCH  21  25
HETATM   25  N   UNL     1      23.348  49.231  48.882  1.00  0.00    -0.116 N 
HETATM   26  O   UNL     1      22.898  50.060  49.692  1.00  0.00    -0.532 OA
HETATM   27  O   UNL     1      22.756  48.818  47.881  1.00  0.00    -0.532 OA
ENDBRANCH  21  25
ENDBRANCH   2  19
BRANCH   6  28
HETATM   28  O   UNL     1      24.322  44.643  54.010  1.00  0.00    -0.355 OA
HETATM   29  H   UNL     1      24.792  45.173  54.696  1.00  0.00     0.218 HD
ENDBRANCH   6  28
BRANCH   3  30
HETATM   30  C   UNL     1      25.647  44.093  49.289  1.00  0.00     0.155 C 
BRANCH  30  31
HETATM   31  C   UNL     1      26.862  43.149  49.334  1.00  0.00     0.254 C 
BRANCH  31  32
HETATM   32  N   UNL     1      26.464  41.677  49.412  1.00  0.00    -0.066 N 
HETATM   33  H   UNL     1      25.431  41.667  49.359  1.00  0.00     0.280 HD
HETATM   34  C   UNL     1      26.827  40.993  50.745  1.00  0.00     0.262 C 
HETATM   35  C   UNL     1      28.339  40.671  50.844  1.00  0.00     0.260 C 
HETATM   36  N   UNL     1      28.811  39.907  49.623  1.00  0.00    -0.072 N 
HETATM   37  H   UNL     1      28.464  38.934  49.653  1.00  0.00     0.277 HD
HETATM   38  H   UNL     1      29.839  39.800  49.686  1.00  0.00     0.277 HD
HETATM   39  C   UNL     1      28.469  40.556  48.305  1.00  0.00     0.260 C 
HETATM   40  C   UNL     1      26.954  40.866  48.210  1.00  0.00     0.262 C 
ENDBRANCH  31  32
ENDBRANCH  30  31
ENDBRANCH   3  30
TORSDOF 10
ENDMDL
MODEL 2
REMARK VINA RESULT:      -9.2      2.052      2.611
REMARK  10 active torsions:
REMARK  status: ('A' for Active; 'I' for Inactive)
REMARK    1  A    between atoms: C_2  and  O_3 
REMARK    2  A    between atoms: O_3  and  C_4 
REMARK    3  A    between atoms: C_7  and  C_8 
REMARK    4  A    between atoms: C_8  and  C_9 
REMARK    5  A    between atoms: C_10  and  C_11 
REMARK    6  A    between atoms: C_13  and  N_14 
REMARK    7  A    between atoms: N_20  and  C_21 
REMARK    8  A    between atoms: C_21  and  C_22 
REMARK    9  A    between atoms: C_22  and  N_23 
REMARK   10  A    between atoms: C_34  and  O_35 
ROOT
HETATM    1  C   UNL     1      25.587  45.589  52.528  1.00  0.00     0.059 C 
HETATM    2  C   UNL     1      25.908  45.692  51.076  1.00  0.00     0.161 C 
HETATM    3  N   UNL     1      25.303  44.472  50.570  1.00  0.00    -0.332 N 
HETATM    4  C   UNL     1      24.951  43.627  51.613  1.00  0.00     0.278 C 
HETATM    5  O   UNL     1      24.807  42.420  51.492  1.00  0.00    -0.265 OA
HETATM    6  C   UNL     1      24.998  44.431  52.856  1.00  0.00     0.146 C 
ENDROOT
BRANCH   1   7
HETATM    7  C   UNL     1      26.058  46.517  53.572  1.00  0.00     0.193 C 
HETATM    8  O   UNL     1      25.420  47.516  53.870  1.00  0.00    -0.287 OA
BRANCH   7   9
HETATM    9  C   UNL     1      27.201  46.046  54.373  1.00  0.00     0.015 A 
HETATM   10  C   UNL     1      27.663  46.770  55.471  1.00  0.00     0.018 A 
HETATM   11  C   UNL     1      28.876  46.412  56.069  1.00  0.00     0.038 A 
HETATM   12  C   UNL     1      29.610  45.333  55.570  1.00  0.00     0.069 A 
HETATM   13  C   UNL     1      29.091  44.563  54.525  1.00  0.00     0.038 A 
HETATM   14  C   UNL     1      27.891  44.921  53.914  1.00  0.00     0.018 A 
BRANCH  12  15
HETATM   15  O   UNL     1      30.812  44.904  56.051  1.00  0.00    -0.347 OA
BRANCH  15  16
HETATM   16  C   UNL     1      30.824  44.172  57.284  1.00  0.00     0.120 C 
HETATM   17  C   UNL     1      31.127  45.116  58.448  1.00  0.00     0.040 C 
HETATM   18  C   UNL     1      31.929  43.126  57.160  1.00  0.00     0.040 C 
ENDBRANCH  15  16
ENDBRANCH  12  15
ENDBRANCH   7   9
ENDBRANCH   1   7
BRANCH   2  19
HETATM   19  C   UNL     1      25.431  46.910  50.323  1.00  0.00    -0.028 A 
HETATM   20  C   UNL     1      26.390  47.823  49.848  1.00  0.00     0.045 A 
HETATM   21  C   UNL     1      26.002  48.938  49.090  1.00  0.00     0.103 A 
HETATM   22  C   UNL     1      24.656  49.178  48.816  1.00  0.00     0.036 A 
HETATM   23  C   UNL     1      23.698  48.279  49.291  1.00  0.00     0.003 A 
HETATM   24  C   UNL     1      24.081  47.149  50.027  1.00  0.00     0.010 A 
BRANCH  21  25
HETATM   25  N   UNL     1      27.040  49.825  48.556  1.00  0.00    -0.116 N 
HETATM   26  O   UNL     1      26.667  50.704  47.760  1.00  0.00    -0.532 OA
HETATM   27  O   UNL     1      28.201  49.655  48.937  1.00  0.00    -0.532 OA
ENDBRANCH  21  25
ENDBRANCH   2  19
BRANCH   6  28
HETATM   28  O   UNL     1      24.677  43.958  54.093  1.00  0.00    -0.355 OA
HETATM   29  H   UNL     1      24.314  44.706  54.622  1.00  0.00     0.218 HD
ENDBRANCH   6  28
BRANCH   3  30
HETATM   30  C   UNL     1      25.517  43.957  49.231  1.00  0.00     0.155 C 
BRANCH  30  31
HETATM   31  C   UNL     1      24.196  43.815  48.452  1.00  0.00     0.254 C 
BRANCH  31  32
HETATM   32  N   UNL     1      23.654  42.388  48.465  1.00  0.00    -0.066 N 
HETATM   33  H   UNL     1      23.238  42.257  49.403  1.00  0.00     0.280 HD
HETATM   34  C   UNL     1      24.735  41.298  48.325  1.00  0.00     0.262 C 
HETATM   35  C   UNL     1      25.255  41.173  46.871  1.00  0.00     0.260 C 
HETATM   36  N   UNL     1      24.104  41.012  45.897  1.00  0.00    -0.072 N 
HETATM   37  H   UNL     1      23.696  40.065  45.977  1.00  0.00     0.277 HD
HETATM   38  H   UNL     1      24.490  41.030  44.936  1.00  0.00     0.277 HD
HETATM   39  C   UNL     1      23.032  42.066  46.013  1.00  0.00     0.260 C 
HETATM   40  C   UNL     1      22.511  42.179  47.467  1.00  0.00     0.262 C 
ENDBRANCH  31  32
ENDBRANCH  30  31
ENDBRANCH   3  30
TORSDOF 10
ENDMDL
MODEL 3
REMARK VINA RESULT:      -9.2      1.880      2.901
REMARK  10 active torsions:
REMARK  status: ('A' for Active; 'I' for Inactive)
REMARK    1  A    between atoms: C_2  and  O_3 
REMARK    2  A    between atoms: O_3  and  C_4 
REMARK    3  A    between atoms: C_7  and  C_8 
REMARK    4  A    between atoms: C_8  and  C_9 
REMARK    5  A    between atoms: C_10  and  C_11 
REMARK    6  A    between atoms: C_13  and  N_14 
REMARK    7  A    between atoms: N_20  and  C_21 
REMARK    8  A    between atoms: C_21  and  C_22 
REMARK    9  A    between atoms: C_22  and  N_23 
REMARK   10  A    between atoms: C_34  and  O_35 
ROOT
HETATM    1  C   UNL     1      25.680  45.732  52.533  1.00  0.00     0.059 C 
HETATM    2  C   UNL     1      26.062  45.736  51.093  1.00  0.00     0.161 C 
HETATM    3  N   UNL     1      25.272  44.622  50.593  1.00  0.00    -0.332 N 
HETATM    4  C   UNL     1      24.747  43.881  51.641  1.00  0.00     0.278 C 
HETATM    5  O   UNL     1      24.401  42.714  51.544  1.00  0.00    -0.265 OA
HETATM    6  C   UNL     1      24.889  44.702  52.866  1.00  0.00     0.146 C 
ENDROOT
BRANCH   1   7
HETATM    7  C   UNL     1      26.268  46.596  53.573  1.00  0.00     0.193 C 
HETATM    8  O   UNL     1      25.620  47.489  54.099  1.00  0.00    -0.287 OA
BRANCH   7   9
HETATM    9  C   UNL     1      27.581  46.170  54.085  1.00  0.00     0.015 A 
HETATM   10  C   UNL     1      28.035  44.863  53.914  1.00  0.00     0.018 A 
HETATM   11  C   UNL     1      29.178  44.438  54.599  1.00  0.00     0.038 A 
HETATM   12  C   UNL     1      29.859  45.322  55.440  1.00  0.00     0.069 A 
HETATM   13  C   UNL     1      29.442  46.653  55.533  1.00  0.00     0.038 A 
HETATM   14  C   UNL     1      28.296  47.081  54.866  1.00  0.00     0.018 A 
BRANCH  12  15
HETATM   15  O   UNL     1      30.967  45.019  56.176  1.00  0.00    -0.347 OA
BRANCH  15  16
HETATM   16  C   UNL     1      30.800  44.201  57.342  1.00  0.00     0.120 C 
HETATM   17  C   UNL     1      30.900  45.062  58.602  1.00  0.00     0.040 C 
HETATM   18  C   UNL     1      31.928  43.175  57.321  1.00  0.00     0.040 C 
ENDBRANCH  15  16
ENDBRANCH  12  15
ENDBRANCH   7   9
ENDBRANCH   1   7
BRANCH   2  19
HETATM   19  C   UNL     1      25.826  46.995  50.293  1.00  0.00    -0.028 A 
HETATM   20  C   UNL     1      24.510  47.480  50.182  1.00  0.00     0.045 A 
HETATM   21  C   UNL     1      24.246  48.678  49.502  1.00  0.00     0.103 A 
HETATM   22  C   UNL     1      25.278  49.397  48.900  1.00  0.00     0.036 A 
HETATM   23  C   UNL     1      26.586  48.916  49.001  1.00  0.00     0.003 A 
HETATM   24  C   UNL     1      26.860  47.733  49.701  1.00  0.00     0.010 A 
BRANCH  21  25
HETATM   25  N   UNL     1      22.870  49.184  49.470  1.00  0.00    -0.116 N 
HETATM   26  O   UNL     1      22.688  50.333  49.909  1.00  0.00    -0.532 OA
HETATM   27  O   UNL     1      21.994  48.453  49.000  1.00  0.00    -0.532 OA
ENDBRANCH  21  25
ENDBRANCH   2  19
BRANCH   6  28
HETATM   28  O   UNL     1      24.450  44.327  54.101  1.00  0.00    -0.355 OA
HETATM   29  H   UNL     1      24.752  45.005  54.750  1.00  0.00     0.218 HD
ENDBRANCH   6  28
BRANCH   3  30
HETATM   30  C   UNL     1      25.439  44.039  49.275  1.00  0.00     0.155 C 
BRANCH  30  31
HETATM   31  C   UNL     1      24.239  44.338  48.358  1.00  0.00     0.254 C 
BRANCH  31  32
HETATM   32  N   UNL     1      22.964  43.626  48.804  1.00  0.00    -0.066 N 
HETATM   33  H   UNL     1      22.967  43.672  49.837  1.00  0.00     0.280 HD
HETATM   34  C   UNL     1      22.918  42.127  48.446  1.00  0.00     0.262 C 
HETATM   35  C   UNL     1      22.619  41.893  46.944  1.00  0.00     0.260 C 
HETATM   36  N   UNL     1      21.382  42.657  46.513  1.00  0.00    -0.072 N 
HETATM   37  H   UNL     1      20.532  42.206  46.892  1.00  0.00     0.277 HD
HETATM   38  H   UNL     1      21.278  42.551  45.488  1.00  0.00     0.277 HD
HETATM   39  C   UNL     1      21.402  44.127  46.851  1.00  0.00     0.260 C 
HETATM   40  C   UNL     1      21.692  44.352  48.356  1.00  0.00     0.262 C 
ENDBRANCH  31  32
ENDBRANCH  30  31
ENDBRANCH   3  30
TORSDOF 10
ENDMDL
MODEL 4
REMARK VINA RESULT:      -8.7      2.328      5.523
REMARK  10 active torsions:
REMARK  status: ('A' for Active; 'I' for Inactive)
REMARK    1  A    between atoms: C_2  and  O_3 
REMARK    2  A    between atoms: O_3  and  C_4 
REMARK    3  A    between atoms: C_7  and  C_8 
REMARK    4  A    between atoms: C_8  and  C_9 
REMARK    5  A    between atoms: C_10  and  C_11 
REMARK    6  A    between atoms: C_13  and  N_14 
REMARK    7  A    between atoms: N_20  and  C_21 
REMARK    8  A    between atoms: C_21  and  C_22 
REMARK    9  A    between atoms: C_22  and  N_23 
REMARK   10  A    between atoms: C_34  and  O_35 
ROOT
HETATM    1  C   UNL     1      25.402  45.552  52.722  1.00  0.00     0.059 C 
HETATM    2  C   UNL     1      25.163  44.697  51.525  1.00  0.00     0.161 C 
HETATM    3  N   UNL     1      25.142  45.696  50.470  1.00  0.00    -0.332 N 
HETATM    4  C   UNL     1      25.069  46.974  51.003  1.00  0.00     0.278 C 
HETATM    5  O   UNL     1      24.644  47.943  50.392  1.00  0.00    -0.265 OA
HETATM    6  C   UNL     1      25.396  46.863  52.443  1.00  0.00     0.146 C 
ENDROOT
BRANCH   1   7
HETATM    7  C   UNL     1      25.409  45.079  54.118  1.00  0.00     0.193 C 
HETATM    8  O   UNL     1      24.406  44.612  54.637  1.00  0.00    -0.287 OA
BRANCH   7   9
HETATM    9  C   UNL     1      26.735  44.995  54.754  1.00  0.00     0.015 A 
HETATM   10  C   UNL     1      27.373  46.131  55.250  1.00  0.00     0.018 A 
HETATM   11  C   UNL     1      28.713  46.050  55.643  1.00  0.00     0.038 A 
HETATM   12  C   UNL     1      29.399  44.836  55.544  1.00  0.00     0.069 A 
HETATM   13  C   UNL     1      28.720  43.686  55.128  1.00  0.00     0.038 A 
HETATM   14  C   UNL     1      27.390  43.761  54.720  1.00  0.00     0.018 A 
BRANCH  12  15
HETATM   15  O   UNL     1      30.708  44.637  55.872  1.00  0.00    -0.347 OA
BRANCH  15  16
HETATM   16  C   UNL     1      31.002  44.019  57.133  1.00  0.00     0.120 C 
HETATM   17  C   UNL     1      31.145  45.088  58.216  1.00  0.00     0.040 C 
HETATM   18  C   UNL     1      32.323  43.276  56.957  1.00  0.00     0.040 C 
ENDBRANCH  15  16
ENDBRANCH  12  15
ENDBRANCH   7   9
ENDBRANCH   1   7
BRANCH   2  19
HETATM   19  C   UNL     1      26.145  43.589  51.230  1.00  0.00    -0.028 A 
HETATM   20  C   UNL     1      25.665  42.413  50.624  1.00  0.00     0.045 A 
HETATM   21  C   UNL     1      26.546  41.380  50.273  1.00  0.00     0.103 A 
HETATM   22  C   UNL     1      27.910  41.485  50.544  1.00  0.00     0.036 A 
HETATM   23  C   UNL     1      28.391  42.647  51.152  1.00  0.00     0.003 A 
HETATM   24  C   UNL     1      27.520  43.694  51.482  1.00  0.00     0.010 A 
BRANCH  21  25
HETATM   25  N   UNL     1      26.014  40.202  49.579  1.00  0.00    -0.116 N 
HETATM   26  O   UNL     1      26.421  39.094  49.969  1.00  0.00    -0.532 OA
HETATM   27  O   UNL     1      25.195  40.383  48.674  1.00  0.00    -0.532 OA
ENDBRANCH  21  25
ENDBRANCH   2  19
BRANCH   6  28
HETATM   28  O   UNL     1      25.466  47.918  53.302  1.00  0.00    -0.355 OA
HETATM   29  H   UNL     1      24.709  48.520  53.108  1.00  0.00     0.218 HD
ENDBRANCH   6  28
BRANCH   3  30
HETATM   30  C   UNL     1      24.715  45.428  49.109  1.00  0.00     0.155 C 
BRANCH  30  31
HETATM   31  C   UNL     1      23.278  44.878  49.056  1.00  0.00     0.254 C 
BRANCH  31  32
HETATM   32  N   UNL     1      22.475  45.436  47.883  1.00  0.00    -0.066 N 
HETATM   33  H   UNL     1      23.006  45.173  47.034  1.00  0.00     0.280 HD
HETATM   34  C   UNL     1      22.374  46.974  47.859  1.00  0.00     0.262 C 
HETATM   35  C   UNL     1      21.366  47.509  48.906  1.00  0.00     0.260 C 
HETATM   36  N   UNL     1      20.026  46.812  48.774  1.00  0.00    -0.072 N 
HETATM   37  H   UNL     1      19.531  47.143  47.929  1.00  0.00     0.277 HD
HETATM   38  H   UNL     1      19.419  47.129  49.551  1.00  0.00     0.277 HD
HETATM   39  C   UNL     1      20.097  45.306  48.795  1.00  0.00     0.260 C 
HETATM   40  C   UNL     1      21.100  44.778  47.739  1.00  0.00     0.262 C 
ENDBRANCH  31  32
ENDBRANCH  30  31
ENDBRANCH   3  30
TORSDOF 10
ENDMDL
MODEL 5
REMARK VINA RESULT:      -8.6      3.230      5.560
REMARK  10 active torsions:
REMARK  status: ('A' for Active; 'I' for Inactive)
REMARK    1  A    between atoms: C_2  and  O_3 
REMARK    2  A    between atoms: O_3  and  C_4 
REMARK    3  A    between atoms: C_7  and  C_8 
REMARK    4  A    between atoms: C_8  and  C_9 
REMARK    5  A    between atoms: C_10  and  C_11 
REMARK    6  A    between atoms: C_13  and  N_14 
REMARK    7  A    between atoms: N_20  and  C_21 
REMARK    8  A    between atoms: C_21  and  C_22 
REMARK    9  A    between atoms: C_22  and  N_23 
REMARK   10  A    between atoms: C_34  and  O_35 
ROOT
HETATM    1  C   UNL     1      25.463  42.690  49.307  1.00  0.00     0.059 C 
HETATM    2  C   UNL     1      24.927  44.064  49.093  1.00  0.00     0.161 C 
HETATM    3  N   UNL     1      23.503  43.794  48.990  1.00  0.00    -0.332 N 
HETATM    4  C   UNL     1      23.268  42.434  48.851  1.00  0.00     0.278 C 
HETATM    5  O   UNL     1      22.255  41.965  48.355  1.00  0.00    -0.265 OA
HETATM    6  C   UNL     1      24.524  41.738  49.216  1.00  0.00     0.146 C 
ENDROOT
BRANCH   1   7
HETATM    7  C   UNL     1      26.892  42.335  49.373  1.00  0.00     0.193 C 
HETATM    8  O   UNL     1      27.564  42.209  48.360  1.00  0.00    -0.287 OA
BRANCH   7   9
HETATM    9  C   UNL     1      27.494  42.370  50.717  1.00  0.00     0.015 A 
HETATM   10  C   UNL     1      27.305  41.325  51.621  1.00  0.00     0.018 A 
HETATM   11  C   UNL     1      27.702  41.491  52.953  1.00  0.00     0.038 A 
HETATM   12  C   UNL     1      28.289  42.690  53.365  1.00  0.00     0.069 A 
HETATM   13  C   UNL     1      28.551  43.693  52.427  1.00  0.00     0.038 A 
HETATM   14  C   UNL     1      28.145  43.544  51.102  1.00  0.00     0.018 A 
BRANCH  12  15
HETATM   15  O   UNL     1      28.694  42.978  54.635  1.00  0.00    -0.347 OA
BRANCH  15  16
HETATM   16  C   UNL     1      29.688  43.997  54.812  1.00  0.00     0.120 C 
HETATM   17  C   UNL     1      30.854  43.450  55.635  1.00  0.00     0.040 C 
HETATM   18  C   UNL     1      29.011  45.140  55.563  1.00  0.00     0.040 C 
ENDBRANCH  15  16
ENDBRANCH  12  15
ENDBRANCH   7   9
ENDBRANCH   1   7
BRANCH   2  19
HETATM   19  C   UNL     1      25.224  45.118  50.134  1.00  0.00    -0.028 A 
HETATM   20  C   UNL     1      25.040  44.790  51.489  1.00  0.00     0.045 A 
HETATM   21  C   UNL     1      25.360  45.713  52.497  1.00  0.00     0.103 A 
HETATM   22  C   UNL     1      25.840  46.981  52.174  1.00  0.00     0.036 A 
HETATM   23  C   UNL     1      26.018  47.315  50.829  1.00  0.00     0.003 A 
HETATM   24  C   UNL     1      25.725  46.389  49.818  1.00  0.00     0.010 A 
BRANCH  21  25
HETATM   25  N   UNL     1      25.219  45.305  53.899  1.00  0.00    -0.116 N 
HETATM   26  O   UNL     1      24.746  44.174  54.106  1.00  0.00    -0.532 OA
HETATM   27  O   UNL     1      25.590  46.094  54.772  1.00  0.00    -0.532 OA
ENDBRANCH  21  25
ENDBRANCH   2  19
BRANCH   6  28
HETATM   28  O   UNL     1      24.677  40.384  49.240  1.00  0.00    -0.355 OA
HETATM   29  H   UNL     1      24.144  40.004  48.503  1.00  0.00     0.218 HD
ENDBRANCH   6  28
BRANCH   3  30
HETATM   30  C   UNL     1      22.523  44.770  48.550  1.00  0.00     0.155 C 
BRANCH  30  31
HETATM   31  C   UNL     1      22.739  45.179  47.081  1.00  0.00     0.254 C 
BRANCH  31  32
HETATM   32  N   UNL     1      22.154  44.170  46.095  1.00  0.00    -0.066 N 
HETATM   33  H   UNL     1      21.824  43.378  46.673  1.00  0.00     0.280 HD
HETATM   34  C   UNL     1      23.182  43.578  45.111  1.00  0.00     0.262 C 
HETATM   35  C   UNL     1      23.559  44.577  43.988  1.00  0.00     0.260 C 
HETATM   36  N   UNL     1      22.317  45.124  43.311  1.00  0.00    -0.072 N 
HETATM   37  H   UNL     1      21.889  44.401  42.710  1.00  0.00     0.277 HD
HETATM   38  H   UNL     1      22.612  45.856  42.640  1.00  0.00     0.277 HD
HETATM   39  C   UNL     1      21.295  45.710  44.253  1.00  0.00     0.260 C 
HETATM   40  C   UNL     1      20.917  44.702  45.367  1.00  0.00     0.262 C 
ENDBRANCH  31  32
ENDBRANCH  30  31
ENDBRANCH   3  30
TORSDOF 10
ENDMDL
MODEL 6
REMARK VINA RESULT:      -8.5      5.607      9.704
REMARK  10 active torsions:
REMARK  status: ('A' for Active; 'I' for Inactive)
REMARK    1  A    between atoms: C_2  and  O_3 
REMARK    2  A    between atoms: O_3  and  C_4 
REMARK    3  A    between atoms: C_7  and  C_8 
REMARK    4  A    between atoms: C_8  and  C_9 
REMARK    5  A    between atoms: C_10  and  C_11 
REMARK    6  A    between atoms: C_13  and  N_14 
REMARK    7  A    between atoms: N_20  and  C_21 
REMARK    8  A    between atoms: C_21  and  C_22 
REMARK    9  A    between atoms: C_22  and  N_23 
REMARK   10  A    between atoms: C_34  and  O_35 
ROOT
HETATM    1  C   UNL     1      22.833  48.651  48.346  1.00  0.00     0.059 C 
HETATM    2  C   UNL     1      22.050  47.408  48.094  1.00  0.00     0.161 C 
HETATM    3  N   UNL     1      22.795  46.444  48.886  1.00  0.00    -0.332 N 
HETATM    4  C   UNL     1      24.012  46.975  49.290  1.00  0.00     0.278 C 
HETATM    5  O   UNL     1      24.979  46.298  49.602  1.00  0.00    -0.265 OA
HETATM    6  C   UNL     1      23.942  48.438  49.068  1.00  0.00     0.146 C 
ENDROOT
BRANCH   1   7
HETATM    7  C   UNL     1      22.595  49.954  47.698  1.00  0.00     0.193 C 
HETATM    8  O   UNL     1      23.464  50.505  47.040  1.00  0.00    -0.287 OA
BRANCH   7   9
HETATM    9  C   UNL     1      21.198  50.420  47.704  1.00  0.00     0.015 A 
HETATM   10  C   UNL     1      20.312  50.065  46.687  1.00  0.00     0.018 A 
HETATM   11  C   UNL     1      19.068  50.700  46.608  1.00  0.00     0.038 A 
HETATM   12  C   UNL     1      18.718  51.674  47.547  1.00  0.00     0.069 A 
HETATM   13  C   UNL     1      19.580  51.955  48.611  1.00  0.00     0.038 A 
HETATM   14  C   UNL     1      20.828  51.339  48.689  1.00  0.00     0.018 A 
BRANCH  12  15
HETATM   15  O   UNL     1      17.549  52.376  47.560  1.00  0.00    -0.347 OA
BRANCH  15  16
HETATM   16  C   UNL     1      16.344  51.688  47.200  1.00  0.00     0.120 C 
HETATM   17  C   UNL     1      15.267  52.697  46.799  1.00  0.00     0.040 C 
HETATM   18  C   UNL     1      15.897  50.913  48.436  1.00  0.00     0.040 C 
ENDBRANCH  15  16
ENDBRANCH  12  15
ENDBRANCH   7   9
ENDBRANCH   1   7
BRANCH   2  19
HETATM   19  C   UNL     1      20.581  47.405  48.443  1.00  0.00    -0.028 A 
HETATM   20  C   UNL     1      20.166  48.090  49.600  1.00  0.00     0.045 A 
HETATM   21  C   UNL     1      18.806  48.168  49.935  1.00  0.00     0.103 A 
HETATM   22  C   UNL     1      17.842  47.545  49.144  1.00  0.00     0.036 A 
HETATM   23  C   UNL     1      18.248  46.857  47.998  1.00  0.00     0.003 A 
HETATM   24  C   UNL     1      19.603  46.796  47.643  1.00  0.00     0.010 A 
BRANCH  21  25
HETATM   25  N   UNL     1      18.412  48.952  51.110  1.00  0.00    -0.116 N 
HETATM   26  O   UNL     1      18.391  48.352  52.199  1.00  0.00    -0.532 OA
HETATM   27  O   UNL     1      18.145  50.146  50.948  1.00  0.00    -0.532 OA
ENDBRANCH  21  25
ENDBRANCH   2  19
BRANCH   6  28
HETATM   28  O   UNL     1      24.937  49.314  49.382  1.00  0.00    -0.355 OA
HETATM   29  H   UNL     1      24.711  50.187  48.984  1.00  0.00     0.218 HD
ENDBRANCH   6  28
BRANCH   3  30
HETATM   30  C   UNL     1      22.592  45.009  48.817  1.00  0.00     0.155 C 
BRANCH  30  31
HETATM   31  C   UNL     1      22.707  44.482  47.375  1.00  0.00     0.254 C 
BRANCH  31  32
HETATM   32  N   UNL     1      23.875  43.516  47.190  1.00  0.00    -0.066 N 
HETATM   33  H   UNL     1      24.658  44.093  46.835  1.00  0.00     0.280 HD
HETATM   34  C   UNL     1      23.634  42.427  46.126  1.00  0.00     0.262 C 
HETATM   35  C   UNL     1      22.689  41.311  46.635  1.00  0.00     0.260 C 
HETATM   36  N   UNL     1      23.167  40.762  47.965  1.00  0.00    -0.072 N 
HETATM   37  H   UNL     1      24.007  40.176  47.830  1.00  0.00     0.277 HD
HETATM   38  H   UNL     1      22.457  40.093  48.312  1.00  0.00     0.277 HD
HETATM   39  C   UNL     1      23.409  41.808  49.025  1.00  0.00     0.260 C 
HETATM   40  C   UNL     1      24.363  42.915  48.511  1.00  0.00     0.262 C 
ENDBRANCH  31  32
ENDBRANCH  30  31
ENDBRANCH   3  30
TORSDOF 10
ENDMDL
MODEL 7
REMARK VINA RESULT:      -8.4      3.420      7.650
REMARK  10 active torsions:
REMARK  status: ('A' for Active; 'I' for Inactive)
REMARK    1  A    between atoms: C_2  and  O_3 
REMARK    2  A    between atoms: O_3  and  C_4 
REMARK    3  A    between atoms: C_7  and  C_8 
REMARK    4  A    between atoms: C_8  and  C_9 
REMARK    5  A    between atoms: C_10  and  C_11 
REMARK    6  A    between atoms: C_13  and  N_14 
REMARK    7  A    between atoms: N_20  and  C_21 
REMARK    8  A    between atoms: C_21  and  C_22 
REMARK    9  A    between atoms: C_22  and  N_23 
REMARK   10  A    between atoms: C_34  and  O_35 
ROOT
HETATM    1  C   UNL     1      24.941  48.387  49.069  1.00  0.00     0.059 C 
HETATM    2  C   UNL     1      23.605  47.845  49.446  1.00  0.00     0.161 C 
HETATM    3  N   UNL     1      22.742  48.958  49.087  1.00  0.00    -0.332 N 
HETATM    4  C   UNL     1      23.490  50.098  48.829  1.00  0.00     0.278 C 
HETATM    5  O   UNL     1      23.047  51.233  48.901  1.00  0.00    -0.265 OA
HETATM    6  C   UNL     1      24.898  49.665  48.670  1.00  0.00     0.146 C 
ENDROOT
BRANCH   1   7
HETATM    7  C   UNL     1      26.232  47.718  49.317  1.00  0.00     0.193 C 
HETATM    8  O   UNL     1      27.255  48.083  48.757  1.00  0.00    -0.287 OA
BRANCH   7   9
HETATM    9  C   UNL     1      26.245  46.756  50.432  1.00  0.00     0.015 A 
HETATM   10  C   UNL     1      25.972  47.160  51.739  1.00  0.00     0.018 A 
HETATM   11  C   UNL     1      26.209  46.274  52.795  1.00  0.00     0.038 A 
HETATM   12  C   UNL     1      26.707  44.994  52.536  1.00  0.00     0.069 A 
HETATM   13  C   UNL     1      26.892  44.575  51.216  1.00  0.00     0.038 A 
HETATM   14  C   UNL     1      26.674  45.455  50.158  1.00  0.00     0.018 A 
BRANCH  12  15
HETATM   15  O   UNL     1      26.999  44.053  53.480  1.00  0.00    -0.347 OA
BRANCH  15  16
HETATM   16  C   UNL     1      28.363  43.632  53.613  1.00  0.00     0.120 C 
HETATM   17  C   UNL     1      28.418  42.143  53.953  1.00  0.00     0.040 C 
HETATM   18  C   UNL     1      28.962  44.449  54.754  1.00  0.00     0.040 C 
ENDBRANCH  15  16
ENDBRANCH  12  15
ENDBRANCH   7   9
ENDBRANCH   1   7
BRANCH   2  19
HETATM   19  C   UNL     1      23.150  46.554  48.808  1.00  0.00    -0.028 A 
HETATM   20  C   UNL     1      23.284  45.361  49.541  1.00  0.00     0.045 A 
HETATM   21  C   UNL     1      22.821  44.145  49.018  1.00  0.00     0.103 A 
HETATM   22  C   UNL     1      22.244  44.090  47.750  1.00  0.00     0.036 A 
HETATM   23  C   UNL     1      22.115  45.270  47.013  1.00  0.00     0.003 A 
HETATM   24  C   UNL     1      22.553  46.493  47.541  1.00  0.00     0.010 A 
BRANCH  21  25
HETATM   25  N   UNL     1      22.916  42.937  49.845  1.00  0.00    -0.116 N 
HETATM   26  O   UNL     1      22.562  41.870  49.316  1.00  0.00    -0.532 OA
HETATM   27  O   UNL     1      23.352  43.054  50.994  1.00  0.00    -0.532 OA
ENDBRANCH  21  25
ENDBRANCH   2  19
BRANCH   6  28
HETATM   28  O   UNL     1      25.932  50.500  48.368  1.00  0.00    -0.355 OA
HETATM   29  H   UNL     1      25.942  50.633  47.391  1.00  0.00     0.218 HD
ENDBRANCH   6  28
BRANCH   3  30
HETATM   30  C   UNL     1      21.343  49.051  49.458  1.00  0.00     0.155 C 
BRANCH  30  31
HETATM   31  C   UNL     1      20.440  49.305  48.237  1.00  0.00     0.254 C 
BRANCH  31  32
HETATM   32  N   UNL     1      19.961  50.753  48.149  1.00  0.00    -0.066 N 
HETATM   33  H   UNL     1      20.780  51.296  47.825  1.00  0.00     0.280 HD
HETATM   34  C   UNL     1      19.552  51.368  49.502  1.00  0.00     0.262 C 
HETATM   35  C   UNL     1      18.171  50.857  49.982  1.00  0.00     0.260 C 
HETATM   36  N   UNL     1      17.124  51.025  48.898  1.00  0.00    -0.072 N 
HETATM   37  H   UNL     1      16.871  52.023  48.797  1.00  0.00     0.277 HD
HETATM   38  H   UNL     1      16.246  50.584  49.226  1.00  0.00     0.277 HD
HETATM   39  C   UNL     1      17.500  50.432  47.564  1.00  0.00     0.260 C 
HETATM   40  C   UNL     1      18.878  50.955  47.086  1.00  0.00     0.262 C 
ENDBRANCH  31  32
ENDBRANCH  30  31
ENDBRANCH   3  30
TORSDOF 10
ENDMDL
MODEL 8
REMARK VINA RESULT:      -8.4      2.420      6.222
REMARK  10 active torsions:
REMARK  status: ('A' for Active; 'I' for Inactive)
REMARK    1  A    between atoms: C_2  and  O_3 
REMARK    2  A    between atoms: O_3  and  C_4 
REMARK    3  A    between atoms: C_7  and  C_8 
REMARK    4  A    between atoms: C_8  and  C_9 
REMARK    5  A    between atoms: C_10  and  C_11 
REMARK    6  A    between atoms: C_13  and  N_14 
REMARK    7  A    between atoms: N_20  and  C_21 
REMARK    8  A    between atoms: C_21  and  C_22 
REMARK    9  A    between atoms: C_22  and  N_23 
REMARK   10  A    between atoms: C_34  and  O_35 
ROOT
HETATM    1  C   UNL     1      25.268  45.450  52.119  1.00  0.00     0.059 C 
HETATM    2  C   UNL     1      24.442  44.771  51.081  1.00  0.00     0.161 C 
HETATM    3  N   UNL     1      24.466  45.759  50.016  1.00  0.00    -0.332 N 
HETATM    4  C   UNL     1      24.969  46.967  50.476  1.00  0.00     0.278 C 
HETATM    5  O   UNL     1      24.740  48.045  49.949  1.00  0.00    -0.265 OA
HETATM    6  C   UNL     1      25.621  46.697  51.778  1.00  0.00     0.146 C 
ENDROOT
BRANCH   1   7
HETATM    7  C   UNL     1      25.500  44.949  53.486  1.00  0.00     0.193 C 
HETATM    8  O   UNL     1      24.647  44.307  54.081  1.00  0.00    -0.287 OA
BRANCH   7   9
HETATM    9  C   UNL     1      26.881  45.071  53.982  1.00  0.00     0.015 A 
HETATM   10  C   UNL     1      27.889  44.219  53.533  1.00  0.00     0.018 A 
HETATM   11  C   UNL     1      29.128  44.219  54.182  1.00  0.00     0.038 A 
HETATM   12  C   UNL     1      29.350  45.073  55.265  1.00  0.00     0.069 A 
HETATM   13  C   UNL     1      28.360  45.983  55.647  1.00  0.00     0.038 A 
HETATM   14  C   UNL     1      27.118  45.980  55.016  1.00  0.00     0.018 A 
BRANCH  12  15
HETATM   15  O   UNL     1      30.503  45.148  55.991  1.00  0.00    -0.347 OA
BRANCH  15  16
HETATM   16  C   UNL     1      30.583  44.395  57.209  1.00  0.00     0.120 C 
HETATM   17  C   UNL     1      30.764  45.341  58.396  1.00  0.00     0.040 C 
HETATM   18  C   UNL     1      31.800  43.484  57.080  1.00  0.00     0.040 C 
ENDBRANCH  15  16
ENDBRANCH  12  15
ENDBRANCH   7   9
ENDBRANCH   1   7
BRANCH   2  19
HETATM   19  C   UNL     1      24.881  43.410  50.595  1.00  0.00    -0.028 A 
HETATM   20  C   UNL     1      26.053  42.852  51.136  1.00  0.00     0.045 A 
HETATM   21  C   UNL     1      26.470  41.565  50.763  1.00  0.00     0.103 A 
HETATM   22  C   UNL     1      25.746  40.827  49.827  1.00  0.00     0.036 A 
HETATM   23  C   UNL     1      24.586  41.379  49.280  1.00  0.00     0.003 A 
HETATM   24  C   UNL     1      24.149  42.654  49.668  1.00  0.00     0.010 A 
BRANCH  21  25
HETATM   25  N   UNL     1      27.658  40.993  51.405  1.00  0.00    -0.116 N 
HETATM   26  O   UNL     1      28.514  40.497  50.652  1.00  0.00    -0.532 OA
HETATM   27  O   UNL     1      27.739  41.054  52.634  1.00  0.00    -0.532 OA
ENDBRANCH  21  25
ENDBRANCH   2  19
BRANCH   6  28
HETATM   28  O   UNL     1      26.269  47.635  52.525  1.00  0.00    -0.355 OA
HETATM   29  H   UNL     1      27.213  47.651  52.244  1.00  0.00     0.218 HD
ENDBRANCH   6  28
BRANCH   3  30
HETATM   30  C   UNL     1      23.620  45.702  48.838  1.00  0.00     0.155 C 
BRANCH  30  31
HETATM   31  C   UNL     1      22.226  46.299  49.104  1.00  0.00     0.254 C 
BRANCH  31  32
HETATM   32  N   UNL     1      21.952  47.550  48.272  1.00  0.00    -0.066 N 
HETATM   33  H   UNL     1      22.877  47.859  47.924  1.00  0.00     0.280 HD
HETATM   34  C   UNL     1      21.387  48.736  49.080  1.00  0.00     0.262 C 
HETATM   35  C   UNL     1      19.890  48.544  49.429  1.00  0.00     0.260 C 
HETATM   36  N   UNL     1      19.082  48.215  48.189  1.00  0.00    -0.072 N 
HETATM   37  H   UNL     1      18.976  49.057  47.597  1.00  0.00     0.277 HD
HETATM   38  H   UNL     1      18.113  48.001  48.483  1.00  0.00     0.277 HD
HETATM   39  C   UNL     1      19.614  47.059  47.381  1.00  0.00     0.260 C 
HETATM   40  C   UNL     1      21.109  47.263  47.028  1.00  0.00     0.262 C 
ENDBRANCH  31  32
ENDBRANCH  30  31
ENDBRANCH   3  30
TORSDOF 10
ENDMDL
MODEL 9
REMARK VINA RESULT:      -8.4     11.978     13.922
REMARK  10 active torsions:
REMARK  status: ('A' for Active; 'I' for Inactive)
REMARK    1  A    between atoms: C_2  and  O_3 
REMARK    2  A    between atoms: O_3  and  C_4 
REMARK    3  A    between atoms: C_7  and  C_8 
REMARK    4  A    between atoms: C_8  and  C_9 
REMARK    5  A    between atoms: C_10  and  C_11 
REMARK    6  A    between atoms: C_13  and  N_14 
REMARK    7  A    between atoms: N_20  and  C_21 
REMARK    8  A    between atoms: C_21  and  C_22 
REMARK    9  A    between atoms: C_22  and  N_23 
REMARK   10  A    between atoms: C_34  and  O_35 
ROOT
HETATM    1  C   UNL     1      27.936  46.767  39.896  1.00  0.00     0.059 C 
HETATM    2  C   UNL     1      27.251  47.861  39.150  1.00  0.00     0.161 C 
HETATM    3  N   UNL     1      25.856  47.521  39.377  1.00  0.00    -0.332 N 
HETATM    4  C   UNL     1      25.741  46.246  39.913  1.00  0.00     0.278 C 
HETATM    5  O   UNL     1      24.732  45.563  39.831  1.00  0.00    -0.265 OA
HETATM    6  C   UNL     1      27.089  45.849  40.382  1.00  0.00     0.146 C 
ENDROOT
BRANCH   1   7
HETATM    7  C   UNL     1      29.392  46.537  39.924  1.00  0.00     0.193 C 
HETATM    8  O   UNL     1      29.885  45.526  39.447  1.00  0.00    -0.287 OA
BRANCH   7   9
HETATM    9  C   UNL     1      30.209  47.688  40.345  1.00  0.00     0.015 A 
HETATM   10  C   UNL     1      30.090  48.230  41.624  1.00  0.00     0.018 A 
HETATM   11  C   UNL     1      30.714  49.448  41.914  1.00  0.00     0.038 A 
HETATM   12  C   UNL     1      31.455  50.107  40.930  1.00  0.00     0.069 A 
HETATM   13  C   UNL     1      31.638  49.507  39.680  1.00  0.00     0.038 A 
HETATM   14  C   UNL     1      31.007  48.302  39.377  1.00  0.00     0.018 A 
BRANCH  12  15
HETATM   15  O   UNL     1      32.087  51.306  41.084  1.00  0.00    -0.347 OA
BRANCH  15  16
HETATM   16  C   UNL     1      31.921  52.294  40.058  1.00  0.00     0.120 C 
HETATM   17  C   UNL     1      33.286  52.710  39.509  1.00  0.00     0.040 C 
HETATM   18  C   UNL     1      31.236  53.490  40.711  1.00  0.00     0.040 C 
ENDBRANCH  15  16
ENDBRANCH  12  15
ENDBRANCH   7   9
ENDBRANCH   1   7
BRANCH   2  19
HETATM   19  C   UNL     1      27.551  49.289  39.539  1.00  0.00    -0.028 A 
HETATM   20  C   UNL     1      28.204  50.113  38.605  1.00  0.00     0.045 A 
HETATM   21  C   UNL     1      28.451  51.464  38.894  1.00  0.00     0.103 A 
HETATM   22  C   UNL     1      28.078  52.008  40.123  1.00  0.00     0.036 A 
HETATM   23  C   UNL     1      27.436  51.192  41.057  1.00  0.00     0.003 A 
HETATM   24  C   UNL     1      27.163  49.848  40.765  1.00  0.00     0.010 A 
BRANCH  21  25
HETATM   25  N   UNL     1      29.071  52.305  37.865  1.00  0.00    -0.116 N 
HETATM   26  O   UNL     1      28.691  53.487  37.808  1.00  0.00    -0.532 OA
HETATM   27  O   UNL     1      29.930  51.796  37.141  1.00  0.00    -0.532 OA
ENDBRANCH  21  25
ENDBRANCH   2  19
BRANCH   6  28
HETATM   28  O   UNL     1      27.373  44.671  41.005  1.00  0.00    -0.355 OA
HETATM   29  H   UNL     1      28.129  44.251  40.533  1.00  0.00     0.218 HD
ENDBRANCH   6  28
BRANCH   3  30
HETATM   30  C   UNL     1      24.747  48.140  38.676  1.00  0.00     0.155 C 
BRANCH  30  31
HETATM   31  C   UNL     1      23.691  48.694  39.649  1.00  0.00     0.254 C 
BRANCH  31  32
HETATM   32  N   UNL     1      22.411  49.136  38.941  1.00  0.00    -0.066 N 
HETATM   33  H   UNL     1      22.568  48.940  37.937  1.00  0.00     0.280 HD
HETATM   34  C   UNL     1      22.124  50.647  39.039  1.00  0.00     0.262 C 
HETATM   35  C   UNL     1      21.587  51.052  40.434  1.00  0.00     0.260 C 
HETATM   36  N   UNL     1      20.409  50.184  40.833  1.00  0.00    -0.072 N 
HETATM   37  H   UNL     1      19.571  50.443  40.286  1.00  0.00     0.277 HD
HETATM   38  H   UNL     1      20.147  50.423  41.806  1.00  0.00     0.277 HD
HETATM   39  C   UNL     1      20.664  48.700  40.747  1.00  0.00     0.260 C 
HETATM   40  C   UNL     1      21.192  48.303  39.346  1.00  0.00     0.262 C 
ENDBRANCH  31  32
ENDBRANCH  30  31
ENDBRANCH   3  30
TORSDOF 10
ENDMDL
MODEL 10
REMARK VINA RESULT:      -8.4      5.836     10.065
REMARK  10 active torsions:
REMARK  status: ('A' for Active; 'I' for Inactive)
REMARK    1  A    between atoms: C_2  and  O_3 
REMARK    2  A    between atoms: O_3  and  C_4 
REMARK    3  A    between atoms: C_7  and  C_8 
REMARK    4  A    between atoms: C_8  and  C_9 
REMARK    5  A    between atoms: C_10  and  C_11 
REMARK    6  A    between atoms: C_13  and  N_14 
REMARK    7  A    between atoms: N_20  and  C_21 
REMARK    8  A    between atoms: C_21  and  C_22 
REMARK    9  A    between atoms: C_22  and  N_23 
REMARK   10  A    between atoms: C_34  and  O_35 
ROOT
HETATM    1  C   UNL     1      19.069  47.470  49.303  1.00  0.00     0.059 C 
HETATM    2  C   UNL     1      20.521  47.220  49.086  1.00  0.00     0.161 C 
HETATM    3  N   UNL     1      20.475  46.127  48.129  1.00  0.00    -0.332 N 
HETATM    4  C   UNL     1      19.192  45.608  48.036  1.00  0.00     0.278 C 
HETATM    5  O   UNL     1      18.941  44.479  47.644  1.00  0.00    -0.265 OA
HETATM    6  C   UNL     1      18.281  46.585  48.676  1.00  0.00     0.146 C 
ENDROOT
BRANCH   1   7
HETATM    7  C   UNL     1      18.505  48.419  50.281  1.00  0.00     0.193 C 
HETATM    8  O   UNL     1      18.600  48.225  51.484  1.00  0.00    -0.287 OA
BRANCH   7   9
HETATM    9  C   UNL     1      18.037  49.701  49.725  1.00  0.00     0.015 A 
HETATM   10  C   UNL     1      18.621  50.909  50.103  1.00  0.00     0.018 A 
HETATM   11  C   UNL     1      18.013  52.112  49.729  1.00  0.00     0.038 A 
HETATM   12  C   UNL     1      16.836  52.097  48.977  1.00  0.00     0.069 A 
HETATM   13  C   UNL     1      16.312  50.879  48.531  1.00  0.00     0.038 A 
HETATM   14  C   UNL     1      16.902  49.676  48.912  1.00  0.00     0.018 A 
BRANCH  12  15
HETATM   15  O   UNL     1      16.140  53.198  48.573  1.00  0.00    -0.347 OA
BRANCH  15  16
HETATM   16  C   UNL     1      14.770  53.318  48.980  1.00  0.00     0.120 C 
HETATM   17  C   UNL     1      14.100  54.466  48.225  1.00  0.00     0.040 C 
HETATM   18  C   UNL     1      14.783  53.615  50.476  1.00  0.00     0.040 C 
ENDBRANCH  15  16
ENDBRANCH  12  15
ENDBRANCH   7   9
ENDBRANCH   1   7
BRANCH   2  19
HETATM   19  C   UNL     1      21.378  48.361  48.593  1.00  0.00    -0.028 A 
HETATM   20  C   UNL     1      22.743  48.368  48.932  1.00  0.00     0.045 A 
HETATM   21  C   UNL     1      23.595  49.373  48.449  1.00  0.00     0.103 A 
HETATM   22  C   UNL     1      23.099  50.399  47.646  1.00  0.00     0.036 A 
HETATM   23  C   UNL     1      21.743  50.402  47.312  1.00  0.00     0.003 A 
HETATM   24  C   UNL     1      20.891  49.387  47.770  1.00  0.00     0.010 A 
BRANCH  21  25
HETATM   25  N   UNL     1      25.024  49.303  48.769  1.00  0.00    -0.116 N 
HETATM   26  O   UNL     1      25.794  49.930  48.021  1.00  0.00    -0.532 OA
HETATM   27  O   UNL     1      25.366  48.647  49.757  1.00  0.00    -0.532 OA
ENDBRANCH  21  25
ENDBRANCH   2  19
BRANCH   6  28
HETATM   28  O   UNL     1      16.928  46.445  48.749  1.00  0.00    -0.355 OA
HETATM   29  H   UNL     1      16.560  46.559  47.841  1.00  0.00     0.218 HD
ENDBRANCH   6  28
BRANCH   3  30
HETATM   30  C   UNL     1      21.630  45.338  47.743  1.00  0.00     0.155 C 
BRANCH  30  31
HETATM   31  C   UNL     1      22.230  44.576  48.939  1.00  0.00     0.254 C 
BRANCH  31  32
HETATM   32  N   UNL     1      23.704  44.233  48.741  1.00  0.00    -0.066 N 
HETATM   33  H   UNL     1      23.861  44.264  47.719  1.00  0.00     0.280 HD
HETATM   34  C   UNL     1      24.088  42.808  49.186  1.00  0.00     0.262 C 
HETATM   35  C   UNL     1      24.183  42.682  50.727  1.00  0.00     0.260 C 
HETATM   36  N   UNL     1      25.082  43.759  51.303  1.00  0.00    -0.072 N 
HETATM   37  H   UNL     1      26.072  43.552  51.089  1.00  0.00     0.277 HD
HETATM   38  H   UNL     1      25.038  43.697  52.336  1.00  0.00     0.277 HD
HETATM   39  C   UNL     1      24.728  45.163  50.884  1.00  0.00     0.260 C 
HETATM   40  C   UNL     1      24.643  45.283  49.341  1.00  0.00     0.262 C 
ENDBRANCH  31  32
ENDBRANCH  30  31
ENDBRANCH   3  30
TORSDOF 10
ENDMDL
