MODEL 1
REMARK VINA RESULT:      -8.1      0.000      0.000
REMARK  9 active torsions:
REMARK  status: ('A' for Active; 'I' for Inactive)
REMARK    1  A    between atoms: C_2  and  N_3 
REMARK    2  A    between atoms: C_2  and  C_23 
REMARK       I    between atoms: N_3  and  C_4 
REMARK       I    between atoms: C_4  and  N_5 
REMARK    3  A    between atoms: N_5  and  C_6 
REMARK    4  A    between atoms: C_6  and  C_7 
REMARK    5  A    between atoms: C_7  and  N_8 
REMARK    6  A    between atoms: C_7  and  C_14 
REMARK    7  A    between atoms: C_15  and  O_16 
REMARK    8  A    between atoms: C_23  and  C_24 
REMARK    9  A    between atoms: C_27  and  O_28 
ROOT
HETATM    1  N   UNL     1      24.957  45.546  50.608  1.00  0.00    -0.339 N 
HETATM    2  C   UNL     1      24.412  46.766  50.335  1.00  0.00     0.316 C 
HETATM    3  N   UNL     1      23.360  46.677  49.450  1.00  0.00    -0.341 N 
HETATM    4  O   UNL     1      24.738  47.824  50.850  1.00  0.00    -0.248 OA
HETATM    5  H   UNL     1      24.758  44.804  49.953  1.00  0.00     0.164 HD
HETATM    6  H   UNL     1      23.480  45.935  48.771  1.00  0.00     0.164 HD
ENDROOT
BRANCH   3   7
HETATM    7  C   UNL     1      22.775  47.918  48.929  1.00  0.00     0.162 C 
BRANCH   7   8
HETATM    8  C   UNL     1      21.209  47.907  48.889  1.00  0.00     0.241 C 
BRANCH   8   9
HETATM    9  N   UNL     1      20.774  47.056  47.681  1.00  0.00    -0.061 N 
HETATM   10  H   UNL     1      21.674  46.898  47.202  1.00  0.00     0.280 HD
HETATM   11  C   UNL     1      19.820  47.651  46.698  1.00  0.00     0.236 C 
HETATM   12  C   UNL     1      18.456  47.120  47.094  1.00  0.00     0.029 C 
HETATM   13  C   UNL     1      18.706  45.866  47.920  1.00  0.00     0.029 C 
HETATM   14  C   UNL     1      20.212  45.707  48.021  1.00  0.00     0.236 C 
ENDBRANCH   8   9
BRANCH   8  15
HETATM   15  C   UNL     1      20.574  49.284  49.006  1.00  0.00     0.007 A 
HETATM   16  C   UNL     1      19.426  49.469  49.811  1.00  0.00     0.076 A 
HETATM   17  C   UNL     1      18.835  50.732  49.921  1.00  0.00     0.037 A 
HETATM   18  C   UNL     1      19.387  51.828  49.260  1.00  0.00     0.003 A 
HETATM   19  C   UNL     1      20.525  51.668  48.480  1.00  0.00     0.001 A 
HETATM   20  C   UNL     1      21.114  50.408  48.352  1.00  0.00     0.012 A 
BRANCH  16  21
HETATM   21  O   UNL     1      18.923  48.350  50.422  1.00  0.00    -0.355 OA
HETATM   22  C   UNL     1      18.519  48.494  51.783  1.00  0.00     0.210 C 
ENDBRANCH  16  21
ENDBRANCH   8  15
ENDBRANCH   7   8
ENDBRANCH   3   7
BRANCH   1  23
HETATM   23  C   UNL     1      26.240  45.384  51.305  1.00  0.00     0.086 C 
HETATM   24  C   UNL     1      27.308  44.705  50.449  1.00  0.00     0.032 C 
BRANCH  23  25
HETATM   25  C   UNL     1      26.075  44.668  52.665  1.00  0.00     0.063 C 
BRANCH  25  26
HETATM   26  C   UNL     1      27.181  45.019  53.638  1.00  0.00    -0.056 A 
HETATM   27  C   UNL     1      28.168  44.077  53.966  1.00  0.00     0.010 A 
HETATM   28  C   UNL     1      29.163  44.387  54.896  1.00  0.00     0.037 A 
HETATM   29  C   UNL     1      29.170  45.640  55.499  1.00  0.00     0.065 A 
HETATM   30  C   UNL     1      28.204  46.587  55.183  1.00  0.00     0.037 A 
HETATM   31  C   UNL     1      27.214  46.281  54.249  1.00  0.00     0.010 A 
BRANCH  29  32
HETATM   32  O   UNL     1      30.116  45.984  56.417  1.00  0.00    -0.361 OA
HETATM   33  H   UNL     1      30.988  45.981  55.990  1.00  0.00     0.217 HD
ENDBRANCH  29  32
ENDBRANCH  25  26
ENDBRANCH  23  25
ENDBRANCH   1  23
TORSDOF 9
ENDMDL
MODEL 2
REMARK VINA RESULT:      -7.8      6.459      8.864
REMARK  9 active torsions:
REMARK  status: ('A' for Active; 'I' for Inactive)
REMARK    1  A    between atoms: C_2  and  N_3 
REMARK    2  A    between atoms: C_2  and  C_23 
REMARK       I    between atoms: N_3  and  C_4 
REMARK       I    between atoms: C_4  and  N_5 
REMARK    3  A    between atoms: N_5  and  C_6 
REMARK    4  A    between atoms: C_6  and  C_7 
REMARK    5  A    between atoms: C_7  and  N_8 
REMARK    6  A    between atoms: C_7  and  C_14 
REMARK    7  A    between atoms: C_15  and  O_16 
REMARK    8  A    between atoms: C_23  and  C_24 
REMARK    9  A    between atoms: C_27  and  O_28 
ROOT
HETATM    1  N   UNL     1      26.911  42.887  53.558  1.00  0.00    -0.339 N 
HETATM    2  C   UNL     1      27.124  42.871  52.211  1.00  0.00     0.316 C 
HETATM    3  N   UNL     1      27.430  41.610  51.750  1.00  0.00    -0.341 N 
HETATM    4  O   UNL     1      26.993  43.824  51.459  1.00  0.00    -0.248 OA
HETATM    5  H   UNL     1      27.276  42.105  54.083  1.00  0.00     0.164 HD
HETATM    6  H   UNL     1      27.955  41.064  52.422  1.00  0.00     0.164 HD
ENDROOT
BRANCH   3   7
HETATM    7  C   UNL     1      27.848  41.457  50.351  1.00  0.00     0.162 C 
BRANCH   7   8
HETATM    8  C   UNL     1      27.039  40.369  49.567  1.00  0.00     0.241 C 
BRANCH   8   9
HETATM    9  N   UNL     1      27.484  38.988  50.084  1.00  0.00    -0.061 N 
HETATM   10  H   UNL     1      27.037  38.959  51.013  1.00  0.00     0.280 HD
HETATM   11  C   UNL     1      28.945  38.732  50.259  1.00  0.00     0.236 C 
HETATM   12  C   UNL     1      29.373  37.991  49.007  1.00  0.00     0.029 C 
HETATM   13  C   UNL     1      28.109  37.388  48.411  1.00  0.00     0.029 C 
HETATM   14  C   UNL     1      26.960  37.817  49.305  1.00  0.00     0.236 C 
ENDBRANCH   8   9
BRANCH   8  15
HETATM   15  C   UNL     1      27.042  40.557  48.058  1.00  0.00     0.007 A 
HETATM   16  C   UNL     1      25.827  40.520  47.337  1.00  0.00     0.076 A 
HETATM   17  C   UNL     1      25.822  40.689  45.949  1.00  0.00     0.037 A 
HETATM   18  C   UNL     1      27.014  40.924  45.263  1.00  0.00     0.003 A 
HETATM   19  C   UNL     1      28.215  40.982  45.960  1.00  0.00     0.001 A 
HETATM   20  C   UNL     1      28.231  40.800  47.344  1.00  0.00     0.012 A 
BRANCH  16  21
HETATM   21  O   UNL     1      24.693  40.269  48.065  1.00  0.00    -0.355 OA
HETATM   22  C   UNL     1      23.699  41.294  48.068  1.00  0.00     0.210 C 
ENDBRANCH  16  21
ENDBRANCH   8  15
ENDBRANCH   7   8
ENDBRANCH   3   7
BRANCH   1  23
HETATM   23  C   UNL     1      26.828  44.129  54.339  1.00  0.00     0.086 C 
HETATM   24  C   UNL     1      25.550  44.923  54.072  1.00  0.00     0.032 C 
BRANCH  23  25
HETATM   25  C   UNL     1      28.083  45.012  54.158  1.00  0.00     0.063 C 
BRANCH  25  26
HETATM   26  C   UNL     1      29.157  44.701  55.180  1.00  0.00    -0.056 A 
HETATM   27  C   UNL     1      29.405  45.581  56.244  1.00  0.00     0.010 A 
HETATM   28  C   UNL     1      30.425  45.314  57.162  1.00  0.00     0.037 A 
HETATM   29  C   UNL     1      31.197  44.168  57.013  1.00  0.00     0.065 A 
HETATM   30  C   UNL     1      30.963  43.283  55.968  1.00  0.00     0.037 A 
HETATM   31  C   UNL     1      29.941  43.544  55.056  1.00  0.00     0.010 A 
BRANCH  29  32
HETATM   32  O   UNL     1      32.207  43.872  57.878  1.00  0.00    -0.361 OA
HETATM   33  H   UNL     1      31.948  43.107  58.417  1.00  0.00     0.217 HD
ENDBRANCH  29  32
ENDBRANCH  25  26
ENDBRANCH  23  25
ENDBRANCH   1  23
TORSDOF 9
ENDMDL
MODEL 3
REMARK VINA RESULT:      -7.7      2.594      9.486
REMARK  9 active torsions:
REMARK  status: ('A' for Active; 'I' for Inactive)
REMARK    1  A    between atoms: C_2  and  N_3 
REMARK    2  A    between atoms: C_2  and  C_23 
REMARK       I    between atoms: N_3  and  C_4 
REMARK       I    between atoms: C_4  and  N_5 
REMARK    3  A    between atoms: N_5  and  C_6 
REMARK    4  A    between atoms: C_6  and  C_7 
REMARK    5  A    between atoms: C_7  and  N_8 
REMARK    6  A    between atoms: C_7  and  C_14 
REMARK    7  A    between atoms: C_15  and  O_16 
REMARK    8  A    between atoms: C_23  and  C_24 
REMARK    9  A    between atoms: C_27  and  O_28 
ROOT
HETATM    1  N   UNL     1      21.527  48.811  49.629  1.00  0.00    -0.339 N 
HETATM    2  C   UNL     1      22.681  48.352  49.065  1.00  0.00     0.316 C 
HETATM    3  N   UNL     1      23.431  47.611  49.951  1.00  0.00    -0.341 N 
HETATM    4  O   UNL     1      23.007  48.493  47.897  1.00  0.00    -0.248 OA
HETATM    5  H   UNL     1      21.492  48.828  50.638  1.00  0.00     0.164 HD
HETATM    6  H   UNL     1      23.349  47.940  50.905  1.00  0.00     0.164 HD
ENDROOT
BRANCH   3   7
HETATM    7  C   UNL     1      24.777  47.186  49.546  1.00  0.00     0.162 C 
BRANCH   7   8
HETATM    8  C   UNL     1      24.996  45.637  49.616  1.00  0.00     0.241 C 
BRANCH   8   9
HETATM    9  N   UNL     1      23.618  44.960  49.490  1.00  0.00    -0.061 N 
HETATM   10  H   UNL     1      22.981  45.738  49.724  1.00  0.00     0.280 HD
HETATM   11  C   UNL     1      23.304  43.812  50.392  1.00  0.00     0.236 C 
HETATM   12  C   UNL     1      23.578  42.570  49.568  1.00  0.00     0.029 C 
HETATM   13  C   UNL     1      23.527  43.002  48.109  1.00  0.00     0.029 C 
HETATM   14  C   UNL     1      23.259  44.496  48.109  1.00  0.00     0.236 C 
ENDBRANCH   8   9
BRANCH   8  15
HETATM   15  C   UNL     1      25.865  45.183  50.778  1.00  0.00     0.007 A 
HETATM   16  C   UNL     1      26.862  44.201  50.576  1.00  0.00     0.076 A 
HETATM   17  C   UNL     1      27.664  43.776  51.640  1.00  0.00     0.037 A 
HETATM   18  C   UNL     1      27.507  44.336  52.907  1.00  0.00     0.003 A 
HETATM   19  C   UNL     1      26.545  45.316  53.119  1.00  0.00     0.001 A 
HETATM   20  C   UNL     1      25.730  45.735  52.066  1.00  0.00     0.012 A 
BRANCH  16  21
HETATM   21  O   UNL     1      26.955  43.678  49.312  1.00  0.00    -0.355 OA
HETATM   22  C   UNL     1      27.091  42.260  49.217  1.00  0.00     0.210 C 
ENDBRANCH  16  21
ENDBRANCH   8  15
ENDBRANCH   7   8
ENDBRANCH   3   7
BRANCH   1  23
HETATM   23  C   UNL     1      20.681  49.832  48.996  1.00  0.00     0.086 C 
HETATM   24  C   UNL     1      21.409  51.155  48.760  1.00  0.00     0.032 C 
BRANCH  23  25
HETATM   25  C   UNL     1      19.360  50.051  49.768  1.00  0.00     0.063 C 
BRANCH  25  26
HETATM   26  C   UNL     1      18.170  49.447  49.052  1.00  0.00    -0.056 A 
HETATM   27  C   UNL     1      17.254  50.267  48.374  1.00  0.00     0.010 A 
HETATM   28  C   UNL     1      16.133  49.714  47.750  1.00  0.00     0.037 A 
HETATM   29  C   UNL     1      15.927  48.340  47.807  1.00  0.00     0.065 A 
HETATM   30  C   UNL     1      16.825  47.512  48.469  1.00  0.00     0.037 A 
HETATM   31  C   UNL     1      17.948  48.063  49.086  1.00  0.00     0.010 A 
BRANCH  29  32
HETATM   32  O   UNL     1      14.844  47.758  47.220  1.00  0.00    -0.361 OA
HETATM   33  H   UNL     1      14.581  48.284  46.447  1.00  0.00     0.217 HD
ENDBRANCH  29  32
ENDBRANCH  25  26
ENDBRANCH  23  25
ENDBRANCH   1  23
TORSDOF 9
ENDMDL
MODEL 4
REMARK VINA RESULT:      -7.6      6.094      8.194
REMARK  9 active torsions:
REMARK  status: ('A' for Active; 'I' for Inactive)
REMARK    1  A    between atoms: C_2  and  N_3 
REMARK    2  A    between atoms: C_2  and  C_23 
REMARK       I    between atoms: N_3  and  C_4 
REMARK       I    between atoms: C_4  and  N_5 
REMARK    3  A    between atoms: N_5  and  C_6 
REMARK    4  A    between atoms: C_6  and  C_7 
REMARK    5  A    between atoms: C_7  and  N_8 
REMARK    6  A    between atoms: C_7  and  C_14 
REMARK    7  A    between atoms: C_15  and  O_16 
REMARK    8  A    between atoms: C_23  and  C_24 
REMARK    9  A    between atoms: C_27  and  O_28 
ROOT
HETATM    1  N   UNL     1      27.276  42.114  53.231  1.00  0.00    -0.339 N 
HETATM    2  C   UNL     1      27.344  42.235  51.874  1.00  0.00     0.316 C 
HETATM    3  N   UNL     1      27.250  41.016  51.240  1.00  0.00    -0.341 N 
HETATM    4  O   UNL     1      27.404  43.286  51.255  1.00  0.00    -0.248 OA
HETATM    5  H   UNL     1      27.463  41.198  53.613  1.00  0.00     0.164 HD
HETATM    6  H   UNL     1      27.670  40.263  51.772  1.00  0.00     0.164 HD
ENDROOT
BRANCH   3   7
HETATM    7  C   UNL     1      27.473  40.960  49.790  1.00  0.00     0.162 C 
BRANCH   7   8
HETATM    8  C   UNL     1      26.472  40.021  49.035  1.00  0.00     0.241 C 
BRANCH   8   9
HETATM    9  N   UNL     1      27.283  38.860  48.429  1.00  0.00    -0.061 N 
HETATM   10  H   UNL     1      27.344  39.142  47.439  1.00  0.00     0.280 HD
HETATM   11  C   UNL     1      26.707  37.483  48.489  1.00  0.00     0.236 C 
HETATM   12  C   UNL     1      27.364  36.827  49.688  1.00  0.00     0.029 C 
HETATM   13  C   UNL     1      28.640  37.610  49.961  1.00  0.00     0.029 C 
HETATM   14  C   UNL     1      28.689  38.730  48.938  1.00  0.00     0.236 C 
ENDBRANCH   8   9
BRANCH   8  15
HETATM   15  C   UNL     1      25.528  40.747  48.090  1.00  0.00     0.007 A 
HETATM   16  C   UNL     1      24.521  41.594  48.608  1.00  0.00     0.076 A 
HETATM   17  C   UNL     1      23.647  42.263  47.745  1.00  0.00     0.037 A 
HETATM   18  C   UNL     1      23.775  42.124  46.364  1.00  0.00     0.003 A 
HETATM   19  C   UNL     1      24.771  41.310  45.838  1.00  0.00     0.001 A 
HETATM   20  C   UNL     1      25.639  40.627  46.692  1.00  0.00     0.012 A 
BRANCH  16  21
HETATM   21  O   UNL     1      24.436  41.677  49.973  1.00  0.00    -0.355 OA
HETATM   22  C   UNL     1      23.956  42.910  50.508  1.00  0.00     0.210 C 
ENDBRANCH  16  21
ENDBRANCH   8  15
ENDBRANCH   7   8
ENDBRANCH   3   7
BRANCH   1  23
HETATM   23  C   UNL     1      27.610  43.212  54.148  1.00  0.00     0.086 C 
HETATM   24  C   UNL     1      26.556  44.319  54.168  1.00  0.00     0.032 C 
BRANCH  23  25
HETATM   25  C   UNL     1      29.019  43.785  53.877  1.00  0.00     0.063 C 
BRANCH  25  26
HETATM   26  C   UNL     1      29.774  44.081  55.157  1.00  0.00    -0.056 A 
HETATM   27  C   UNL     1      30.711  43.166  55.659  1.00  0.00     0.010 A 
HETATM   28  C   UNL     1      31.376  43.419  56.861  1.00  0.00     0.037 A 
HETATM   29  C   UNL     1      31.102  44.588  57.562  1.00  0.00     0.065 A 
HETATM   30  C   UNL     1      30.181  45.508  57.078  1.00  0.00     0.037 A 
HETATM   31  C   UNL     1      29.522  45.260  55.874  1.00  0.00     0.010 A 
BRANCH  29  32
HETATM   32  O   UNL     1      31.720  44.872  58.742  1.00  0.00    -0.361 OA
HETATM   33  H   UNL     1      31.057  45.185  59.380  1.00  0.00     0.217 HD
ENDBRANCH  29  32
ENDBRANCH  25  26
ENDBRANCH  23  25
ENDBRANCH   1  23
TORSDOF 9
ENDMDL
MODEL 5
REMARK VINA RESULT:      -7.6      1.338      3.428
REMARK  9 active torsions:
REMARK  status: ('A' for Active; 'I' for Inactive)
REMARK    1  A    between atoms: C_2  and  N_3 
REMARK    2  A    between atoms: C_2  and  C_23 
REMARK       I    between atoms: N_3  and  C_4 
REMARK       I    between atoms: C_4  and  N_5 
REMARK    3  A    between atoms: N_5  and  C_6 
REMARK    4  A    between atoms: C_6  and  C_7 
REMARK    5  A    between atoms: C_7  and  N_8 
REMARK    6  A    between atoms: C_7  and  C_14 
REMARK    7  A    between atoms: C_15  and  O_16 
REMARK    8  A    between atoms: C_23  and  C_24 
REMARK    9  A    between atoms: C_27  and  O_28 
ROOT
HETATM    1  N   UNL     1      24.301  46.258  50.686  1.00  0.00    -0.339 N 
HETATM    2  C   UNL     1      23.991  47.353  49.935  1.00  0.00     0.316 C 
HETATM    3  N   UNL     1      22.819  47.183  49.231  1.00  0.00    -0.341 N 
HETATM    4  O   UNL     1      24.610  48.405  49.920  1.00  0.00    -0.248 OA
HETATM    5  H   UNL     1      23.849  45.391  50.431  1.00  0.00     0.164 HD
HETATM    6  H   UNL     1      22.673  46.224  48.938  1.00  0.00     0.164 HD
ENDROOT
BRANCH   3   7
HETATM    7  C   UNL     1      22.436  48.204  48.249  1.00  0.00     0.162 C 
BRANCH   7   8
HETATM    8  C   UNL     1      20.930  48.625  48.332  1.00  0.00     0.241 C 
BRANCH   8   9
HETATM    9  N   UNL     1      20.686  49.225  49.730  1.00  0.00    -0.061 N 
HETATM   10  H   UNL     1      21.311  48.651  50.316  1.00  0.00     0.280 HD
HETATM   11  C   UNL     1      19.309  49.154  50.304  1.00  0.00     0.236 C 
HETATM   12  C   UNL     1      18.687  50.506  50.020  1.00  0.00     0.029 C 
HETATM   13  C   UNL     1      19.841  51.469  49.780  1.00  0.00     0.029 C 
HETATM   14  C   UNL     1      21.116  50.654  49.894  1.00  0.00     0.236 C 
ENDBRANCH   8   9
BRANCH   8  15
HETATM   15  C   UNL     1      19.956  47.547  47.883  1.00  0.00     0.007 A 
HETATM   16  C   UNL     1      18.975  47.840  46.908  1.00  0.00     0.076 A 
HETATM   17  C   UNL     1      18.074  46.854  46.492  1.00  0.00     0.037 A 
HETATM   18  C   UNL     1      18.151  45.564  47.014  1.00  0.00     0.003 A 
HETATM   19  C   UNL     1      19.121  45.254  47.959  1.00  0.00     0.001 A 
HETATM   20  C   UNL     1      20.015  46.235  48.391  1.00  0.00     0.012 A 
BRANCH  16  21
HETATM   21  O   UNL     1      18.941  49.130  46.446  1.00  0.00    -0.355 OA
HETATM   22  C   UNL     1      17.670  49.780  46.465  1.00  0.00     0.210 C 
ENDBRANCH  16  21
ENDBRANCH   8  15
ENDBRANCH   7   8
ENDBRANCH   3   7
BRANCH   1  23
HETATM   23  C   UNL     1      25.613  46.071  51.321  1.00  0.00     0.086 C 
HETATM   24  C   UNL     1      26.668  45.512  50.367  1.00  0.00     0.032 C 
BRANCH  23  25
HETATM   25  C   UNL     1      25.518  45.224  52.610  1.00  0.00     0.063 C 
BRANCH  25  26
HETATM   26  C   UNL     1      26.682  45.472  53.547  1.00  0.00    -0.056 A 
HETATM   27  C   UNL     1      26.886  46.742  54.110  1.00  0.00     0.010 A 
HETATM   28  C   UNL     1      27.983  46.982  54.940  1.00  0.00     0.037 A 
HETATM   29  C   UNL     1      28.878  45.951  55.206  1.00  0.00     0.065 A 
HETATM   30  C   UNL     1      28.689  44.686  54.663  1.00  0.00     0.037 A 
HETATM   31  C   UNL     1      27.590  44.444  53.839  1.00  0.00     0.010 A 
BRANCH  29  32
HETATM   32  O   UNL     1      29.967  46.141  56.003  1.00  0.00    -0.361 OA
HETATM   33  H   UNL     1      29.689  46.105  56.933  1.00  0.00     0.217 HD
ENDBRANCH  29  32
ENDBRANCH  25  26
ENDBRANCH  23  25
ENDBRANCH   1  23
TORSDOF 9
ENDMDL
MODEL 6
REMARK VINA RESULT:      -7.5     12.897     14.173
REMARK  9 active torsions:
REMARK  status: ('A' for Active; 'I' for Inactive)
REMARK    1  A    between atoms: C_2  and  N_3 
REMARK    2  A    between atoms: C_2  and  C_23 
REMARK       I    between atoms: N_3  and  C_4 
REMARK       I    between atoms: C_4  and  N_5 
REMARK    3  A    between atoms: N_5  and  C_6 
REMARK    4  A    between atoms: C_6  and  C_7 
REMARK    5  A    between atoms: C_7  and  N_8 
REMARK    6  A    between atoms: C_7  and  C_14 
REMARK    7  A    between atoms: C_15  and  O_16 
REMARK    8  A    between atoms: C_23  and  C_24 
REMARK    9  A    between atoms: C_27  and  O_28 
ROOT
HETATM    1  N   UNL     1      35.568  51.087  42.086  1.00  0.00    -0.339 N 
HETATM    2  C   UNL     1      34.372  51.185  42.735  1.00  0.00     0.316 C 
HETATM    3  N   UNL     1      33.522  50.151  42.411  1.00  0.00    -0.341 N 
HETATM    4  O   UNL     1      34.081  52.028  43.568  1.00  0.00    -0.248 OA
HETATM    5  H   UNL     1      35.592  50.496  41.268  1.00  0.00     0.164 HD
HETATM    6  H   UNL     1      33.634  49.835  41.455  1.00  0.00     0.164 HD
ENDROOT
BRANCH   3   7
HETATM    7  C   UNL     1      32.138  50.202  42.898  1.00  0.00     0.162 C 
BRANCH   7   8
HETATM    8  C   UNL     1      31.070  49.904  41.791  1.00  0.00     0.241 C 
BRANCH   8   9
HETATM    9  N   UNL     1      31.774  49.146  40.650  1.00  0.00    -0.061 N 
HETATM   10  H   UNL     1      32.752  49.449  40.770  1.00  0.00     0.280 HD
HETATM   11  C   UNL     1      31.363  49.438  39.244  1.00  0.00     0.236 C 
HETATM   12  C   UNL     1      30.387  48.338  38.876  1.00  0.00     0.029 C 
HETATM   13  C   UNL     1      30.653  47.188  39.838  1.00  0.00     0.029 C 
HETATM   14  C   UNL     1      31.756  47.650  40.772  1.00  0.00     0.236 C 
ENDBRANCH   8   9
BRANCH   8  15
HETATM   15  C   UNL     1      30.239  51.112  41.386  1.00  0.00     0.007 A 
HETATM   16  C   UNL     1      28.831  51.075  41.504  1.00  0.00     0.076 A 
HETATM   17  C   UNL     1      28.061  52.181  41.131  1.00  0.00     0.037 A 
HETATM   18  C   UNL     1      28.674  53.342  40.664  1.00  0.00     0.003 A 
HETATM   19  C   UNL     1      30.058  53.402  40.559  1.00  0.00     0.001 A 
HETATM   20  C   UNL     1      30.835  52.298  40.915  1.00  0.00     0.012 A 
BRANCH  16  21
HETATM   21  O   UNL     1      28.288  49.900  41.954  1.00  0.00    -0.355 OA
HETATM   22  C   UNL     1      27.445  49.197  41.042  1.00  0.00     0.210 C 
ENDBRANCH  16  21
ENDBRANCH   8  15
ENDBRANCH   7   8
ENDBRANCH   3   7
BRANCH   1  23
HETATM   23  C   UNL     1      36.546  52.183  42.047  1.00  0.00     0.086 C 
HETATM   24  C   UNL     1      36.871  52.648  40.628  1.00  0.00     0.032 C 
BRANCH  23  25
HETATM   25  C   UNL     1      37.833  51.840  42.832  1.00  0.00     0.063 C 
BRANCH  25  26
HETATM   26  C   UNL     1      37.974  52.667  44.093  1.00  0.00    -0.056 A 
HETATM   27  C   UNL     1      37.268  53.871  44.239  1.00  0.00     0.010 A 
HETATM   28  C   UNL     1      37.431  54.655  45.383  1.00  0.00     0.037 A 
HETATM   29  C   UNL     1      38.303  54.236  46.381  1.00  0.00     0.065 A 
HETATM   30  C   UNL     1      39.007  53.044  46.257  1.00  0.00     0.037 A 
HETATM   31  C   UNL     1      38.839  52.257  45.118  1.00  0.00     0.010 A 
BRANCH  29  32
HETATM   32  O   UNL     1      38.500  54.972  47.511  1.00  0.00    -0.361 OA
HETATM   33  H   UNL     1      39.185  55.638  47.340  1.00  0.00     0.217 HD
ENDBRANCH  29  32
ENDBRANCH  25  26
ENDBRANCH  23  25
ENDBRANCH   1  23
TORSDOF 9
ENDMDL
MODEL 7
REMARK VINA RESULT:      -7.5      6.764      9.034
REMARK  9 active torsions:
REMARK  status: ('A' for Active; 'I' for Inactive)
REMARK    1  A    between atoms: C_2  and  N_3 
REMARK    2  A    between atoms: C_2  and  C_23 
REMARK       I    between atoms: N_3  and  C_4 
REMARK       I    between atoms: C_4  and  N_5 
REMARK    3  A    between atoms: N_5  and  C_6 
REMARK    4  A    between atoms: C_6  and  C_7 
REMARK    5  A    between atoms: C_7  and  N_8 
REMARK    6  A    between atoms: C_7  and  C_14 
REMARK    7  A    between atoms: C_15  and  O_16 
REMARK    8  A    between atoms: C_23  and  C_24 
REMARK    9  A    between atoms: C_27  and  O_28 
ROOT
HETATM    1  N   UNL     1      26.689  42.779  52.579  1.00  0.00    -0.339 N 
HETATM    2  C   UNL     1      27.002  41.633  51.909  1.00  0.00     0.316 C 
HETATM    3  N   UNL     1      26.099  41.356  50.906  1.00  0.00    -0.341 N 
HETATM    4  O   UNL     1      27.997  40.949  52.093  1.00  0.00    -0.248 OA
HETATM    5  H   UNL     1      25.739  43.110  52.490  1.00  0.00     0.164 HD
HETATM    6  H   UNL     1      25.157  41.649  51.135  1.00  0.00     0.164 HD
ENDROOT
BRANCH   3   7
HETATM    7  C   UNL     1      26.204  40.072  50.202  1.00  0.00     0.162 C 
BRANCH   7   8
HETATM    8  C   UNL     1      26.085  40.196  48.646  1.00  0.00     0.241 C 
BRANCH   8   9
HETATM    9  N   UNL     1      24.596  40.391  48.301  1.00  0.00    -0.061 N 
HETATM   10  H   UNL     1      24.136  40.028  49.151  1.00  0.00     0.280 HD
HETATM   11  C   UNL     1      24.038  39.666  47.121  1.00  0.00     0.236 C 
HETATM   12  C   UNL     1      24.051  40.675  45.990  1.00  0.00     0.029 C 
HETATM   13  C   UNL     1      24.107  42.050  46.641  1.00  0.00     0.029 C 
HETATM   14  C   UNL     1      24.161  41.819  48.140  1.00  0.00     0.236 C 
ENDBRANCH   8   9
BRANCH   8  15
HETATM   15  C   UNL     1      26.817  39.108  47.876  1.00  0.00     0.007 A 
HETATM   16  C   UNL     1      27.575  39.438  46.730  1.00  0.00     0.076 A 
HETATM   17  C   UNL     1      28.249  38.442  46.016  1.00  0.00     0.037 A 
HETATM   18  C   UNL     1      28.202  37.115  46.442  1.00  0.00     0.003 A 
HETATM   19  C   UNL     1      27.477  36.776  47.578  1.00  0.00     0.001 A 
HETATM   20  C   UNL     1      26.789  37.761  48.288  1.00  0.00     0.012 A 
BRANCH  16  21
HETATM   21  O   UNL     1      27.568  40.756  46.353  1.00  0.00    -0.355 OA
HETATM   22  C   UNL     1      27.672  41.019  44.954  1.00  0.00     0.210 C 
ENDBRANCH  16  21
ENDBRANCH   8  15
ENDBRANCH   7   8
ENDBRANCH   3   7
BRANCH   1  23
HETATM   23  C   UNL     1      27.327  43.161  53.846  1.00  0.00     0.086 C 
HETATM   24  C   UNL     1      26.336  43.693  54.881  1.00  0.00     0.032 C 
BRANCH  23  25
HETATM   25  C   UNL     1      28.496  44.148  53.632  1.00  0.00     0.063 C 
BRANCH  25  26
HETATM   26  C   UNL     1      29.416  44.218  54.833  1.00  0.00    -0.056 A 
HETATM   27  C   UNL     1      30.296  43.163  55.119  1.00  0.00     0.010 A 
HETATM   28  C   UNL     1      31.114  43.209  56.251  1.00  0.00     0.037 A 
HETATM   29  C   UNL     1      31.050  44.310  57.098  1.00  0.00     0.065 A 
HETATM   30  C   UNL     1      30.188  45.366  56.828  1.00  0.00     0.037 A 
HETATM   31  C   UNL     1      29.377  45.324  55.694  1.00  0.00     0.010 A 
BRANCH  29  32
HETATM   32  O   UNL     1      31.822  44.394  58.217  1.00  0.00    -0.361 OA
HETATM   33  H   UNL     1      32.758  44.364  57.959  1.00  0.00     0.217 HD
ENDBRANCH  29  32
ENDBRANCH  25  26
ENDBRANCH  23  25
ENDBRANCH   1  23
TORSDOF 9
ENDMDL
MODEL 8
REMARK VINA RESULT:      -7.4     12.836     15.934
REMARK  9 active torsions:
REMARK  status: ('A' for Active; 'I' for Inactive)
REMARK    1  A    between atoms: C_2  and  N_3 
REMARK    2  A    between atoms: C_2  and  C_23 
REMARK       I    between atoms: N_3  and  C_4 
REMARK       I    between atoms: C_4  and  N_5 
REMARK    3  A    between atoms: N_5  and  C_6 
REMARK    4  A    between atoms: C_6  and  C_7 
REMARK    5  A    between atoms: C_7  and  N_8 
REMARK    6  A    between atoms: C_7  and  C_14 
REMARK    7  A    between atoms: C_15  and  O_16 
REMARK    8  A    between atoms: C_23  and  C_24 
REMARK    9  A    between atoms: C_27  and  O_28 
ROOT
HETATM    1  N   UNL     1      31.636  50.891  38.302  1.00  0.00    -0.339 N 
HETATM    2  C   UNL     1      32.363  51.696  39.129  1.00  0.00     0.316 C 
HETATM    3  N   UNL     1      33.699  51.360  39.135  1.00  0.00    -0.341 N 
HETATM    4  O   UNL     1      31.933  52.658  39.745  1.00  0.00    -0.248 OA
HETATM    5  H   UNL     1      32.056  50.010  38.044  1.00  0.00     0.164 HD
HETATM    6  H   UNL     1      33.854  50.366  39.018  1.00  0.00     0.164 HD
ENDROOT
BRANCH   3   7
HETATM    7  C   UNL     1      34.585  52.025  40.099  1.00  0.00     0.162 C 
BRANCH   7   8
HETATM    8  C   UNL     1      34.873  51.172  41.381  1.00  0.00     0.241 C 
BRANCH   8   9
HETATM    9  N   UNL     1      36.265  50.534  41.218  1.00  0.00    -0.061 N 
HETATM   10  H   UNL     1      36.024  49.593  40.872  1.00  0.00     0.280 HD
HETATM   11  C   UNL     1      37.123  50.380  42.431  1.00  0.00     0.236 C 
HETATM   12  C   UNL     1      38.070  51.564  42.403  1.00  0.00     0.029 C 
HETATM   13  C   UNL     1      38.100  52.056  40.963  1.00  0.00     0.029 C 
HETATM   14  C   UNL     1      37.143  51.174  40.183  1.00  0.00     0.236 C 
ENDBRANCH   8   9
BRANCH   8  15
HETATM   15  C   UNL     1      33.743  50.233  41.771  1.00  0.00     0.007 A 
HETATM   16  C   UNL     1      32.740  50.666  42.669  1.00  0.00     0.076 A 
HETATM   17  C   UNL     1      31.699  49.807  43.035  1.00  0.00     0.037 A 
HETATM   18  C   UNL     1      31.623  48.523  42.498  1.00  0.00     0.003 A 
HETATM   19  C   UNL     1      32.590  48.088  41.600  1.00  0.00     0.001 A 
HETATM   20  C   UNL     1      33.641  48.933  41.240  1.00  0.00     0.012 A 
BRANCH  16  21
HETATM   21  O   UNL     1      32.879  51.933  43.174  1.00  0.00    -0.355 OA
HETATM   22  C   UNL     1      32.774  52.069  44.591  1.00  0.00     0.210 C 
ENDBRANCH  16  21
ENDBRANCH   8  15
ENDBRANCH   7   8
ENDBRANCH   3   7
BRANCH   1  23
HETATM   23  C   UNL     1      30.167  50.861  38.307  1.00  0.00     0.086 C 
HETATM   24  C   UNL     1      29.538  52.177  37.851  1.00  0.00     0.032 C 
BRANCH  23  25
HETATM   25  C   UNL     1      29.601  50.414  39.674  1.00  0.00     0.063 C 
BRANCH  25  26
HETATM   26  C   UNL     1      29.342  48.922  39.728  1.00  0.00    -0.056 A 
HETATM   27  C   UNL     1      28.387  48.396  40.611  1.00  0.00     0.010 A 
HETATM   28  C   UNL     1      28.178  47.017  40.692  1.00  0.00     0.037 A 
HETATM   29  C   UNL     1      28.928  46.164  39.890  1.00  0.00     0.065 A 
HETATM   30  C   UNL     1      29.875  46.667  39.006  1.00  0.00     0.037 A 
HETATM   31  C   UNL     1      30.078  48.044  38.919  1.00  0.00     0.010 A 
BRANCH  29  32
HETATM   32  O   UNL     1      28.765  44.813  39.940  1.00  0.00    -0.361 OA
HETATM   33  H   UNL     1      27.931  44.577  39.501  1.00  0.00     0.217 HD
ENDBRANCH  29  32
ENDBRANCH  25  26
ENDBRANCH  23  25
ENDBRANCH   1  23
TORSDOF 9
ENDMDL
MODEL 9
REMARK VINA RESULT:      -7.2     13.183     14.774
REMARK  9 active torsions:
REMARK  status: ('A' for Active; 'I' for Inactive)
REMARK    1  A    between atoms: C_2  and  N_3 
REMARK    2  A    between atoms: C_2  and  C_23 
REMARK       I    between atoms: N_3  and  C_4 
REMARK       I    between atoms: C_4  and  N_5 
REMARK    3  A    between atoms: N_5  and  C_6 
REMARK    4  A    between atoms: C_6  and  C_7 
REMARK    5  A    between atoms: C_7  and  N_8 
REMARK    6  A    between atoms: C_7  and  C_14 
REMARK    7  A    between atoms: C_15  and  O_16 
REMARK    8  A    between atoms: C_23  and  C_24 
REMARK    9  A    between atoms: C_27  and  O_28 
ROOT
HETATM    1  N   UNL     1      35.317  50.410  42.408  1.00  0.00    -0.339 N 
HETATM    2  C   UNL     1      34.090  50.898  42.748  1.00  0.00     0.316 C 
HETATM    3  N   UNL     1      33.119  49.921  42.721  1.00  0.00    -0.341 N 
HETATM    4  O   UNL     1      33.852  52.039  43.113  1.00  0.00    -0.248 OA
HETATM    5  H   UNL     1      35.333  49.532  41.910  1.00  0.00     0.164 HD
HETATM    6  H   UNL     1      33.283  49.225  42.004  1.00  0.00     0.164 HD
ENDROOT
BRANCH   3   7
HETATM    7  C   UNL     1      31.718  50.320  42.900  1.00  0.00     0.162 C 
BRANCH   7   8
HETATM    8  C   UNL     1      30.986  50.670  41.560  1.00  0.00     0.241 C 
BRANCH   8   9
HETATM    9  N   UNL     1      29.931  51.749  41.868  1.00  0.00    -0.061 N 
HETATM   10  H   UNL     1      29.828  51.654  42.890  1.00  0.00     0.280 HD
HETATM   11  C   UNL     1      28.579  51.619  41.247  1.00  0.00     0.236 C 
HETATM   12  C   UNL     1      28.610  52.522  40.030  1.00  0.00     0.029 C 
HETATM   13  C   UNL     1      29.736  53.520  40.263  1.00  0.00     0.029 C 
HETATM   14  C   UNL     1      30.364  53.160  41.597  1.00  0.00     0.236 C 
ENDBRANCH   8   9
BRANCH   8  15
HETATM   15  C   UNL     1      30.502  49.458  40.780  1.00  0.00     0.007 A 
HETATM   16  C   UNL     1      30.956  49.238  39.459  1.00  0.00     0.076 A 
HETATM   17  C   UNL     1      30.513  48.127  38.734  1.00  0.00     0.037 A 
HETATM   18  C   UNL     1      29.640  47.209  39.315  1.00  0.00     0.003 A 
HETATM   19  C   UNL     1      29.199  47.399  40.619  1.00  0.00     0.001 A 
HETATM   20  C   UNL     1      29.624  48.513  41.345  1.00  0.00     0.012 A 
BRANCH  16  21
HETATM   21  O   UNL     1      31.800  50.184  38.939  1.00  0.00    -0.355 OA
HETATM   22  C   UNL     1      31.244  51.069  37.967  1.00  0.00     0.210 C 
ENDBRANCH  16  21
ENDBRANCH   8  15
ENDBRANCH   7   8
ENDBRANCH   3   7
BRANCH   1  23
HETATM   23  C   UNL     1      36.464  51.277  42.106  1.00  0.00     0.086 C 
HETATM   24  C   UNL     1      37.115  50.965  40.759  1.00  0.00     0.032 C 
BRANCH  23  25
HETATM   25  C   UNL     1      37.508  51.277  43.245  1.00  0.00     0.063 C 
BRANCH  25  26
HETATM   26  C   UNL     1      37.682  52.648  43.866  1.00  0.00    -0.056 A 
HETATM   27  C   UNL     1      37.870  53.778  43.056  1.00  0.00     0.010 A 
HETATM   28  C   UNL     1      38.073  55.036  43.629  1.00  0.00     0.037 A 
HETATM   29  C   UNL     1      38.091  55.162  45.013  1.00  0.00     0.065 A 
HETATM   30  C   UNL     1      37.902  54.055  45.831  1.00  0.00     0.037 A 
HETATM   31  C   UNL     1      37.692  52.800  45.260  1.00  0.00     0.010 A 
BRANCH  29  32
HETATM   32  O   UNL     1      38.294  56.367  45.616  1.00  0.00    -0.361 OA
HETATM   33  H   UNL     1      37.865  57.061  45.091  1.00  0.00     0.217 HD
ENDBRANCH  29  32
ENDBRANCH  25  26
ENDBRANCH  23  25
ENDBRANCH   1  23
TORSDOF 9
ENDMDL
MODEL 10
REMARK VINA RESULT:      -7.2      2.359      8.895
REMARK  9 active torsions:
REMARK  status: ('A' for Active; 'I' for Inactive)
REMARK    1  A    between atoms: C_2  and  N_3 
REMARK    2  A    between atoms: C_2  and  C_23 
REMARK       I    between atoms: N_3  and  C_4 
REMARK       I    between atoms: C_4  and  N_5 
REMARK    3  A    between atoms: N_5  and  C_6 
REMARK    4  A    between atoms: C_6  and  C_7 
REMARK    5  A    between atoms: C_7  and  N_8 
REMARK    6  A    between atoms: C_7  and  C_14 
REMARK    7  A    between atoms: C_15  and  O_16 
REMARK    8  A    between atoms: C_23  and  C_24 
REMARK    9  A    between atoms: C_27  and  O_28 
ROOT
HETATM    1  N   UNL     1      23.032  48.492  49.611  1.00  0.00    -0.339 N 
HETATM    2  C   UNL     1      24.319  48.222  49.974  1.00  0.00     0.316 C 
HETATM    3  N   UNL     1      24.395  47.188  50.881  1.00  0.00    -0.341 N 
HETATM    4  O   UNL     1      25.315  48.757  49.516  1.00  0.00    -0.248 OA
HETATM    5  H   UNL     1      22.307  48.149  50.225  1.00  0.00     0.164 HD
HETATM    6  H   UNL     1      23.601  47.159  51.510  1.00  0.00     0.164 HD
ENDROOT
BRANCH   3   7
HETATM    7  C   UNL     1      25.694  46.887  51.495  1.00  0.00     0.162 C 
BRANCH   7   8
HETATM    8  C   UNL     1      26.102  45.378  51.397  1.00  0.00     0.241 C 
BRANCH   8   9
HETATM    9  N   UNL     1      25.256  44.733  50.284  1.00  0.00    -0.061 N 
HETATM   10  H   UNL     1      24.843  45.561  49.828  1.00  0.00     0.280 HD
HETATM   11  C   UNL     1      24.146  43.814  50.677  1.00  0.00     0.236 C 
HETATM   12  C   UNL     1      24.718  42.416  50.542  1.00  0.00     0.029 C 
HETATM   13  C   UNL     1      25.912  42.528  49.605  1.00  0.00     0.029 C 
HETATM   14  C   UNL     1      26.037  43.995  49.235  1.00  0.00     0.236 C 
ENDBRANCH   8   9
BRANCH   8  15
HETATM   15  C   UNL     1      26.125  44.651  52.732  1.00  0.00     0.007 A 
HETATM   16  C   UNL     1      27.192  43.779  53.046  1.00  0.00     0.076 A 
HETATM   17  C   UNL     1      27.219  43.105  54.271  1.00  0.00     0.037 A 
HETATM   18  C   UNL     1      26.208  43.307  55.209  1.00  0.00     0.003 A 
HETATM   19  C   UNL     1      25.161  44.175  54.925  1.00  0.00     0.001 A 
HETATM   20  C   UNL     1      25.118  44.841  53.698  1.00  0.00     0.012 A 
BRANCH  16  21
HETATM   21  O   UNL     1      28.147  43.610  52.077  1.00  0.00    -0.355 OA
HETATM   22  C   UNL     1      29.460  43.277  52.527  1.00  0.00     0.210 C 
ENDBRANCH  16  21
ENDBRANCH   8  15
ENDBRANCH   7   8
ENDBRANCH   3   7
BRANCH   1  23
HETATM   23  C   UNL     1      22.649  49.700  48.869  1.00  0.00     0.086 C 
HETATM   24  C   UNL     1      22.103  50.810  49.767  1.00  0.00     0.032 C 
BRANCH  23  25
HETATM   25  C   UNL     1      21.675  49.386  47.711  1.00  0.00     0.063 C 
BRANCH  25  26
HETATM   26  C   UNL     1      20.885  48.117  47.953  1.00  0.00    -0.056 A 
HETATM   27  C   UNL     1      21.305  46.898  47.397  1.00  0.00     0.010 A 
HETATM   28  C   UNL     1      20.554  45.736  47.585  1.00  0.00     0.037 A 
HETATM   29  C   UNL     1      19.380  45.793  48.328  1.00  0.00     0.065 A 
HETATM   30  C   UNL     1      18.951  46.989  48.890  1.00  0.00     0.037 A 
HETATM   31  C   UNL     1      19.704  48.148  48.709  1.00  0.00     0.010 A 
BRANCH  29  32
HETATM   32  O   UNL     1      18.610  44.687  48.530  1.00  0.00    -0.361 OA
HETATM   33  H   UNL     1      18.301  44.680  49.450  1.00  0.00     0.217 HD
ENDBRANCH  29  32
ENDBRANCH  25  26
ENDBRANCH  23  25
ENDBRANCH   1  23
TORSDOF 9
ENDMDL
