MODEL 1
REMARK VINA RESULT:     -10.3      0.000      0.000
REMARK  4 active torsions:
REMARK  status: ('A' for Active; 'I' for Inactive)
REMARK    1  A    between atoms: C_6  and  C_7 
REMARK       I    between atoms: C_7  and  N_8 
REMARK    2  A    between atoms: N_8  and  N_9 
REMARK    3  A    between atoms: N_9  and  C_10 
REMARK    4  A    between atoms: C_21  and  C_22 
ROOT
HETATM    1  C   UNL     1      24.330  47.558  49.789  1.00  0.00     0.124 A 
HETATM    2  N   UNL     1      25.554  48.096  49.637  1.00  0.00    -0.223 NA
HETATM    3  C   UNL     1      25.655  49.233  48.923  1.00  0.00     0.129 A 
HETATM    4 CL   UNL     1      27.250  49.844  48.774  1.00  0.00    -0.062 Cl
HETATM    5  C   UNL     1      24.592  49.893  48.344  1.00  0.00     0.067 A 
HETATM    6  C   UNL     1      23.331  49.337  48.522  1.00  0.00     0.051 A 
HETATM    7  C   UNL     1      22.179  49.973  47.960  1.00  0.00     0.099 C 
HETATM    8  N   UNL     1      21.248  50.492  47.501  1.00  0.00    -0.191 NA
HETATM    9  C   UNL     1      23.193  48.160  49.258  1.00  0.00     0.068 A 
ENDROOT
BRANCH   1  10
HETATM   10  N   UNL     1      24.241  46.391  50.574  1.00  0.00    -0.186 NA
HETATM   11  H   UNL     1      23.593  46.621  51.342  1.00  0.00     0.154 HD
BRANCH  10  12
HETATM   12  N   UNL     1      25.487  45.960  51.073  1.00  0.00    -0.281 N 
HETATM   13  C   UNL     1      25.485  45.060  52.121  1.00  0.00     0.271 C 
HETATM   14  O   UNL     1      24.467  44.773  52.748  1.00  0.00    -0.266 OA
HETATM   15  H   UNL     1      26.297  46.039  50.453  1.00  0.00     0.184 HD
BRANCH  13  16
HETATM   16  C   UNL     1      26.810  44.446  52.425  1.00  0.00     0.102 A 
HETATM   17  C   UNL     1      27.489  43.480  51.522  1.00  0.00     0.261 A 
HETATM   18  N   UNL     1      28.708  43.005  51.937  1.00  0.00    -0.326 N 
HETATM   19  O   UNL     1      26.988  43.119  50.459  1.00  0.00    -0.267 OA
HETATM   20  C   UNL     1      29.330  43.346  53.123  1.00  0.00     0.019 A 
HETATM   21  H   UNL     1      29.157  42.350  51.307  1.00  0.00     0.169 HD
HETATM   22  C   UNL     1      30.661  42.679  53.348  1.00  0.00     0.069 C 
HETATM   23  C   UNL     1      28.720  44.217  53.961  1.00  0.00    -0.003 A 
HETATM   24  C   UNL     1      27.425  44.771  53.577  1.00  0.00     0.037 A 
BRANCH  23  25
HETATM   25  C   UNL     1      29.350  44.608  55.236  1.00  0.00    -0.024 A 
HETATM   26  C   UNL     1      28.835  45.679  55.977  1.00  0.00     0.012 A 
HETATM   27  C   UNL     1      29.429  46.047  57.185  1.00  0.00     0.001 A 
HETATM   28  C   UNL     1      30.535  45.343  57.662  1.00  0.00     0.000 A 
HETATM   29  C   UNL     1      31.047  44.270  56.934  1.00  0.00     0.001 A 
HETATM   30  C   UNL     1      30.455  43.900  55.725  1.00  0.00     0.012 A 
ENDBRANCH  23  25
ENDBRANCH  13  16
ENDBRANCH  10  12
ENDBRANCH   1  10
TORSDOF 4
ENDMDL
MODEL 2
REMARK VINA RESULT:     -10.3      2.228      3.007
REMARK  4 active torsions:
REMARK  status: ('A' for Active; 'I' for Inactive)
REMARK    1  A    between atoms: C_6  and  C_7 
REMARK       I    between atoms: C_7  and  N_8 
REMARK    2  A    between atoms: N_8  and  N_9 
REMARK    3  A    between atoms: N_9  and  C_10 
REMARK    4  A    between atoms: C_21  and  C_22 
ROOT
HETATM    1  C   UNL     1      23.794  47.799  49.482  1.00  0.00     0.124 A 
HETATM    2  N   UNL     1      23.062  48.807  48.976  1.00  0.00    -0.223 NA
HETATM    3  C   UNL     1      21.997  48.489  48.216  1.00  0.00     0.129 A 
HETATM    4 CL   UNL     1      21.127  49.835  47.607  1.00  0.00    -0.062 Cl
HETATM    5  C   UNL     1      21.595  47.203  47.928  1.00  0.00     0.067 A 
HETATM    6  C   UNL     1      22.349  46.169  48.470  1.00  0.00     0.051 A 
HETATM    7  C   UNL     1      21.986  44.807  48.223  1.00  0.00     0.099 C 
HETATM    8  N   UNL     1      21.687  43.705  48.019  1.00  0.00    -0.191 NA
HETATM    9  C   UNL     1      23.458  46.466  49.262  1.00  0.00     0.068 A 
ENDROOT
BRANCH   1  10
HETATM   10  N   UNL     1      24.880  48.153  50.308  1.00  0.00    -0.186 NA
HETATM   11  H   UNL     1      25.472  48.774  49.737  1.00  0.00     0.154 HD
BRANCH  10  12
HETATM   12  N   UNL     1      25.612  47.040  50.772  1.00  0.00    -0.281 N 
HETATM   13  C   UNL     1      25.662  46.825  52.135  1.00  0.00     0.271 C 
HETATM   14  O   UNL     1      25.265  47.653  52.953  1.00  0.00    -0.266 OA
HETATM   15  H   UNL     1      25.770  46.272  50.115  1.00  0.00     0.184 HD
BRANCH  13  16
HETATM   16  C   UNL     1      26.219  45.504  52.543  1.00  0.00     0.102 A 
HETATM   17  C   UNL     1      25.685  44.205  52.052  1.00  0.00     0.261 A 
HETATM   18  N   UNL     1      26.306  43.073  52.514  1.00  0.00    -0.326 N 
HETATM   19  O   UNL     1      24.734  44.144  51.276  1.00  0.00    -0.267 OA
HETATM   20  C   UNL     1      27.367  43.054  53.400  1.00  0.00     0.019 A 
HETATM   21  H   UNL     1      25.930  42.197  52.167  1.00  0.00     0.169 HD
HETATM   22  C   UNL     1      27.864  41.679  53.757  1.00  0.00     0.069 C 
HETATM   23  C   UNL     1      27.859  44.227  53.864  1.00  0.00    -0.003 A 
HETATM   24  C   UNL     1      27.252  45.474  53.405  1.00  0.00     0.037 A 
BRANCH  23  25
HETATM   25  C   UNL     1      28.990  44.253  54.811  1.00  0.00    -0.024 A 
HETATM   26  C   UNL     1      29.958  43.241  54.780  1.00  0.00     0.012 A 
HETATM   27  C   UNL     1      31.029  43.267  55.673  1.00  0.00     0.001 A 
HETATM   28  C   UNL     1      31.142  44.306  56.597  1.00  0.00     0.000 A 
HETATM   29  C   UNL     1      30.187  45.321  56.628  1.00  0.00     0.001 A 
HETATM   30  C   UNL     1      29.114  45.298  55.735  1.00  0.00     0.012 A 
ENDBRANCH  23  25
ENDBRANCH  13  16
ENDBRANCH  10  12
ENDBRANCH   1  10
TORSDOF 4
ENDMDL
MODEL 3
REMARK VINA RESULT:     -10.1      2.050      2.471
REMARK  4 active torsions:
REMARK  status: ('A' for Active; 'I' for Inactive)
REMARK    1  A    between atoms: C_6  and  C_7 
REMARK       I    between atoms: C_7  and  N_8 
REMARK    2  A    between atoms: N_8  and  N_9 
REMARK    3  A    between atoms: N_9  and  C_10 
REMARK    4  A    between atoms: C_21  and  C_22 
ROOT
HETATM    1  C   UNL     1      23.635  47.731  49.534  1.00  0.00     0.124 A 
HETATM    2  N   UNL     1      23.556  46.437  49.174  1.00  0.00    -0.223 NA
HETATM    3  C   UNL     1      22.556  46.077  48.346  1.00  0.00     0.129 A 
HETATM    4 CL   UNL     1      22.527  44.410  47.946  1.00  0.00    -0.062 Cl
HETATM    5  C   UNL     1      21.613  46.940  47.833  1.00  0.00     0.067 A 
HETATM    6  C   UNL     1      21.715  48.277  48.198  1.00  0.00     0.051 A 
HETATM    7  C   UNL     1      20.777  49.234  47.696  1.00  0.00     0.099 C 
HETATM    8  N   UNL     1      20.014  50.006  47.285  1.00  0.00    -0.191 NA
HETATM    9  C   UNL     1      22.740  48.682  49.054  1.00  0.00     0.068 A 
ENDROOT
BRANCH   1  10
HETATM   10  N   UNL     1      24.712  48.095  50.367  1.00  0.00    -0.186 NA
HETATM   11  H   UNL     1      25.289  48.741  49.808  1.00  0.00     0.154 HD
BRANCH  10  12
HETATM   12  N   UNL     1      25.469  46.992  50.811  1.00  0.00    -0.281 N 
HETATM   13  C   UNL     1      25.589  46.798  52.173  1.00  0.00     0.271 C 
HETATM   14  O   UNL     1      25.231  47.639  52.997  1.00  0.00    -0.266 OA
HETATM   15  H   UNL     1      25.597  46.214  50.159  1.00  0.00     0.184 HD
BRANCH  13  16
HETATM   16  C   UNL     1      26.170  45.485  52.573  1.00  0.00     0.102 A 
HETATM   17  C   UNL     1      25.645  44.179  52.092  1.00  0.00     0.261 A 
HETATM   18  N   UNL     1      26.289  43.055  52.545  1.00  0.00    -0.326 N 
HETATM   19  O   UNL     1      24.682  44.104  51.331  1.00  0.00    -0.267 OA
HETATM   20  C   UNL     1      27.364  43.052  53.414  1.00  0.00     0.019 A 
HETATM   21  H   UNL     1      25.918  42.175  52.205  1.00  0.00     0.169 HD
HETATM   22  C   UNL     1      27.884  41.683  53.764  1.00  0.00     0.069 C 
HETATM   23  C   UNL     1      27.847  44.232  53.869  1.00  0.00    -0.003 A 
HETATM   24  C   UNL     1      27.216  45.470  53.419  1.00  0.00     0.037 A 
BRANCH  23  25
HETATM   25  C   UNL     1      28.992  44.274  54.797  1.00  0.00    -0.024 A 
HETATM   26  C   UNL     1      29.112  45.319  55.722  1.00  0.00     0.012 A 
HETATM   27  C   UNL     1      30.195  45.357  56.602  1.00  0.00     0.001 A 
HETATM   28  C   UNL     1      31.158  44.349  56.567  1.00  0.00     0.000 A 
HETATM   29  C   UNL     1      31.041  43.301  55.654  1.00  0.00     0.001 A 
HETATM   30  C   UNL     1      29.959  43.260  54.773  1.00  0.00     0.012 A 
ENDBRANCH  23  25
ENDBRANCH  13  16
ENDBRANCH  10  12
ENDBRANCH   1  10
TORSDOF 4
ENDMDL
MODEL 4
REMARK VINA RESULT:     -10.0      1.717      2.497
REMARK  4 active torsions:
REMARK  status: ('A' for Active; 'I' for Inactive)
REMARK    1  A    between atoms: C_6  and  C_7 
REMARK       I    between atoms: C_7  and  N_8 
REMARK    2  A    between atoms: N_8  and  N_9 
REMARK    3  A    between atoms: N_9  and  C_10 
REMARK    4  A    between atoms: C_21  and  C_22 
ROOT
HETATM    1  C   UNL     1      24.082  47.475  49.483  1.00  0.00     0.124 A 
HETATM    2  N   UNL     1      23.166  48.249  48.871  1.00  0.00    -0.223 NA
HETATM    3  C   UNL     1      23.590  49.399  48.313  1.00  0.00     0.129 A 
HETATM    4 CL   UNL     1      22.356  50.324  47.562  1.00  0.00    -0.062 Cl
HETATM    5  C   UNL     1      24.896  49.837  48.313  1.00  0.00     0.067 A 
HETATM    6  C   UNL     1      25.835  49.022  48.933  1.00  0.00     0.051 A 
HETATM    7  C   UNL     1      27.213  49.406  48.963  1.00  0.00     0.099 C 
HETATM    8  N   UNL     1      28.329  49.723  48.985  1.00  0.00    -0.191 NA
HETATM    9  C   UNL     1      25.429  47.823  49.520  1.00  0.00     0.068 A 
ENDROOT
BRANCH   1  10
HETATM   10  N   UNL     1      23.626  46.257  50.025  1.00  0.00    -0.186 NA
HETATM   11  H   UNL     1      23.048  46.514  50.838  1.00  0.00     0.154 HD
BRANCH  10  12
HETATM   12  N   UNL     1      24.672  45.388  50.399  1.00  0.00    -0.281 N 
HETATM   13  C   UNL     1      25.113  45.436  51.706  1.00  0.00     0.271 C 
HETATM   14  O   UNL     1      24.770  46.319  52.491  1.00  0.00    -0.266 OA
HETATM   15  H   UNL     1      24.818  44.552  49.827  1.00  0.00     0.184 HD
BRANCH  13  16
HETATM   16  C   UNL     1      26.025  44.326  52.104  1.00  0.00     0.102 A 
HETATM   17  C   UNL     1      25.920  42.947  51.556  1.00  0.00     0.261 A 
HETATM   18  N   UNL     1      26.835  42.034  52.015  1.00  0.00    -0.326 N 
HETATM   19  O   UNL     1      25.058  42.635  50.737  1.00  0.00    -0.267 OA
HETATM   20  C   UNL     1      27.822  42.298  52.945  1.00  0.00     0.019 A 
HETATM   21  H   UNL     1      26.750  41.100  51.629  1.00  0.00     0.169 HD
HETATM   22  C   UNL     1      28.695  41.120  53.288  1.00  0.00     0.069 C 
HETATM   23  C   UNL     1      27.925  43.546  53.461  1.00  0.00    -0.003 A 
HETATM   24  C   UNL     1      26.989  44.572  53.009  1.00  0.00     0.037 A 
BRANCH  23  25
HETATM   25  C   UNL     1      28.964  43.871  54.457  1.00  0.00    -0.024 A 
HETATM   26  C   UNL     1      28.885  45.059  55.195  1.00  0.00     0.012 A 
HETATM   27  C   UNL     1      29.866  45.365  56.139  1.00  0.00     0.001 A 
HETATM   28  C   UNL     1      30.926  44.484  56.354  1.00  0.00     0.000 A 
HETATM   29  C   UNL     1      31.006  43.296  55.629  1.00  0.00     0.001 A 
HETATM   30  C   UNL     1      30.026  42.987  54.684  1.00  0.00     0.012 A 
ENDBRANCH  23  25
ENDBRANCH  13  16
ENDBRANCH  10  12
ENDBRANCH   1  10
TORSDOF 4
ENDMDL
MODEL 5
REMARK VINA RESULT:      -9.9      2.553      3.610
REMARK  4 active torsions:
REMARK  status: ('A' for Active; 'I' for Inactive)
REMARK    1  A    between atoms: C_6  and  C_7 
REMARK       I    between atoms: C_7  and  N_8 
REMARK    2  A    between atoms: N_8  and  N_9 
REMARK    3  A    between atoms: N_9  and  C_10 
REMARK    4  A    between atoms: C_21  and  C_22 
ROOT
HETATM    1  C   UNL     1      22.453  48.908  49.217  1.00  0.00     0.124 A 
HETATM    2  N   UNL     1      22.128  47.940  48.341  1.00  0.00    -0.223 NA
HETATM    3  C   UNL     1      21.079  48.159  47.524  1.00  0.00     0.129 A 
HETATM    4 CL   UNL     1      20.733  46.872  46.446  1.00  0.00    -0.062 Cl
HETATM    5  C   UNL     1      20.321  49.310  47.514  1.00  0.00     0.067 A 
HETATM    6  C   UNL     1      20.676  50.309  48.412  1.00  0.00     0.051 A 
HETATM    7  C   UNL     1      19.941  51.535  48.451  1.00  0.00     0.099 C 
HETATM    8  N   UNL     1      19.341  52.528  48.479  1.00  0.00    -0.191 NA
HETATM    9  C   UNL     1      21.758  50.112  49.271  1.00  0.00     0.068 A 
ENDROOT
BRANCH   1  10
HETATM   10  N   UNL     1      23.578  48.675  50.033  1.00  0.00    -0.186 NA
HETATM   11  H   UNL     1      24.318  49.295  49.670  1.00  0.00     0.154 HD
BRANCH  10  12
HETATM   12  N   UNL     1      23.997  47.329  50.033  1.00  0.00    -0.281 N 
HETATM   13  C   UNL     1      25.354  47.076  50.051  1.00  0.00     0.271 C 
HETATM   14  O   UNL     1      26.196  47.957  49.877  1.00  0.00    -0.266 OA
HETATM   15  H   UNL     1      23.330  46.627  50.363  1.00  0.00     0.184 HD
BRANCH  13  16
HETATM   16  C   UNL     1      25.727  45.657  50.315  1.00  0.00     0.102 A 
HETATM   17  C   UNL     1      25.115  44.505  49.599  1.00  0.00     0.261 A 
HETATM   18  N   UNL     1      25.566  43.258  49.948  1.00  0.00    -0.326 N 
HETATM   19  O   UNL     1      24.247  44.657  48.742  1.00  0.00    -0.267 OA
HETATM   20  C   UNL     1      26.523  43.000  50.911  1.00  0.00     0.019 A 
HETATM   21  H   UNL     1      25.139  42.485  49.449  1.00  0.00     0.169 HD
HETATM   22  C   UNL     1      26.836  41.541  51.112  1.00  0.00     0.069 C 
HETATM   23  C   UNL     1      27.083  44.037  51.578  1.00  0.00    -0.003 A 
HETATM   24  C   UNL     1      26.658  45.394  51.250  1.00  0.00     0.037 A 
BRANCH  23  25
HETATM   25  C   UNL     1      28.108  43.806  52.614  1.00  0.00    -0.024 A 
HETATM   26  C   UNL     1      27.921  44.298  53.912  1.00  0.00     0.012 A 
HETATM   27  C   UNL     1      28.890  44.077  54.893  1.00  0.00     0.001 A 
HETATM   28  C   UNL     1      30.046  43.361  54.582  1.00  0.00     0.000 A 
HETATM   29  C   UNL     1      30.235  42.862  53.294  1.00  0.00     0.001 A 
HETATM   30  C   UNL     1      29.267  43.080  52.311  1.00  0.00     0.012 A 
ENDBRANCH  23  25
ENDBRANCH  13  16
ENDBRANCH  10  12
ENDBRANCH   1  10
TORSDOF 4
ENDMDL
MODEL 6
REMARK VINA RESULT:      -9.8      2.458      3.191
REMARK  4 active torsions:
REMARK  status: ('A' for Active; 'I' for Inactive)
REMARK    1  A    between atoms: C_6  and  C_7 
REMARK       I    between atoms: C_7  and  N_8 
REMARK    2  A    between atoms: N_8  and  N_9 
REMARK    3  A    between atoms: N_9  and  C_10 
REMARK    4  A    between atoms: C_21  and  C_22 
ROOT
HETATM    1  C   UNL     1      22.935  48.416  49.230  1.00  0.00     0.124 A 
HETATM    2  N   UNL     1      22.175  49.496  48.973  1.00  0.00    -0.223 NA
HETATM    3  C   UNL     1      21.200  49.371  48.051  1.00  0.00     0.129 A 
HETATM    4 CL   UNL     1      20.285  50.797  47.783  1.00  0.00    -0.062 Cl
HETATM    5  C   UNL     1      20.918  48.213  47.360  1.00  0.00     0.067 A 
HETATM    6  C   UNL     1      21.699  47.101  47.645  1.00  0.00     0.051 A 
HETATM    7  C   UNL     1      21.458  45.860  46.974  1.00  0.00     0.099 C 
HETATM    8  N   UNL     1      21.258  44.857  46.427  1.00  0.00    -0.191 NA
HETATM    9  C   UNL     1      22.717  47.197  48.595  1.00  0.00     0.068 A 
ENDROOT
BRANCH   1  10
HETATM   10  N   UNL     1      23.922  48.556  50.226  1.00  0.00    -0.186 NA
HETATM   11  H   UNL     1      24.740  48.967  49.751  1.00  0.00     0.154 HD
BRANCH  10  12
HETATM   12  N   UNL     1      24.258  47.337  50.851  1.00  0.00    -0.281 N 
HETATM   13  C   UNL     1      25.573  47.146  51.225  1.00  0.00     0.271 C 
HETATM   14  O   UNL     1      26.481  47.897  50.872  1.00  0.00    -0.266 OA
HETATM   15  H   UNL     1      23.503  46.816  51.305  1.00  0.00     0.184 HD
BRANCH  13  16
HETATM   16  C   UNL     1      25.811  45.968  52.107  1.00  0.00     0.102 A 
HETATM   17  C   UNL     1      24.975  44.738  52.071  1.00  0.00     0.261 A 
HETATM   18  N   UNL     1      25.322  43.735  52.941  1.00  0.00    -0.326 N 
HETATM   19  O   UNL     1      24.020  44.622  51.306  1.00  0.00    -0.267 OA
HETATM   20  C   UNL     1      26.368  43.793  53.842  1.00  0.00     0.019 A 
HETATM   21  H   UNL     1      24.743  42.904  52.900  1.00  0.00     0.169 HD
HETATM   22  C   UNL     1      26.534  42.561  54.692  1.00  0.00     0.069 C 
HETATM   23  C   UNL     1      27.132  44.909  53.895  1.00  0.00    -0.003 A 
HETATM   24  C   UNL     1      26.826  46.013  52.989  1.00  0.00     0.037 A 
BRANCH  23  25
HETATM   25  C   UNL     1      28.258  45.013  54.843  1.00  0.00    -0.024 A 
HETATM   26  C   UNL     1      28.222  45.953  55.880  1.00  0.00     0.012 A 
HETATM   27  C   UNL     1      29.285  46.049  56.778  1.00  0.00     0.001 A 
HETATM   28  C   UNL     1      30.387  45.203  56.648  1.00  0.00     0.000 A 
HETATM   29  C   UNL     1      30.426  44.258  55.623  1.00  0.00     0.001 A 
HETATM   30  C   UNL     1      29.363  44.160  54.723  1.00  0.00     0.012 A 
ENDBRANCH  23  25
ENDBRANCH  13  16
ENDBRANCH  10  12
ENDBRANCH   1  10
TORSDOF 4
ENDMDL
MODEL 7
REMARK VINA RESULT:      -9.8      2.720      4.042
REMARK  4 active torsions:
REMARK  status: ('A' for Active; 'I' for Inactive)
REMARK    1  A    between atoms: C_6  and  C_7 
REMARK       I    between atoms: C_7  and  N_8 
REMARK    2  A    between atoms: N_8  and  N_9 
REMARK    3  A    between atoms: N_9  and  C_10 
REMARK    4  A    between atoms: C_21  and  C_22 
ROOT
HETATM    1  C   UNL     1      22.007  49.298  49.083  1.00  0.00     0.124 A 
HETATM    2  N   UNL     1      21.446  50.519  49.151  1.00  0.00    -0.223 NA
HETATM    3  C   UNL     1      20.383  50.766  48.362  1.00  0.00     0.129 A 
HETATM    4 CL   UNL     1      19.737  52.348  48.509  1.00  0.00    -0.062 Cl
HETATM    5  C   UNL     1      19.820  49.854  47.496  1.00  0.00     0.067 A 
HETATM    6  C   UNL     1      20.397  48.591  47.446  1.00  0.00     0.051 A 
HETATM    7  C   UNL     1      19.860  47.588  46.578  1.00  0.00     0.099 C 
HETATM    8  N   UNL     1      19.420  46.779  45.872  1.00  0.00    -0.191 NA
HETATM    9  C   UNL     1      21.499  48.303  48.252  1.00  0.00     0.068 A 
ENDROOT
BRANCH   1  10
HETATM   10  N   UNL     1      23.092  49.046  49.946  1.00  0.00    -0.186 NA
HETATM   11  H   UNL     1      23.841  49.687  49.644  1.00  0.00     0.154 HD
BRANCH  10  12
HETATM   12  N   UNL     1      23.528  47.706  49.916  1.00  0.00    -0.281 N 
HETATM   13  C   UNL     1      24.883  47.466  50.024  1.00  0.00     0.271 C 
HETATM   14  O   UNL     1      25.724  48.362  49.955  1.00  0.00    -0.266 OA
HETATM   15  H   UNL     1      22.847  46.983  50.162  1.00  0.00     0.184 HD
BRANCH  13  16
HETATM   16  C   UNL     1      25.254  46.040  50.250  1.00  0.00     0.102 A 
HETATM   17  C   UNL     1      24.628  44.907  49.518  1.00  0.00     0.261 A 
HETATM   18  N   UNL     1      25.078  43.650  49.832  1.00  0.00    -0.326 N 
HETATM   19  O   UNL     1      23.748  45.082  48.677  1.00  0.00    -0.267 OA
HETATM   20  C   UNL     1      26.048  43.367  50.775  1.00  0.00     0.019 A 
HETATM   21  H   UNL     1      24.642  42.891  49.321  1.00  0.00     0.169 HD
HETATM   22  C   UNL     1      26.358  41.903  50.937  1.00  0.00     0.069 C 
HETATM   23  C   UNL     1      26.621  44.386  51.457  1.00  0.00    -0.003 A 
HETATM   24  C   UNL     1      26.196  45.753  51.166  1.00  0.00     0.037 A 
BRANCH  23  25
HETATM   25  C   UNL     1      27.660  44.128  52.472  1.00  0.00    -0.024 A 
HETATM   26  C   UNL     1      27.483  44.572  53.789  1.00  0.00     0.012 A 
HETATM   27  C   UNL     1      28.465  44.326  54.751  1.00  0.00     0.001 A 
HETATM   28  C   UNL     1      29.623  43.631  54.403  1.00  0.00     0.000 A 
HETATM   29  C   UNL     1      29.802  43.179  53.096  1.00  0.00     0.001 A 
HETATM   30  C   UNL     1      28.821  43.424  52.132  1.00  0.00     0.012 A 
ENDBRANCH  23  25
ENDBRANCH  13  16
ENDBRANCH  10  12
ENDBRANCH   1  10
TORSDOF 4
ENDMDL
MODEL 8
REMARK VINA RESULT:      -9.7      3.454      9.579
REMARK  4 active torsions:
REMARK  status: ('A' for Active; 'I' for Inactive)
REMARK    1  A    between atoms: C_6  and  C_7 
REMARK       I    between atoms: C_7  and  N_8 
REMARK    2  A    between atoms: N_8  and  N_9 
REMARK    3  A    between atoms: N_9  and  C_10 
REMARK    4  A    between atoms: C_21  and  C_22 
ROOT
HETATM    1  C   UNL     1      26.313  46.218  51.830  1.00  0.00     0.124 A 
HETATM    2  N   UNL     1      26.636  44.954  52.158  1.00  0.00    -0.223 NA
HETATM    3  C   UNL     1      26.830  44.674  53.462  1.00  0.00     0.129 A 
HETATM    4 CL   UNL     1      27.244  43.042  53.787  1.00  0.00    -0.062 Cl
HETATM    5  C   UNL     1      26.711  45.588  54.486  1.00  0.00     0.067 A 
HETATM    6  C   UNL     1      26.361  46.886  54.137  1.00  0.00     0.051 A 
HETATM    7  C   UNL     1      26.208  47.887  55.148  1.00  0.00     0.099 C 
HETATM    8  N   UNL     1      26.086  48.695  55.972  1.00  0.00    -0.191 NA
HETATM    9  C   UNL     1      26.153  47.208  52.795  1.00  0.00     0.068 A 
ENDROOT
BRANCH   1  10
HETATM   10  N   UNL     1      26.075  46.480  50.466  1.00  0.00    -0.186 NA
HETATM   11  H   UNL     1      26.576  47.357  50.260  1.00  0.00     0.154 HD
BRANCH  10  12
HETATM   12  N   UNL     1      24.705  46.592  50.153  1.00  0.00    -0.281 N 
HETATM   13  C   UNL     1      24.266  47.778  49.598  1.00  0.00     0.271 C 
HETATM   14  O   UNL     1      24.968  48.787  49.545  1.00  0.00    -0.266 OA
HETATM   15  H   UNL     1      24.179  45.725  50.017  1.00  0.00     0.184 HD
BRANCH  13  16
HETATM   16  C   UNL     1      22.879  47.741  49.050  1.00  0.00     0.102 A 
HETATM   17  C   UNL     1      22.317  46.569  48.328  1.00  0.00     0.261 A 
HETATM   18  N   UNL     1      21.023  46.683  47.888  1.00  0.00    -0.326 N 
HETATM   19  O   UNL     1      22.975  45.549  48.130  1.00  0.00    -0.267 OA
HETATM   20  C   UNL     1      20.224  47.798  48.053  1.00  0.00     0.019 A 
HETATM   21  H   UNL     1      20.656  45.874  47.400  1.00  0.00     0.169 HD
HETATM   22  C   UNL     1      18.842  47.673  47.468  1.00  0.00     0.069 C 
HETATM   23  C   UNL     1      20.724  48.878  48.699  1.00  0.00    -0.003 A 
HETATM   24  C   UNL     1      22.093  48.822  49.205  1.00  0.00     0.037 A 
BRANCH  23  25
HETATM   25  C   UNL     1      19.905  50.089  48.898  1.00  0.00    -0.024 A 
HETATM   26  C   UNL     1      18.874  50.095  49.845  1.00  0.00     0.012 A 
HETATM   27  C   UNL     1      18.101  51.241  50.035  1.00  0.00     0.001 A 
HETATM   28  C   UNL     1      18.358  52.388  49.283  1.00  0.00     0.000 A 
HETATM   29  C   UNL     1      19.389  52.392  48.344  1.00  0.00     0.001 A 
HETATM   30  C   UNL     1      20.164  51.246  48.153  1.00  0.00     0.012 A 
ENDBRANCH  23  25
ENDBRANCH  13  16
ENDBRANCH  10  12
ENDBRANCH   1  10
TORSDOF 4
ENDMDL
MODEL 9
REMARK VINA RESULT:      -9.7      4.447      5.578
REMARK  4 active torsions:
REMARK  status: ('A' for Active; 'I' for Inactive)
REMARK    1  A    between atoms: C_6  and  C_7 
REMARK       I    between atoms: C_7  and  N_8 
REMARK    2  A    between atoms: N_8  and  N_9 
REMARK    3  A    between atoms: N_9  and  C_10 
REMARK    4  A    between atoms: C_21  and  C_22 
ROOT
HETATM    1  C   UNL     1      26.284  40.324  50.011  1.00  0.00     0.124 A 
HETATM    2  N   UNL     1      27.080  39.736  49.100  1.00  0.00    -0.223 NA
HETATM    3  C   UNL     1      26.888  40.051  47.804  1.00  0.00     0.129 A 
HETATM    4 CL   UNL     1      27.941  39.251  46.712  1.00  0.00    -0.062 Cl
HETATM    5  C   UNL     1      25.942  40.941  47.345  1.00  0.00     0.067 A 
HETATM    6  C   UNL     1      25.138  41.555  48.297  1.00  0.00     0.051 A 
HETATM    7  C   UNL     1      24.140  42.499  47.896  1.00  0.00     0.099 C 
HETATM    8  N   UNL     1      23.333  43.264  47.565  1.00  0.00    -0.191 NA
HETATM    9  C   UNL     1      25.311  41.250  49.648  1.00  0.00     0.068 A 
ENDROOT
BRANCH   1  10
HETATM   10  N   UNL     1      26.528  40.012  51.364  1.00  0.00    -0.186 NA
HETATM   11  H   UNL     1      25.727  39.436  51.665  1.00  0.00     0.154 HD
BRANCH  10  12
HETATM   12  N   UNL     1      26.669  41.152  52.181  1.00  0.00    -0.281 N 
HETATM   13  C   UNL     1      27.948  41.544  52.524  1.00  0.00     0.271 C 
HETATM   14  O   UNL     1      28.937  40.844  52.311  1.00  0.00    -0.266 OA
HETATM   15  H   UNL     1      25.895  41.821  52.196  1.00  0.00     0.184 HD
BRANCH  13  16
HETATM   16  C   UNL     1      28.045  42.889  53.159  1.00  0.00     0.102 A 
HETATM   17  C   UNL     1      27.279  44.073  52.685  1.00  0.00     0.261 A 
HETATM   18  N   UNL     1      27.470  45.243  53.376  1.00  0.00    -0.326 N 
HETATM   19  O   UNL     1      26.516  44.013  51.723  1.00  0.00    -0.267 OA
HETATM   20  C   UNL     1      28.321  45.399  54.454  1.00  0.00     0.019 A 
HETATM   21  H   UNL     1      26.938  46.039  53.040  1.00  0.00     0.169 HD
HETATM   22  C   UNL     1      28.356  46.789  55.030  1.00  0.00     0.069 C 
HETATM   23  C   UNL     1      29.032  44.334  54.891  1.00  0.00    -0.003 A 
HETATM   24  C   UNL     1      28.870  43.053  54.209  1.00  0.00     0.037 A 
BRANCH  23  25
HETATM   25  C   UNL     1      29.952  44.456  56.038  1.00  0.00    -0.024 A 
HETATM   26  C   UNL     1      29.733  45.437  57.015  1.00  0.00     0.012 A 
HETATM   27  C   UNL     1      30.601  45.551  58.102  1.00  0.00     0.001 A 
HETATM   28  C   UNL     1      31.687  44.683  58.221  1.00  0.00     0.000 A 
HETATM   29  C   UNL     1      31.906  43.700  57.257  1.00  0.00     0.001 A 
HETATM   30  C   UNL     1      31.039  43.583  56.169  1.00  0.00     0.012 A 
ENDBRANCH  23  25
ENDBRANCH  13  16
ENDBRANCH  10  12
ENDBRANCH   1  10
TORSDOF 4
ENDMDL
MODEL 10
REMARK VINA RESULT:      -9.5      2.940      8.545
REMARK  4 active torsions:
REMARK  status: ('A' for Active; 'I' for Inactive)
REMARK    1  A    between atoms: C_6  and  C_7 
REMARK       I    between atoms: C_7  and  N_8 
REMARK    2  A    between atoms: N_8  and  N_9 
REMARK    3  A    between atoms: N_9  and  C_10 
REMARK    4  A    between atoms: C_21  and  C_22 
ROOT
HETATM    1  C   UNL     1      28.319  46.037  55.198  1.00  0.00     0.124 A 
HETATM    2  N   UNL     1      28.932  46.336  56.358  1.00  0.00    -0.223 NA
HETATM    3  C   UNL     1      29.957  45.553  56.746  1.00  0.00     0.129 A 
HETATM    4 CL   UNL     1      30.674  46.003  58.237  1.00  0.00    -0.062 Cl
HETATM    5  C   UNL     1      30.432  44.473  56.034  1.00  0.00     0.067 A 
HETATM    6  C   UNL     1      29.803  44.184  54.830  1.00  0.00     0.051 A 
HETATM    7  C   UNL     1      30.248  43.083  54.032  1.00  0.00     0.099 C 
HETATM    8  N   UNL     1      30.613  42.189  53.388  1.00  0.00    -0.191 NA
HETATM    9  C   UNL     1      28.737  44.976  54.400  1.00  0.00     0.068 A 
ENDROOT
BRANCH   1  10
HETATM   10  N   UNL     1      27.276  46.892  54.791  1.00  0.00    -0.186 NA
HETATM   11  H   UNL     1      26.543  46.799  55.510  1.00  0.00     0.154 HD
BRANCH  10  12
HETATM   12  N   UNL     1      26.772  46.584  53.510  1.00  0.00    -0.281 N 
HETATM   13  C   UNL     1      25.579  45.893  53.436  1.00  0.00     0.271 C 
HETATM   14  O   UNL     1      25.046  45.380  54.419  1.00  0.00    -0.266 OA
HETATM   15  H   UNL     1      27.096  47.155  52.726  1.00  0.00     0.184 HD
BRANCH  13  16
HETATM   16  C   UNL     1      24.972  45.830  52.076  1.00  0.00     0.102 A 
HETATM   17  C   UNL     1      24.534  44.561  51.435  1.00  0.00     0.261 A 
HETATM   18  N   UNL     1      23.988  44.664  50.181  1.00  0.00    -0.326 N 
HETATM   19  O   UNL     1      24.658  43.472  51.993  1.00  0.00    -0.267 OA
HETATM   20  C   UNL     1      23.830  45.844  49.478  1.00  0.00     0.019 A 
HETATM   21  H   UNL     1      23.694  43.789  49.761  1.00  0.00     0.169 HD
HETATM   22  C   UNL     1      23.211  45.685  48.115  1.00  0.00     0.069 C 
HETATM   23  C   UNL     1      24.232  47.006  50.044  1.00  0.00    -0.003 A 
HETATM   24  C   UNL     1      24.814  46.972  51.383  1.00  0.00     0.037 A 
BRANCH  23  25
HETATM   25  C   UNL     1      24.083  48.288  49.329  1.00  0.00    -0.024 A 
HETATM   26  C   UNL     1      22.830  48.909  49.251  1.00  0.00     0.012 A 
HETATM   27  C   UNL     1      22.689  50.123  48.577  1.00  0.00     0.001 A 
HETATM   28  C   UNL     1      23.799  50.724  47.983  1.00  0.00     0.000 A 
HETATM   29  C   UNL     1      25.050  50.116  48.064  1.00  0.00     0.001 A 
HETATM   30  C   UNL     1      25.195  48.901  48.738  1.00  0.00     0.012 A 
ENDBRANCH  23  25
ENDBRANCH  13  16
ENDBRANCH  10  12
ENDBRANCH   1  10
TORSDOF 4
ENDMDL
