MODEL 1
REMARK VINA RESULT:     -10.1      0.000      0.000
REMARK  5 active torsions:
REMARK  status: ('A' for Active; 'I' for Inactive)
REMARK    1  A    between atoms: C_7  and  C_8 
REMARK    2  A    between atoms: N_9  and  N_10 
REMARK       I    between atoms: N_10  and  C_11 
REMARK    3  A    between atoms: C_11  and  C_12 
REMARK    4  A    between atoms: C_12  and  N_13 
REMARK       I    between atoms: N_13  and  C_14 
REMARK    5  A    between atoms: C_14  and  C_15 
ROOT
HETATM    1  N   UNL     1      25.193  46.564  51.446  1.00  0.00    -0.246 N 
HETATM    2  C   UNL     1      25.100  47.366  50.320  1.00  0.00     0.255 C 
HETATM    3  O   UNL     1      25.877  48.273  50.022  1.00  0.00    -0.270 OA
HETATM    4  H   UNL     1      24.418  45.936  51.670  1.00  0.00     0.192 HD
ENDROOT
BRANCH   1   5
HETATM    5  N   UNL     1      26.220  46.727  52.330  1.00  0.00    -0.184 NA
HETATM    6  C   UNL     1      26.319  45.808  53.235  1.00  0.00     0.153 C 
BRANCH   6   7
HETATM    7  C   UNL     1      27.353  45.885  54.251  1.00  0.00     0.018 A 
HETATM    8  C   UNL     1      27.501  46.868  55.221  1.00  0.00     0.018 A 
HETATM    9  C   UNL     1      26.698  48.087  55.510  1.00  0.00     0.069 C 
HETATM   10  N   UNL     1      28.598  46.544  55.980  1.00  0.00    -0.358 N 
HETATM   11  H   UNL     1      28.939  47.083  56.764  1.00  0.00     0.166 HD
HETATM   12  C   UNL     1      29.173  45.380  55.532  1.00  0.00     0.043 A 
HETATM   13  C   UNL     1      28.418  44.941  54.445  1.00  0.00     0.004 A 
HETATM   14  C   UNL     1      30.296  44.691  56.006  1.00  0.00     0.030 A 
HETATM   15  C   UNL     1      28.813  43.753  53.794  1.00  0.00     0.014 A 
HETATM   16  C   UNL     1      29.936  43.054  54.251  1.00  0.00     0.001 A 
HETATM   17  C   UNL     1      30.663  43.518  55.344  1.00  0.00     0.002 A 
ENDBRANCH   6   7
ENDBRANCH   1   5
BRANCH   2  18
HETATM   18  C   UNL     1      23.831  47.108  49.503  1.00  0.00     0.227 C 
BRANCH  18  19
HETATM   19  N   UNL     1      22.782  48.108  49.679  1.00  0.00    -0.348 N 
HETATM   20  C   UNL     1      22.438  48.984  48.675  1.00  0.00     0.252 C 
HETATM   21  O   UNL     1      23.109  49.068  47.649  1.00  0.00    -0.268 OA
HETATM   22  H   UNL     1      22.384  48.190  50.603  1.00  0.00     0.163 HD
BRANCH  20  23
HETATM   23  C   UNL     1      21.267  49.884  48.888  1.00  0.00     0.035 A 
HETATM   24  C   UNL     1      20.221  49.405  49.687  1.00  0.00     0.059 A 
HETATM   25  C   UNL     1      19.112  50.208  49.930  1.00  0.00     0.117 A 
HETATM   26  F   UNL     1      18.118  49.743  50.698  1.00  0.00    -0.206 F 
HETATM   27  C   UNL     1      19.019  51.486  49.392  1.00  0.00     0.042 A 
HETATM   28  C   UNL     1      20.058  51.974  48.603  1.00  0.00     0.004 A 
HETATM   29  C   UNL     1      21.183  51.179  48.354  1.00  0.00     0.017 A 
ENDBRANCH  20  23
ENDBRANCH  18  19
ENDBRANCH   2  18
TORSDOF 5
ENDMDL
MODEL 2
REMARK VINA RESULT:     -10.0      4.235      9.946
REMARK  5 active torsions:
REMARK  status: ('A' for Active; 'I' for Inactive)
REMARK    1  A    between atoms: C_7  and  C_8 
REMARK    2  A    between atoms: N_9  and  N_10 
REMARK       I    between atoms: N_10  and  C_11 
REMARK    3  A    between atoms: C_11  and  C_12 
REMARK    4  A    between atoms: C_12  and  N_13 
REMARK       I    between atoms: N_13  and  C_14 
REMARK    5  A    between atoms: C_14  and  C_15 
ROOT
HETATM    1  N   UNL     1      25.851  44.950  50.983  1.00  0.00    -0.246 N 
HETATM    2  C   UNL     1      26.691  43.890  50.681  1.00  0.00     0.255 C 
HETATM    3  O   UNL     1      27.249  43.706  49.600  1.00  0.00    -0.270 OA
HETATM    4  H   UNL     1      25.329  44.931  51.862  1.00  0.00     0.192 HD
ENDROOT
BRANCH   1   5
HETATM    5  N   UNL     1      25.596  45.918  50.056  1.00  0.00    -0.184 NA
HETATM    6  C   UNL     1      25.812  47.130  50.451  1.00  0.00     0.153 C 
BRANCH   6   7
HETATM    7  C   UNL     1      25.550  48.250  49.565  1.00  0.00     0.018 A 
HETATM    8  C   UNL     1      26.488  49.093  48.985  1.00  0.00     0.018 A 
HETATM    9  C   UNL     1      27.973  49.123  49.084  1.00  0.00     0.069 C 
HETATM   10  N   UNL     1      25.811  50.001  48.208  1.00  0.00    -0.358 N 
HETATM   11  H   UNL     1      26.243  50.735  47.665  1.00  0.00     0.166 HD
HETATM   12  C   UNL     1      24.457  49.776  48.268  1.00  0.00     0.043 A 
HETATM   13  C   UNL     1      24.259  48.685  49.114  1.00  0.00     0.004 A 
HETATM   14  C   UNL     1      23.405  50.454  47.640  1.00  0.00     0.030 A 
HETATM   15  C   UNL     1      22.935  48.255  49.348  1.00  0.00     0.014 A 
HETATM   16  C   UNL     1      21.870  48.923  48.733  1.00  0.00     0.001 A 
HETATM   17  C   UNL     1      22.106  50.005  47.889  1.00  0.00     0.002 A 
ENDBRANCH   6   7
ENDBRANCH   1   5
BRANCH   2  18
HETATM   18  C   UNL     1      26.775  42.853  51.804  1.00  0.00     0.227 C 
BRANCH  18  19
HETATM   19  N   UNL     1      27.405  43.333  53.030  1.00  0.00    -0.348 N 
HETATM   20  C   UNL     1      28.767  43.278  53.216  1.00  0.00     0.252 C 
HETATM   21  O   UNL     1      29.491  42.674  52.428  1.00  0.00    -0.268 OA
HETATM   22  H   UNL     1      26.787  43.622  53.774  1.00  0.00     0.163 HD
BRANCH  20  23
HETATM   23  C   UNL     1      29.343  43.911  54.438  1.00  0.00     0.035 A 
HETATM   24  C   UNL     1      30.423  43.266  55.055  1.00  0.00     0.059 A 
HETATM   25  C   UNL     1      31.006  43.822  56.188  1.00  0.00     0.117 A 
HETATM   26  F   UNL     1      32.040  43.198  56.769  1.00  0.00    -0.206 F 
HETATM   27  C   UNL     1      30.537  45.012  56.727  1.00  0.00     0.042 A 
HETATM   28  C   UNL     1      29.468  45.666  56.117  1.00  0.00     0.004 A 
HETATM   29  C   UNL     1      28.874  45.122  54.972  1.00  0.00     0.017 A 
ENDBRANCH  20  23
ENDBRANCH  18  19
ENDBRANCH   2  18
TORSDOF 5
ENDMDL
MODEL 3
REMARK VINA RESULT:      -9.4      6.331      8.511
REMARK  5 active torsions:
REMARK  status: ('A' for Active; 'I' for Inactive)
REMARK    1  A    between atoms: C_7  and  C_8 
REMARK    2  A    between atoms: N_9  and  N_10 
REMARK       I    between atoms: N_10  and  C_11 
REMARK    3  A    between atoms: C_11  and  C_12 
REMARK    4  A    between atoms: C_12  and  N_13 
REMARK       I    between atoms: N_13  and  C_14 
REMARK    5  A    between atoms: C_14  and  C_15 
ROOT
HETATM    1  N   UNL     1      26.474  42.809  52.216  1.00  0.00    -0.246 N 
HETATM    2  C   UNL     1      25.299  43.208  51.597  1.00  0.00     0.255 C 
HETATM    3  O   UNL     1      24.525  44.066  52.019  1.00  0.00    -0.270 OA
HETATM    4  H   UNL     1      26.969  41.991  51.854  1.00  0.00     0.192 HD
ENDROOT
BRANCH   1   5
HETATM    5  N   UNL     1      26.874  43.391  53.383  1.00  0.00    -0.184 NA
HETATM    6  C   UNL     1      27.760  44.325  53.257  1.00  0.00     0.153 C 
BRANCH   6   7
HETATM    7  C   UNL     1      28.287  45.001  54.429  1.00  0.00     0.018 A 
HETATM    8  C   UNL     1      27.857  46.208  54.962  1.00  0.00     0.018 A 
HETATM    9  C   UNL     1      26.785  47.145  54.526  1.00  0.00     0.069 C 
HETATM   10  N   UNL     1      28.616  46.468  56.076  1.00  0.00    -0.358 N 
HETATM   11  H   UNL     1      28.518  47.282  56.667  1.00  0.00     0.166 HD
HETATM   12  C   UNL     1      29.532  45.466  56.284  1.00  0.00     0.043 A 
HETATM   13  C   UNL     1      29.355  44.530  55.266  1.00  0.00     0.004 A 
HETATM   14  C   UNL     1      30.495  45.323  57.290  1.00  0.00     0.030 A 
HETATM   15  C   UNL     1      30.192  43.394  55.251  1.00  0.00     0.014 A 
HETATM   16  C   UNL     1      31.164  43.236  56.247  1.00  0.00     0.001 A 
HETATM   17  C   UNL     1      31.308  44.188  57.252  1.00  0.00     0.002 A 
ENDBRANCH   6   7
ENDBRANCH   1   5
BRANCH   2  18
HETATM   18  C   UNL     1      24.961  42.375  50.358  1.00  0.00     0.227 C 
BRANCH  18  19
HETATM   19  N   UNL     1      25.837  41.229  50.139  1.00  0.00    -0.348 N 
HETATM   20  C   UNL     1      26.942  41.306  49.321  1.00  0.00     0.252 C 
HETATM   21  O   UNL     1      27.144  42.293  48.618  1.00  0.00    -0.268 OA
HETATM   22  H   UNL     1      25.544  40.350  50.538  1.00  0.00     0.163 HD
BRANCH  20  23
HETATM   23  C   UNL     1      27.860  40.131  49.256  1.00  0.00     0.035 A 
HETATM   24  C   UNL     1      28.463  39.713  50.449  1.00  0.00     0.059 A 
HETATM   25  C   UNL     1      29.315  38.615  50.447  1.00  0.00     0.117 A 
HETATM   26  F   UNL     1      29.884  38.221  51.594  1.00  0.00    -0.206 F 
HETATM   27  C   UNL     1      29.584  37.917  49.277  1.00  0.00     0.042 A 
HETATM   28  C   UNL     1      28.983  38.320  48.086  1.00  0.00     0.004 A 
HETATM   29  C   UNL     1      28.118  39.420  48.073  1.00  0.00     0.017 A 
ENDBRANCH  20  23
ENDBRANCH  18  19
ENDBRANCH   2  18
TORSDOF 5
ENDMDL
MODEL 4
REMARK VINA RESULT:      -8.9      2.339      3.316
REMARK  5 active torsions:
REMARK  status: ('A' for Active; 'I' for Inactive)
REMARK    1  A    between atoms: C_7  and  C_8 
REMARK    2  A    between atoms: N_9  and  N_10 
REMARK       I    between atoms: N_10  and  C_11 
REMARK    3  A    between atoms: C_11  and  C_12 
REMARK    4  A    between atoms: C_12  and  N_13 
REMARK       I    between atoms: N_13  and  C_14 
REMARK    5  A    between atoms: C_14  and  C_15 
ROOT
HETATM    1  N   UNL     1      24.603  46.796  50.954  1.00  0.00    -0.246 N 
HETATM    2  C   UNL     1      23.957  46.957  49.739  1.00  0.00     0.255 C 
HETATM    3  O   UNL     1      23.627  46.047  48.979  1.00  0.00    -0.270 OA
HETATM    4  H   UNL     1      24.957  47.624  51.438  1.00  0.00     0.192 HD
ENDROOT
BRANCH   1   5
HETATM    5  N   UNL     1      24.909  45.550  51.417  1.00  0.00    -0.184 NA
HETATM    6  C   UNL     1      26.151  45.208  51.298  1.00  0.00     0.153 C 
BRANCH   6   7
HETATM    7  C   UNL     1      26.596  43.894  51.727  1.00  0.00     0.018 A 
HETATM    8  C   UNL     1      26.144  42.666  51.264  1.00  0.00     0.018 A 
HETATM    9  C   UNL     1      25.116  42.321  50.244  1.00  0.00     0.069 C 
HETATM   10  N   UNL     1      26.842  41.687  51.926  1.00  0.00    -0.358 N 
HETATM   11  H   UNL     1      26.721  40.693  51.785  1.00  0.00     0.166 HD
HETATM   12  C   UNL     1      27.735  42.240  52.810  1.00  0.00     0.043 A 
HETATM   13  C   UNL     1      27.604  43.625  52.713  1.00  0.00     0.004 A 
HETATM   14  C   UNL     1      28.640  41.621  53.681  1.00  0.00     0.030 A 
HETATM   15  C   UNL     1      28.418  44.431  53.537  1.00  0.00     0.014 A 
HETATM   16  C   UNL     1      29.325  43.830  54.417  1.00  0.00     0.001 A 
HETATM   17  C   UNL     1      29.434  42.443  54.483  1.00  0.00     0.002 A 
ENDBRANCH   6   7
ENDBRANCH   1   5
BRANCH   2  18
HETATM   18  C   UNL     1      23.791  48.425  49.337  1.00  0.00     0.227 C 
BRANCH  18  19
HETATM   19  N   UNL     1      22.426  48.932  49.438  1.00  0.00    -0.348 N 
HETATM   20  C   UNL     1      22.158  50.275  49.576  1.00  0.00     0.252 C 
HETATM   21  O   UNL     1      23.059  51.084  49.780  1.00  0.00    -0.268 OA
HETATM   22  H   UNL     1      21.690  48.243  49.499  1.00  0.00     0.163 HD
BRANCH  20  23
HETATM   23  C   UNL     1      20.735  50.722  49.537  1.00  0.00     0.035 A 
HETATM   24  C   UNL     1      20.409  51.771  48.668  1.00  0.00     0.059 A 
HETATM   25  C   UNL     1      19.096  52.217  48.583  1.00  0.00     0.117 A 
HETATM   26  F   UNL     1      18.794  53.220  47.746  1.00  0.00    -0.206 F 
HETATM   27  C   UNL     1      18.090  51.640  49.348  1.00  0.00     0.042 A 
HETATM   28  C   UNL     1      18.402  50.591  50.210  1.00  0.00     0.004 A 
HETATM   29  C   UNL     1      19.719  50.127  50.302  1.00  0.00     0.017 A 
ENDBRANCH  20  23
ENDBRANCH  18  19
ENDBRANCH   2  18
TORSDOF 5
ENDMDL
MODEL 5
REMARK VINA RESULT:      -8.9      4.158     10.486
REMARK  5 active torsions:
REMARK  status: ('A' for Active; 'I' for Inactive)
REMARK    1  A    between atoms: C_7  and  C_8 
REMARK    2  A    between atoms: N_9  and  N_10 
REMARK       I    between atoms: N_10  and  C_11 
REMARK    3  A    between atoms: C_11  and  C_12 
REMARK    4  A    between atoms: C_12  and  N_13 
REMARK       I    between atoms: N_13  and  C_14 
REMARK    5  A    between atoms: C_14  and  C_15 
ROOT
HETATM    1  N   UNL     1      25.403  45.157  50.666  1.00  0.00    -0.246 N 
HETATM    2  C   UNL     1      25.526  44.348  51.784  1.00  0.00     0.255 C 
HETATM    3  O   UNL     1      24.666  44.189  52.649  1.00  0.00    -0.270 OA
HETATM    4  H   UNL     1      26.228  45.327  50.087  1.00  0.00     0.192 HD
ENDROOT
BRANCH   1   5
HETATM    5  N   UNL     1      24.249  45.846  50.433  1.00  0.00    -0.184 NA
HETATM    6  C   UNL     1      24.061  46.207  49.205  1.00  0.00     0.153 C 
BRANCH   6   7
HETATM    7  C   UNL     1      22.884  46.972  48.836  1.00  0.00     0.018 A 
HETATM    8  C   UNL     1      21.628  46.472  48.518  1.00  0.00     0.018 A 
HETATM    9  C   UNL     1      21.118  45.075  48.452  1.00  0.00     0.069 C 
HETATM   10  N   UNL     1      20.809  47.540  48.248  1.00  0.00    -0.358 N 
HETATM   11  H   UNL     1      19.834  47.471  47.991  1.00  0.00     0.166 HD
HETATM   12  C   UNL     1      21.494  48.723  48.377  1.00  0.00     0.043 A 
HETATM   13  C   UNL     1      22.802  48.402  48.742  1.00  0.00     0.004 A 
HETATM   14  C   UNL     1      21.056  50.040  48.198  1.00  0.00     0.030 A 
HETATM   15  C   UNL     1      23.719  49.458  48.931  1.00  0.00     0.014 A 
HETATM   16  C   UNL     1      23.300  50.781  48.753  1.00  0.00     0.001 A 
HETATM   17  C   UNL     1      21.985  51.065  48.394  1.00  0.00     0.002 A 
ENDBRANCH   6   7
ENDBRANCH   1   5
BRANCH   2  18
HETATM   18  C   UNL     1      26.923  43.738  51.933  1.00  0.00     0.227 C 
BRANCH  18  19
HETATM   19  N   UNL     1      27.566  43.998  53.217  1.00  0.00    -0.348 N 
HETATM   20  C   UNL     1      28.902  43.742  53.426  1.00  0.00     0.252 C 
HETATM   21  O   UNL     1      29.569  43.135  52.592  1.00  0.00    -0.268 OA
HETATM   22  H   UNL     1      26.965  44.286  53.976  1.00  0.00     0.163 HD
BRANCH  20  23
HETATM   23  C   UNL     1      29.511  44.161  54.722  1.00  0.00     0.035 A 
HETATM   24  C   UNL     1      30.553  43.374  55.231  1.00  0.00     0.059 A 
HETATM   25  C   UNL     1      31.165  43.728  56.428  1.00  0.00     0.117 A 
HETATM   26  F   UNL     1      32.162  42.971  56.906  1.00  0.00    -0.206 F 
HETATM   27  C   UNL     1      30.763  44.853  57.136  1.00  0.00     0.042 A 
HETATM   28  C   UNL     1      29.733  45.646  56.634  1.00  0.00     0.004 A 
HETATM   29  C   UNL     1      29.111  45.306  55.428  1.00  0.00     0.017 A 
ENDBRANCH  20  23
ENDBRANCH  18  19
ENDBRANCH   2  18
TORSDOF 5
ENDMDL
MODEL 6
REMARK VINA RESULT:      -8.9      4.477      9.582
REMARK  5 active torsions:
REMARK  status: ('A' for Active; 'I' for Inactive)
REMARK    1  A    between atoms: C_7  and  C_8 
REMARK    2  A    between atoms: N_9  and  N_10 
REMARK       I    between atoms: N_10  and  C_11 
REMARK    3  A    between atoms: C_11  and  C_12 
REMARK    4  A    between atoms: C_12  and  N_13 
REMARK       I    between atoms: N_13  and  C_14 
REMARK    5  A    between atoms: C_14  and  C_15 
ROOT
HETATM    1  N   UNL     1      27.605  43.645  51.170  1.00  0.00    -0.246 N 
HETATM    2  C   UNL     1      27.255  42.314  51.332  1.00  0.00     0.255 C 
HETATM    3  O   UNL     1      26.291  41.759  50.804  1.00  0.00    -0.270 OA
HETATM    4  H   UNL     1      28.339  44.037  51.764  1.00  0.00     0.192 HD
ENDROOT
BRANCH   1   5
HETATM    5  N   UNL     1      26.875  44.460  50.356  1.00  0.00    -0.184 NA
HETATM    6  C   UNL     1      26.515  45.586  50.882  1.00  0.00     0.153 C 
BRANCH   6   7
HETATM    7  C   UNL     1      25.709  46.527  50.124  1.00  0.00     0.018 A 
HETATM    8  C   UNL     1      24.368  46.399  49.791  1.00  0.00     0.018 A 
HETATM    9  C   UNL     1      23.384  45.320  50.080  1.00  0.00     0.069 C 
HETATM   10  N   UNL     1      24.003  47.521  49.088  1.00  0.00    -0.358 N 
HETATM   11  H   UNL     1      23.079  47.699  48.721  1.00  0.00     0.166 HD
HETATM   12  C   UNL     1      25.069  48.375  48.949  1.00  0.00     0.043 A 
HETATM   13  C   UNL     1      26.158  47.780  49.586  1.00  0.00     0.004 A 
HETATM   14  C   UNL     1      25.148  49.619  48.312  1.00  0.00     0.030 A 
HETATM   15  C   UNL     1      27.392  48.465  49.578  1.00  0.00     0.014 A 
HETATM   16  C   UNL     1      27.490  49.708  48.942  1.00  0.00     0.001 A 
HETATM   17  C   UNL     1      26.381  50.275  48.321  1.00  0.00     0.002 A 
ENDBRANCH   6   7
ENDBRANCH   1   5
BRANCH   2  18
HETATM   18  C   UNL     1      28.124  41.585  52.360  1.00  0.00     0.227 C 
BRANCH  18  19
HETATM   19  N   UNL     1      28.440  42.366  53.551  1.00  0.00    -0.348 N 
HETATM   20  C   UNL     1      29.718  42.806  53.813  1.00  0.00     0.252 C 
HETATM   21  O   UNL     1      30.672  42.422  53.140  1.00  0.00    -0.268 OA
HETATM   22  H   UNL     1      27.698  42.490  54.223  1.00  0.00     0.163 HD
BRANCH  20  23
HETATM   23  C   UNL     1      29.932  43.711  54.980  1.00  0.00     0.035 A 
HETATM   24  C   UNL     1      29.078  44.814  55.108  1.00  0.00     0.059 A 
HETATM   25  C   UNL     1      29.225  45.681  56.185  1.00  0.00     0.117 A 
HETATM   26  F   UNL     1      28.402  46.732  56.301  1.00  0.00    -0.206 F 
HETATM   27  C   UNL     1      30.208  45.475  57.144  1.00  0.00     0.042 A 
HETATM   28  C   UNL     1      31.058  44.377  57.029  1.00  0.00     0.004 A 
HETATM   29  C   UNL     1      30.919  43.492  55.954  1.00  0.00     0.017 A 
ENDBRANCH  20  23
ENDBRANCH  18  19
ENDBRANCH   2  18
TORSDOF 5
ENDMDL
MODEL 7
REMARK VINA RESULT:      -8.8      1.912      3.003
REMARK  5 active torsions:
REMARK  status: ('A' for Active; 'I' for Inactive)
REMARK    1  A    between atoms: C_7  and  C_8 
REMARK    2  A    between atoms: N_9  and  N_10 
REMARK       I    between atoms: N_10  and  C_11 
REMARK    3  A    between atoms: C_11  and  C_12 
REMARK    4  A    between atoms: C_12  and  N_13 
REMARK       I    between atoms: N_13  and  C_14 
REMARK    5  A    between atoms: C_14  and  C_15 
ROOT
HETATM    1  N   UNL     1      25.242  48.095  49.385  1.00  0.00    -0.246 N 
HETATM    2  C   UNL     1      25.968  49.148  48.850  1.00  0.00     0.255 C 
HETATM    3  O   UNL     1      27.144  49.404  49.102  1.00  0.00    -0.270 OA
HETATM    4  H   UNL     1      24.234  48.056  49.218  1.00  0.00     0.192 HD
ENDROOT
BRANCH   1   5
HETATM    5  N   UNL     1      25.826  47.220  50.253  1.00  0.00    -0.184 NA
HETATM    6  C   UNL     1      25.018  46.645  51.083  1.00  0.00     0.153 C 
BRANCH   6   7
HETATM    7  C   UNL     1      25.524  45.714  52.076  1.00  0.00     0.018 A 
HETATM    8  C   UNL     1      25.325  44.341  52.112  1.00  0.00     0.018 A 
HETATM    9  C   UNL     1      24.569  43.436  51.203  1.00  0.00     0.069 C 
HETATM   10  N   UNL     1      25.991  43.850  53.208  1.00  0.00    -0.358 N 
HETATM   11  H   UNL     1      26.022  42.877  53.479  1.00  0.00     0.166 HD
HETATM   12  C   UNL     1      26.617  44.864  53.890  1.00  0.00     0.043 A 
HETATM   13  C   UNL     1      26.341  46.049  53.207  1.00  0.00     0.004 A 
HETATM   14  C   UNL     1      27.399  44.819  55.050  1.00  0.00     0.030 A 
HETATM   15  C   UNL     1      26.872  47.253  53.719  1.00  0.00     0.014 A 
HETATM   16  C   UNL     1      27.652  47.227  54.881  1.00  0.00     0.001 A 
HETATM   17  C   UNL     1      27.912  46.025  55.533  1.00  0.00     0.002 A 
ENDBRANCH   6   7
ENDBRANCH   1   5
BRANCH   2  18
HETATM   18  C   UNL     1      25.120  50.081  47.981  1.00  0.00     0.227 C 
BRANCH  18  19
HETATM   19  N   UNL     1      23.798  50.379  48.520  1.00  0.00    -0.348 N 
HETATM   20  C   UNL     1      22.702  49.598  48.230  1.00  0.00     0.252 C 
HETATM   21  O   UNL     1      22.760  48.716  47.378  1.00  0.00    -0.268 OA
HETATM   22  H   UNL     1      23.703  51.239  49.040  1.00  0.00     0.163 HD
BRANCH  20  23
HETATM   23  C   UNL     1      21.416  49.893  48.927  1.00  0.00     0.035 A 
HETATM   24  C   UNL     1      20.643  48.803  49.346  1.00  0.00     0.059 A 
HETATM   25  C   UNL     1      19.443  49.021  50.014  1.00  0.00     0.117 A 
HETATM   26  F   UNL     1      18.712  47.971  50.413  1.00  0.00    -0.206 F 
HETATM   27  C   UNL     1      18.991  50.307  50.276  1.00  0.00     0.042 A 
HETATM   28  C   UNL     1      19.756  51.398  49.870  1.00  0.00     0.004 A 
HETATM   29  C   UNL     1      20.969  51.195  49.202  1.00  0.00     0.017 A 
ENDBRANCH  20  23
ENDBRANCH  18  19
ENDBRANCH   2  18
TORSDOF 5
ENDMDL
MODEL 8
REMARK VINA RESULT:      -8.8      2.082      2.292
REMARK  5 active torsions:
REMARK  status: ('A' for Active; 'I' for Inactive)
REMARK    1  A    between atoms: C_7  and  C_8 
REMARK    2  A    between atoms: N_9  and  N_10 
REMARK       I    between atoms: N_10  and  C_11 
REMARK    3  A    between atoms: C_11  and  C_12 
REMARK    4  A    between atoms: C_12  and  N_13 
REMARK       I    between atoms: N_13  and  C_14 
REMARK    5  A    between atoms: C_14  and  C_15 
ROOT
HETATM    1  N   UNL     1      24.901  45.945  51.741  1.00  0.00    -0.246 N 
HETATM    2  C   UNL     1      24.260  44.824  51.240  1.00  0.00     0.255 C 
HETATM    3  O   UNL     1      24.212  43.723  51.789  1.00  0.00    -0.270 OA
HETATM    4  H   UNL     1      25.000  46.767  51.141  1.00  0.00     0.192 HD
ENDROOT
BRANCH   1   5
HETATM    5  N   UNL     1      25.534  45.900  52.949  1.00  0.00    -0.184 NA
HETATM    6  C   UNL     1      26.815  46.076  52.907  1.00  0.00     0.153 C 
BRANCH   6   7
HETATM    7  C   UNL     1      27.604  46.022  54.124  1.00  0.00     0.018 A 
HETATM    8  C   UNL     1      27.528  46.884  55.209  1.00  0.00     0.018 A 
HETATM    9  C   UNL     1      26.667  48.073  55.457  1.00  0.00     0.069 C 
HETATM   10  N   UNL     1      28.438  46.460  56.145  1.00  0.00    -0.358 N 
HETATM   11  H   UNL     1      28.596  46.901  57.041  1.00  0.00     0.166 HD
HETATM   12  C   UNL     1      29.109  45.347  55.701  1.00  0.00     0.043 A 
HETATM   13  C   UNL     1      28.612  45.047  54.433  1.00  0.00     0.004 A 
HETATM   14  C   UNL     1      30.111  44.593  56.324  1.00  0.00     0.030 A 
HETATM   15  C   UNL     1      29.153  43.936  53.751  1.00  0.00     0.014 A 
HETATM   16  C   UNL     1      30.158  43.173  54.356  1.00  0.00     0.001 A 
HETATM   17  C   UNL     1      30.626  43.498  55.626  1.00  0.00     0.002 A 
ENDBRANCH   6   7
ENDBRANCH   1   5
BRANCH   2  18
HETATM   18  C   UNL     1      23.698  45.033  49.831  1.00  0.00     0.227 C 
BRANCH  18  19
HETATM   19  N   UNL     1      23.387  46.420  49.501  1.00  0.00    -0.348 N 
HETATM   20  C   UNL     1      22.280  46.759  48.756  1.00  0.00     0.252 C 
HETATM   21  O   UNL     1      21.600  45.898  48.203  1.00  0.00    -0.268 OA
HETATM   22  H   UNL     1      24.072  47.114  49.764  1.00  0.00     0.163 HD
BRANCH  20  23
HETATM   23  C   UNL     1      21.961  48.205  48.576  1.00  0.00     0.035 A 
HETATM   24  C   UNL     1      22.797  49.136  49.207  1.00  0.00     0.059 A 
HETATM   25  C   UNL     1      22.553  50.496  49.060  1.00  0.00     0.117 A 
HETATM   26  F   UNL     1      23.360  51.378  49.665  1.00  0.00    -0.206 F 
HETATM   27  C   UNL     1      21.489  50.957  48.296  1.00  0.00     0.042 A 
HETATM   28  C   UNL     1      20.656  50.040  47.658  1.00  0.00     0.004 A 
HETATM   29  C   UNL     1      20.892  48.667  47.792  1.00  0.00     0.017 A 
ENDBRANCH  20  23
ENDBRANCH  18  19
ENDBRANCH   2  18
TORSDOF 5
ENDMDL
MODEL 9
REMARK VINA RESULT:      -8.5      6.119      8.543
REMARK  5 active torsions:
REMARK  status: ('A' for Active; 'I' for Inactive)
REMARK    1  A    between atoms: C_7  and  C_8 
REMARK    2  A    between atoms: N_9  and  N_10 
REMARK       I    between atoms: N_10  and  C_11 
REMARK    3  A    between atoms: C_11  and  C_12 
REMARK    4  A    between atoms: C_12  and  N_13 
REMARK       I    between atoms: N_13  and  C_14 
REMARK    5  A    between atoms: C_14  and  C_15 
ROOT
HETATM    1  N   UNL     1      27.461  43.210  51.193  1.00  0.00    -0.246 N 
HETATM    2  C   UNL     1      27.118  43.904  50.043  1.00  0.00     0.255 C 
HETATM    3  O   UNL     1      27.367  45.088  49.823  1.00  0.00    -0.270 OA
HETATM    4  H   UNL     1      27.083  42.270  51.333  1.00  0.00     0.192 HD
ENDROOT
BRANCH   1   5
HETATM    5  N   UNL     1      28.153  43.826  52.194  1.00  0.00    -0.184 NA
HETATM    6  C   UNL     1      27.425  44.330  53.137  1.00  0.00     0.153 C 
BRANCH   6   7
HETATM    7  C   UNL     1      28.043  45.037  54.244  1.00  0.00     0.018 A 
HETATM    8  C   UNL     1      27.679  46.278  54.751  1.00  0.00     0.018 A 
HETATM    9  C   UNL     1      26.608  47.228  54.342  1.00  0.00     0.069 C 
HETATM   10  N   UNL     1      28.514  46.560  55.804  1.00  0.00    -0.358 N 
HETATM   11  H   UNL     1      28.475  47.401  56.364  1.00  0.00     0.166 HD
HETATM   12  C   UNL     1      29.414  45.542  55.997  1.00  0.00     0.043 A 
HETATM   13  C   UNL     1      29.148  44.570  55.033  1.00  0.00     0.004 A 
HETATM   14  C   UNL     1      30.435  45.411  56.947  1.00  0.00     0.030 A 
HETATM   15  C   UNL     1      29.951  43.410  55.015  1.00  0.00     0.014 A 
HETATM   16  C   UNL     1      30.979  43.264  55.954  1.00  0.00     0.001 A 
HETATM   17  C   UNL     1      31.213  44.252  56.907  1.00  0.00     0.002 A 
ENDBRANCH   6   7
ENDBRANCH   1   5
BRANCH   2  18
HETATM   18  C   UNL     1      26.258  43.081  49.080  1.00  0.00     0.227 C 
BRANCH  18  19
HETATM   19  N   UNL     1      26.949  41.959  48.455  1.00  0.00    -0.348 N 
HETATM   20  C   UNL     1      26.836  40.675  48.940  1.00  0.00     0.252 C 
HETATM   21  O   UNL     1      26.281  40.449  50.012  1.00  0.00    -0.268 OA
HETATM   22  H   UNL     1      27.589  42.180  47.707  1.00  0.00     0.163 HD
BRANCH  20  23
HETATM   23  C   UNL     1      27.466  39.566  48.166  1.00  0.00     0.035 A 
HETATM   24  C   UNL     1      26.962  39.304  46.885  1.00  0.00     0.059 A 
HETATM   25  C   UNL     1      27.522  38.291  46.115  1.00  0.00     0.117 A 
HETATM   26  F   UNL     1      27.035  38.050  44.890  1.00  0.00    -0.206 F 
HETATM   27  C   UNL     1      28.579  37.527  46.592  1.00  0.00     0.042 A 
HETATM   28  C   UNL     1      29.092  37.785  47.861  1.00  0.00     0.004 A 
HETATM   29  C   UNL     1      28.543  38.805  48.646  1.00  0.00     0.017 A 
ENDBRANCH  20  23
ENDBRANCH  18  19
ENDBRANCH   2  18
TORSDOF 5
ENDMDL
MODEL 10
REMARK VINA RESULT:      -8.4      3.488     10.550
REMARK  5 active torsions:
REMARK  status: ('A' for Active; 'I' for Inactive)
REMARK    1  A    between atoms: C_7  and  C_8 
REMARK    2  A    between atoms: N_9  and  N_10 
REMARK       I    between atoms: N_10  and  C_11 
REMARK    3  A    between atoms: C_11  and  C_12 
REMARK    4  A    between atoms: C_12  and  N_13 
REMARK       I    between atoms: N_13  and  C_14 
REMARK    5  A    between atoms: C_14  and  C_15 
ROOT
HETATM    1  N   UNL     1      22.999  46.664  48.742  1.00  0.00    -0.246 N 
HETATM    2  C   UNL     1      23.897  47.051  49.725  1.00  0.00     0.255 C 
HETATM    3  O   UNL     1      24.120  48.211  50.070  1.00  0.00    -0.270 OA
HETATM    4  H   UNL     1      22.994  45.689  48.436  1.00  0.00     0.192 HD
ENDROOT
BRANCH   1   5
HETATM    5  N   UNL     1      22.254  47.594  48.079  1.00  0.00    -0.184 NA
HETATM    6  C   UNL     1      20.974  47.488  48.235  1.00  0.00     0.153 C 
BRANCH   6   7
HETATM    7  C   UNL     1      20.072  48.402  47.557  1.00  0.00     0.018 A 
HETATM    8  C   UNL     1      19.303  48.135  46.432  1.00  0.00     0.018 A 
HETATM    9  C   UNL     1      19.168  46.904  45.606  1.00  0.00     0.069 C 
HETATM   10  N   UNL     1      18.588  49.270  46.137  1.00  0.00    -0.358 N 
HETATM   11  H   UNL     1      17.940  49.361  45.367  1.00  0.00     0.166 HD
HETATM   12  C   UNL     1      18.870  50.270  47.034  1.00  0.00     0.043 A 
HETATM   13  C   UNL     1      19.802  49.759  47.938  1.00  0.00     0.004 A 
HETATM   14  C   UNL     1      18.374  51.577  47.110  1.00  0.00     0.030 A 
HETATM   15  C   UNL     1      20.265  50.605  48.968  1.00  0.00     0.014 A 
HETATM   16  C   UNL     1      19.783  51.916  49.057  1.00  0.00     0.001 A 
HETATM   17  C   UNL     1      18.849  52.391  48.141  1.00  0.00     0.002 A 
ENDBRANCH   6   7
ENDBRANCH   1   5
BRANCH   2  18
HETATM   18  C   UNL     1      24.715  45.885  50.283  1.00  0.00     0.227 C 
BRANCH  18  19
HETATM   19  N   UNL     1      25.612  46.241  51.377  1.00  0.00    -0.348 N 
HETATM   20  C   UNL     1      25.621  45.546  52.566  1.00  0.00     0.252 C 
HETATM   21  O   UNL     1      24.763  44.702  52.813  1.00  0.00    -0.268 OA
HETATM   22  H   UNL     1      26.161  47.080  51.259  1.00  0.00     0.163 HD
BRANCH  20  23
HETATM   23  C   UNL     1      26.659  45.888  53.581  1.00  0.00     0.035 A 
HETATM   24  C   UNL     1      27.624  44.916  53.874  1.00  0.00     0.059 A 
HETATM   25  C   UNL     1      28.622  45.189  54.802  1.00  0.00     0.117 A 
HETATM   26  F   UNL     1      29.542  44.252  55.073  1.00  0.00    -0.206 F 
HETATM   27  C   UNL     1      28.685  46.415  55.450  1.00  0.00     0.042 A 
HETATM   28  C   UNL     1      27.735  47.392  55.160  1.00  0.00     0.004 A 
HETATM   29  C   UNL     1      26.727  47.135  54.224  1.00  0.00     0.017 A 
ENDBRANCH  20  23
ENDBRANCH  18  19
ENDBRANCH   2  18
TORSDOF 5
ENDMDL
