MODEL 1
REMARK VINA RESULT:      -8.9      0.000      0.000
REMARK  5 active torsions:
REMARK  status: ('A' for Active; 'I' for Inactive)
REMARK    1  A    between atoms: C_5  and  C_6 
REMARK    2  A    between atoms: C_9  and  O_10 
REMARK    3  A    between atoms: N_14  and  C_15 
REMARK    4  A    between atoms: C_15  and  C_16 
REMARK       I    between atoms: C_16  and  N_17 
REMARK    5  A    between atoms: N_17  and  C_18 
ROOT
HETATM    1  C   UNL     1      28.783  40.630  52.118  1.00  0.00     0.156 C 
HETATM    2  N   UNL     1      28.225  41.925  52.426  1.00  0.00    -0.346 N 
HETATM    3  C   UNL     1      27.123  42.468  51.860  1.00  0.00     0.113 A 
HETATM    4  C   UNL     1      26.904  43.713  52.382  1.00  0.00     0.014 A 
HETATM    5  C   UNL     1      25.688  44.320  51.784  1.00  0.00     0.158 A 
HETATM    6  N   UNL     1      25.224  43.189  50.937  1.00  0.00    -0.325 N 
HETATM    7  C   UNL     1      26.092  42.087  50.955  1.00  0.00     0.272 A 
HETATM    8  O   UNL     1      25.936  41.013  50.400  1.00  0.00    -0.266 OA
HETATM    9  C   UNL     1      27.872  43.950  53.373  1.00  0.00     0.002 A 
HETATM   10  C   UNL     1      28.700  42.809  53.389  1.00  0.00     0.045 A 
HETATM   11  C   UNL     1      28.130  44.999  54.274  1.00  0.00     0.014 A 
HETATM   12  C   UNL     1      29.196  44.885  55.171  1.00  0.00     0.001 A 
HETATM   13  C   UNL     1      30.004  43.750  55.175  1.00  0.00     0.002 A 
HETATM   14  C   UNL     1      29.775  42.696  54.287  1.00  0.00     0.030 A 
ENDROOT
BRANCH   6  15
HETATM   15  C   UNL     1      23.808  42.989  50.702  1.00  0.00     0.229 C 
BRANCH  15  16
HETATM   16  C   UNL     1      23.283  43.578  49.402  1.00  0.00     0.235 C 
HETATM   17  N   UNL     1      22.354  44.585  49.563  1.00  0.00    -0.355 N 
HETATM   18  H   UNL     1      22.115  44.857  50.511  1.00  0.00     0.162 HD
HETATM   19  O   UNL     1      23.752  43.255  48.313  1.00  0.00    -0.272 OA
BRANCH  17  20
HETATM   20  C   UNL     1      22.040  45.476  48.469  1.00  0.00     0.084 C 
HETATM   21  C   UNL     1      20.588  45.934  48.459  1.00  0.00     0.025 C 
HETATM   22  C   UNL     1      20.633  47.162  47.562  1.00  0.00     0.002 C 
HETATM   23  C   UNL     1      21.932  47.864  47.940  1.00  0.00     0.002 C 
HETATM   24  C   UNL     1      22.835  46.787  48.541  1.00  0.00     0.025 C 
ENDBRANCH  17  20
ENDBRANCH  15  16
ENDBRANCH   6  15
BRANCH   5  25
HETATM   25  C   UNL     1      26.077  45.545  50.980  1.00  0.00    -0.030 A 
HETATM   26  C   UNL     1      27.058  45.552  49.972  1.00  0.00     0.012 A 
HETATM   27  C   UNL     1      27.375  46.724  49.279  1.00  0.00     0.037 A 
HETATM   28  C   UNL     1      26.704  47.915  49.546  1.00  0.00     0.068 A 
HETATM   29  C   UNL     1      25.704  47.922  50.515  1.00  0.00     0.037 A 
HETATM   30  C   UNL     1      25.397  46.752  51.224  1.00  0.00     0.012 A 
BRANCH  28  31
HETATM   31  O   UNL     1      27.116  48.983  48.799  1.00  0.00    -0.356 OA
HETATM   32  C   UNL     1      26.103  49.772  48.190  1.00  0.00     0.210 C 
ENDBRANCH  28  31
ENDBRANCH   5  25
TORSDOF 5
ENDMDL
MODEL 2
REMARK VINA RESULT:      -8.7      2.427      4.678
REMARK  5 active torsions:
REMARK  status: ('A' for Active; 'I' for Inactive)
REMARK    1  A    between atoms: C_5  and  C_6 
REMARK    2  A    between atoms: C_9  and  O_10 
REMARK    3  A    between atoms: N_14  and  C_15 
REMARK    4  A    between atoms: C_15  and  C_16 
REMARK       I    between atoms: C_16  and  N_17 
REMARK    5  A    between atoms: N_17  and  C_18 
ROOT
HETATM    1  C   UNL     1      26.824  46.087  55.084  1.00  0.00     0.156 C 
HETATM    2  N   UNL     1      26.953  45.424  53.808  1.00  0.00    -0.346 N 
HETATM    3  C   UNL     1      26.340  45.790  52.659  1.00  0.00     0.113 A 
HETATM    4  C   UNL     1      26.682  44.922  51.659  1.00  0.00     0.014 A 
HETATM    5  C   UNL     1      26.030  45.316  50.385  1.00  0.00     0.158 A 
HETATM    6  N   UNL     1      25.366  46.576  50.813  1.00  0.00    -0.325 N 
HETATM    7  C   UNL     1      25.523  46.853  52.178  1.00  0.00     0.272 A 
HETATM    8  O   UNL     1      25.133  47.836  52.784  1.00  0.00    -0.266 OA
HETATM    9  C   UNL     1      27.606  43.998  52.177  1.00  0.00     0.002 A 
HETATM   10  C   UNL     1      27.768  44.330  53.538  1.00  0.00     0.045 A 
HETATM   11  C   UNL     1      28.339  42.925  51.639  1.00  0.00     0.014 A 
HETATM   12  C   UNL     1      29.219  42.216  52.462  1.00  0.00     0.001 A 
HETATM   13  C   UNL     1      29.369  42.557  53.804  1.00  0.00     0.002 A 
HETATM   14  C   UNL     1      28.648  43.615  54.366  1.00  0.00     0.030 A 
ENDROOT
BRANCH   6  15
HETATM   15  C   UNL     1      25.195  47.664  49.870  1.00  0.00     0.229 C 
BRANCH  15  16
HETATM   16  C   UNL     1      23.788  47.815  49.312  1.00  0.00     0.235 C 
HETATM   17  N   UNL     1      23.186  49.023  49.597  1.00  0.00    -0.355 N 
HETATM   18  H   UNL     1      23.722  49.702  50.127  1.00  0.00     0.162 HD
HETATM   19  O   UNL     1      23.297  46.970  48.567  1.00  0.00    -0.272 OA
BRANCH  17  20
HETATM   20  C   UNL     1      22.027  49.459  48.850  1.00  0.00     0.084 C 
HETATM   21  C   UNL     1      20.713  49.234  49.586  1.00  0.00     0.025 C 
HETATM   22  C   UNL     1      19.756  50.160  48.850  1.00  0.00     0.002 C 
HETATM   23  C   UNL     1      20.579  51.412  48.569  1.00  0.00     0.002 C 
HETATM   24  C   UNL     1      22.042  50.970  48.585  1.00  0.00     0.025 C 
ENDBRANCH  17  20
ENDBRANCH  15  16
ENDBRANCH   6  15
BRANCH   5  25
HETATM   25  C   UNL     1      25.048  44.239  49.964  1.00  0.00    -0.030 A 
HETATM   26  C   UNL     1      23.706  44.187  50.379  1.00  0.00     0.012 A 
HETATM   27  C   UNL     1      22.860  43.155  49.962  1.00  0.00     0.037 A 
HETATM   28  C   UNL     1      23.316  42.164  49.094  1.00  0.00     0.068 A 
HETATM   29  C   UNL     1      24.631  42.218  48.643  1.00  0.00     0.037 A 
HETATM   30  C   UNL     1      25.487  43.242  49.074  1.00  0.00     0.012 A 
BRANCH  28  31
HETATM   31  O   UNL     1      22.385  41.216  48.771  1.00  0.00    -0.356 OA
HETATM   32  C   UNL     1      22.364  40.770  47.422  1.00  0.00     0.210 C 
ENDBRANCH  28  31
ENDBRANCH   5  25
TORSDOF 5
ENDMDL
MODEL 3
REMARK VINA RESULT:      -8.5      1.977      7.180
REMARK  5 active torsions:
REMARK  status: ('A' for Active; 'I' for Inactive)
REMARK    1  A    between atoms: C_5  and  C_6 
REMARK    2  A    between atoms: C_9  and  O_10 
REMARK    3  A    between atoms: N_14  and  C_15 
REMARK    4  A    between atoms: C_15  and  C_16 
REMARK       I    between atoms: C_16  and  N_17 
REMARK    5  A    between atoms: N_17  and  C_18 
ROOT
HETATM    1  C   UNL     1      20.221  46.289  48.260  1.00  0.00     0.156 C 
HETATM    2  N   UNL     1      21.565  46.710  48.575  1.00  0.00    -0.346 N 
HETATM    3  C   UNL     1      22.591  45.897  48.915  1.00  0.00     0.113 A 
HETATM    4  C   UNL     1      23.708  46.646  49.161  1.00  0.00     0.014 A 
HETATM    5  C   UNL     1      24.851  45.769  49.523  1.00  0.00     0.158 A 
HETATM    6  N   UNL     1      24.221  44.434  49.342  1.00  0.00    -0.325 N 
HETATM    7  C   UNL     1      22.861  44.502  49.005  1.00  0.00     0.272 A 
HETATM    8  O   UNL     1      22.115  43.573  48.749  1.00  0.00    -0.266 OA
HETATM    9  C   UNL     1      23.400  47.993  48.903  1.00  0.00     0.002 A 
HETATM   10  C   UNL     1      22.040  48.017  48.532  1.00  0.00     0.045 A 
HETATM   11  C   UNL     1      24.128  49.196  48.925  1.00  0.00     0.014 A 
HETATM   12  C   UNL     1      23.491  50.389  48.570  1.00  0.00     0.001 A 
HETATM   13  C   UNL     1      22.147  50.395  48.204  1.00  0.00     0.002 A 
HETATM   14  C   UNL     1      21.398  49.215  48.181  1.00  0.00     0.030 A 
ENDROOT
BRANCH   6  15
HETATM   15  C   UNL     1      25.018  43.307  48.902  1.00  0.00     0.229 C 
BRANCH  15  16
HETATM   16  C   UNL     1      25.664  42.502  50.020  1.00  0.00     0.235 C 
HETATM   17  N   UNL     1      26.922  42.934  50.384  1.00  0.00    -0.355 N 
HETATM   18  H   UNL     1      27.299  43.744  49.902  1.00  0.00     0.162 HD
HETATM   19  O   UNL     1      25.048  41.623  50.619  1.00  0.00    -0.272 OA
BRANCH  17  20
HETATM   20  C   UNL     1      27.504  42.523  51.642  1.00  0.00     0.084 C 
HETATM   21  C   UNL     1      28.390  41.290  51.524  1.00  0.00     0.025 C 
HETATM   22  C   UNL     1      29.214  41.350  52.802  1.00  0.00     0.002 C 
HETATM   23  C   UNL     1      29.528  42.830  52.985  1.00  0.00     0.002 C 
HETATM   24  C   UNL     1      28.440  43.590  52.226  1.00  0.00     0.025 C 
ENDBRANCH  17  20
ENDBRANCH  15  16
ENDBRANCH   6  15
BRANCH   5  25
HETATM   25  C   UNL     1      25.266  46.043  50.956  1.00  0.00    -0.030 A 
HETATM   26  C   UNL     1      26.076  47.121  51.353  1.00  0.00     0.012 A 
HETATM   27  C   UNL     1      26.430  47.304  52.693  1.00  0.00     0.037 A 
HETATM   28  C   UNL     1      25.963  46.439  53.680  1.00  0.00     0.068 A 
HETATM   29  C   UNL     1      25.130  45.386  53.312  1.00  0.00     0.037 A 
HETATM   30  C   UNL     1      24.788  45.190  51.967  1.00  0.00     0.012 A 
BRANCH  28  31
HETATM   31  O   UNL     1      26.389  46.732  54.945  1.00  0.00    -0.356 OA
HETATM   32  C   UNL     1      27.787  46.913  55.128  1.00  0.00     0.210 C 
ENDBRANCH  28  31
ENDBRANCH   5  25
TORSDOF 5
ENDMDL
MODEL 4
REMARK VINA RESULT:      -8.2      2.386      4.981
REMARK  5 active torsions:
REMARK  status: ('A' for Active; 'I' for Inactive)
REMARK    1  A    between atoms: C_5  and  C_6 
REMARK    2  A    between atoms: C_9  and  O_10 
REMARK    3  A    between atoms: N_14  and  C_15 
REMARK    4  A    between atoms: C_15  and  C_16 
REMARK       I    between atoms: C_16  and  N_17 
REMARK    5  A    between atoms: N_17  and  C_18 
ROOT
HETATM    1  C   UNL     1      25.513  44.239  54.787  1.00  0.00     0.156 C 
HETATM    2  N   UNL     1      26.385  43.859  53.700  1.00  0.00    -0.346 N 
HETATM    3  C   UNL     1      26.041  43.793  52.394  1.00  0.00     0.113 A 
HETATM    4  C   UNL     1      27.115  43.381  51.656  1.00  0.00     0.014 A 
HETATM    5  C   UNL     1      26.761  43.316  50.215  1.00  0.00     0.158 A 
HETATM    6  N   UNL     1      25.372  43.846  50.266  1.00  0.00    -0.325 N 
HETATM    7  C   UNL     1      24.923  44.108  51.569  1.00  0.00     0.272 A 
HETATM    8  O   UNL     1      23.855  44.592  51.900  1.00  0.00    -0.266 OA
HETATM    9  C   UNL     1      28.214  43.240  52.520  1.00  0.00     0.002 A 
HETATM   10  C   UNL     1      27.736  43.547  53.811  1.00  0.00     0.045 A 
HETATM   11  C   UNL     1      29.569  42.903  52.352  1.00  0.00     0.014 A 
HETATM   12  C   UNL     1      30.415  42.887  53.465  1.00  0.00     0.001 A 
HETATM   13  C   UNL     1      29.927  43.195  54.733  1.00  0.00     0.002 A 
HETATM   14  C   UNL     1      28.584  43.527  54.930  1.00  0.00     0.030 A 
ENDROOT
BRANCH   6  15
HETATM   15  C   UNL     1      24.844  44.609  49.153  1.00  0.00     0.229 C 
BRANCH  15  16
HETATM   16  C   UNL     1      24.913  46.120  49.320  1.00  0.00     0.235 C 
HETATM   17  N   UNL     1      23.768  46.790  48.943  1.00  0.00    -0.355 N 
HETATM   18  H   UNL     1      22.987  46.235  48.609  1.00  0.00     0.162 HD
HETATM   19  O   UNL     1      25.871  46.664  49.864  1.00  0.00    -0.272 OA
BRANCH  17  20
HETATM   20  C   UNL     1      23.540  48.152  49.371  1.00  0.00     0.084 C 
HETATM   21  C   UNL     1      24.302  49.181  48.547  1.00  0.00     0.025 C 
HETATM   22  C   UNL     1      23.562  50.473  48.861  1.00  0.00     0.002 C 
HETATM   23  C   UNL     1      22.093  50.069  48.902  1.00  0.00     0.002 C 
HETATM   24  C   UNL     1      22.073  48.573  49.214  1.00  0.00     0.025 C 
ENDBRANCH  17  20
ENDBRANCH  15  16
ENDBRANCH   6  15
BRANCH   5  25
HETATM   25  C   UNL     1      26.832  41.877  49.740  1.00  0.00    -0.030 A 
HETATM   26  C   UNL     1      26.368  40.776  50.481  1.00  0.00     0.012 A 
HETATM   27  C   UNL     1      26.478  39.473  49.986  1.00  0.00     0.037 A 
HETATM   28  C   UNL     1      27.023  39.232  48.727  1.00  0.00     0.068 A 
HETATM   29  C   UNL     1      27.455  40.312  47.962  1.00  0.00     0.037 A 
HETATM   30  C   UNL     1      27.362  41.617  48.464  1.00  0.00     0.012 A 
BRANCH  28  31
HETATM   31  O   UNL     1      27.074  37.913  48.369  1.00  0.00    -0.356 OA
HETATM   32  C   UNL     1      26.876  36.958  49.403  1.00  0.00     0.210 C 
ENDBRANCH  28  31
ENDBRANCH   5  25
TORSDOF 5
ENDMDL
MODEL 5
REMARK VINA RESULT:      -8.1      2.725      7.413
REMARK  5 active torsions:
REMARK  status: ('A' for Active; 'I' for Inactive)
REMARK    1  A    between atoms: C_5  and  C_6 
REMARK    2  A    between atoms: C_9  and  O_10 
REMARK    3  A    between atoms: N_14  and  C_15 
REMARK    4  A    between atoms: C_15  and  C_16 
REMARK       I    between atoms: C_16  and  N_17 
REMARK    5  A    between atoms: N_17  and  C_18 
ROOT
HETATM    1  C   UNL     1      18.829  47.480  48.633  1.00  0.00     0.156 C 
HETATM    2  N   UNL     1      20.260  47.673  48.640  1.00  0.00    -0.346 N 
HETATM    3  C   UNL     1      21.192  46.696  48.569  1.00  0.00     0.113 A 
HETATM    4  C   UNL     1      22.442  47.248  48.621  1.00  0.00     0.014 A 
HETATM    5  C   UNL     1      23.480  46.191  48.529  1.00  0.00     0.158 A 
HETATM    6  N   UNL     1      22.617  44.997  48.320  1.00  0.00    -0.325 N 
HETATM    7  C   UNL     1      21.246  45.287  48.371  1.00  0.00     0.272 A 
HETATM    8  O   UNL     1      20.320  44.517  48.183  1.00  0.00    -0.266 OA
HETATM    9  C   UNL     1      22.303  48.646  48.662  1.00  0.00     0.002 A 
HETATM   10  C   UNL     1      20.916  48.899  48.673  1.00  0.00     0.045 A 
HETATM   11  C   UNL     1      23.199  49.729  48.673  1.00  0.00     0.014 A 
HETATM   12  C   UNL     1      22.697  51.034  48.686  1.00  0.00     0.001 A 
HETATM   13  C   UNL     1      21.324  51.268  48.695  1.00  0.00     0.002 A 
HETATM   14  C   UNL     1      20.411  50.209  48.691  1.00  0.00     0.030 A 
ENDROOT
BRANCH   6  15
HETATM   15  C   UNL     1      23.093  43.888  47.518  1.00  0.00     0.229 C 
BRANCH  15  16
HETATM   16  C   UNL     1      23.362  42.605  48.292  1.00  0.00     0.235 C 
HETATM   17  N   UNL     1      24.698  42.306  48.456  1.00  0.00    -0.355 N 
HETATM   18  H   UNL     1      25.376  42.956  48.073  1.00  0.00     0.162 HD
HETATM   19  O   UNL     1      22.453  41.972  48.824  1.00  0.00    -0.272 OA
BRANCH  17  20
HETATM   20  C   UNL     1      25.118  41.348  49.454  1.00  0.00     0.084 C 
HETATM   21  C   UNL     1      25.973  40.221  48.890  1.00  0.00     0.025 C 
HETATM   22  C   UNL     1      26.646  39.659  50.133  1.00  0.00     0.002 C 
HETATM   23  C   UNL     1      26.981  40.886  50.973  1.00  0.00     0.002 C 
HETATM   24  C   UNL     1      26.012  41.982  50.528  1.00  0.00     0.025 C 
ENDBRANCH  17  20
ENDBRANCH  15  16
ENDBRANCH   6  15
BRANCH   5  25
HETATM   25  C   UNL     1      24.266  46.138  49.825  1.00  0.00    -0.030 A 
HETATM   26  C   UNL     1      24.106  45.145  50.807  1.00  0.00     0.012 A 
HETATM   27  C   UNL     1      24.856  45.166  51.986  1.00  0.00     0.037 A 
HETATM   28  C   UNL     1      25.809  46.157  52.208  1.00  0.00     0.068 A 
HETATM   29  C   UNL     1      26.009  47.130  51.232  1.00  0.00     0.037 A 
HETATM   30  C   UNL     1      25.245  47.120  50.056  1.00  0.00     0.012 A 
BRANCH  28  31
HETATM   31  O   UNL     1      26.467  46.060  53.403  1.00  0.00    -0.356 OA
HETATM   32  C   UNL     1      26.632  47.260  54.146  1.00  0.00     0.210 C 
ENDBRANCH  28  31
ENDBRANCH   5  25
TORSDOF 5
ENDMDL
MODEL 6
REMARK VINA RESULT:      -7.8     17.917     20.543
REMARK  5 active torsions:
REMARK  status: ('A' for Active; 'I' for Inactive)
REMARK    1  A    between atoms: C_5  and  C_6 
REMARK    2  A    between atoms: C_9  and  O_10 
REMARK    3  A    between atoms: N_14  and  C_15 
REMARK    4  A    between atoms: C_15  and  C_16 
REMARK       I    between atoms: C_16  and  N_17 
REMARK    5  A    between atoms: N_17  and  C_18 
ROOT
HETATM    1  C   UNL     1      35.701  47.390  68.002  1.00  0.00     0.156 C 
HETATM    2  N   UNL     1      36.703  47.344  66.964  1.00  0.00    -0.346 N 
HETATM    3  C   UNL     1      37.022  46.263  66.216  1.00  0.00     0.113 A 
HETATM    4  C   UNL     1      38.027  46.585  65.347  1.00  0.00     0.014 A 
HETATM    5  C   UNL     1      38.380  45.413  64.506  1.00  0.00     0.158 A 
HETATM    6  N   UNL     1      37.358  44.440  64.975  1.00  0.00    -0.325 N 
HETATM    7  C   UNL     1      36.558  44.931  66.017  1.00  0.00     0.272 A 
HETATM    8  O   UNL     1      35.616  44.373  66.553  1.00  0.00    -0.266 OA
HETATM    9  C   UNL     1      38.320  47.950  65.501  1.00  0.00     0.002 A 
HETATM   10  C   UNL     1      37.473  48.417  66.527  1.00  0.00     0.045 A 
HETATM   11  C   UNL     1      39.198  48.851  64.872  1.00  0.00     0.014 A 
HETATM   12  C   UNL     1      39.207  50.191  65.271  1.00  0.00     0.001 A 
HETATM   13  C   UNL     1      38.363  50.637  66.285  1.00  0.00     0.002 A 
HETATM   14  C   UNL     1      37.485  49.762  66.932  1.00  0.00     0.030 A 
ENDROOT
BRANCH   6  15
HETATM   15  C   UNL     1      36.825  43.449  64.061  1.00  0.00     0.229 C 
BRANCH  15  16
HETATM   16  C   UNL     1      37.186  42.009  64.394  1.00  0.00     0.235 C 
HETATM   17  N   UNL     1      38.284  41.523  63.716  1.00  0.00    -0.355 N 
HETATM   18  H   UNL     1      38.761  42.154  63.080  1.00  0.00     0.162 HD
HETATM   19  O   UNL     1      36.610  41.390  65.286  1.00  0.00    -0.272 OA
BRANCH  17  20
HETATM   20  C   UNL     1      38.962  40.331  64.176  1.00  0.00     0.084 C 
HETATM   21  C   UNL     1      39.622  39.540  63.055  1.00  0.00     0.025 C 
HETATM   22  C   UNL     1      40.612  38.662  63.806  1.00  0.00     0.002 C 
HETATM   23  C   UNL     1      41.173  39.568  64.896  1.00  0.00     0.002 C 
HETATM   24  C   UNL     1      40.123  40.654  65.126  1.00  0.00     0.025 C 
ENDBRANCH  17  20
ENDBRANCH  15  16
ENDBRANCH   6  15
BRANCH   5  25
HETATM   25  C   UNL     1      39.801  44.979  64.814  1.00  0.00    -0.030 A 
HETATM   26  C   UNL     1      40.188  44.323  65.996  1.00  0.00     0.012 A 
HETATM   27  C   UNL     1      41.520  43.963  66.220  1.00  0.00     0.037 A 
HETATM   28  C   UNL     1      42.499  44.216  65.260  1.00  0.00     0.068 A 
HETATM   29  C   UNL     1      42.129  44.832  64.068  1.00  0.00     0.037 A 
HETATM   30  C   UNL     1      40.797  45.210  63.849  1.00  0.00     0.012 A 
BRANCH  28  31
HETATM   31  O   UNL     1      43.759  43.815  65.610  1.00  0.00    -0.356 OA
HETATM   32  C   UNL     1      44.749  44.829  65.718  1.00  0.00     0.210 C 
ENDBRANCH  28  31
ENDBRANCH   5  25
TORSDOF 5
ENDMDL
MODEL 7
REMARK VINA RESULT:      -7.7      3.265      7.120
REMARK  5 active torsions:
REMARK  status: ('A' for Active; 'I' for Inactive)
REMARK    1  A    between atoms: C_5  and  C_6 
REMARK    2  A    between atoms: C_9  and  O_10 
REMARK    3  A    between atoms: N_14  and  C_15 
REMARK    4  A    between atoms: C_15  and  C_16 
REMARK       I    between atoms: C_16  and  N_17 
REMARK    5  A    between atoms: N_17  and  C_18 
ROOT
HETATM    1  C   UNL     1      23.419  42.481  50.217  1.00  0.00     0.156 C 
HETATM    2  N   UNL     1      24.687  43.150  50.393  1.00  0.00    -0.346 N 
HETATM    3  C   UNL     1      25.852  42.560  50.745  1.00  0.00     0.113 A 
HETATM    4  C   UNL     1      26.836  43.505  50.834  1.00  0.00     0.014 A 
HETATM    5  C   UNL     1      28.129  42.875  51.205  1.00  0.00     0.158 A 
HETATM    6  N   UNL     1      27.727  41.443  51.207  1.00  0.00    -0.325 N 
HETATM    7  C   UNL     1      26.360  41.248  50.960  1.00  0.00     0.272 A 
HETATM    8  O   UNL     1      25.771  40.185  50.853  1.00  0.00    -0.266 OA
HETATM    9  C   UNL     1      26.291  44.745  50.459  1.00  0.00     0.002 A 
HETATM   10  C   UNL     1      24.929  44.503  50.182  1.00  0.00     0.045 A 
HETATM   11  C   UNL     1      26.802  46.046  50.306  1.00  0.00     0.014 A 
HETATM   12  C   UNL     1      25.954  47.070  49.874  1.00  0.00     0.001 A 
HETATM   13  C   UNL     1      24.612  46.814  49.603  1.00  0.00     0.002 A 
HETATM   14  C   UNL     1      24.075  45.532  49.754  1.00  0.00     0.030 A 
ENDROOT
BRANCH   6  15
HETATM   15  C   UNL     1      28.682  40.419  50.833  1.00  0.00     0.229 C 
BRANCH  15  16
HETATM   16  C   UNL     1      28.520  39.875  49.421  1.00  0.00     0.235 C 
HETATM   17  N   UNL     1      28.117  38.557  49.358  1.00  0.00    -0.355 N 
HETATM   18  H   UNL     1      27.948  38.075  50.235  1.00  0.00     0.162 HD
HETATM   19  O   UNL     1      28.624  40.602  48.435  1.00  0.00    -0.272 OA
BRANCH  17  20
HETATM   20  C   UNL     1      27.576  38.013  48.133  1.00  0.00     0.084 C 
HETATM   21  C   UNL     1      28.632  37.393  47.228  1.00  0.00     0.025 C 
HETATM   22  C   UNL     1      27.803  36.519  46.299  1.00  0.00     0.002 C 
HETATM   23  C   UNL     1      26.734  35.912  47.201  1.00  0.00     0.002 C 
HETATM   24  C   UNL     1      26.596  36.861  48.392  1.00  0.00     0.025 C 
ENDBRANCH  17  20
ENDBRANCH  15  16
ENDBRANCH   6  15
BRANCH   5  25
HETATM   25  C   UNL     1      28.562  43.374  52.570  1.00  0.00    -0.030 A 
HETATM   26  C   UNL     1      27.794  44.227  53.381  1.00  0.00     0.012 A 
HETATM   27  C   UNL     1      28.263  44.659  54.625  1.00  0.00     0.037 A 
HETATM   28  C   UNL     1      29.496  44.228  55.111  1.00  0.00     0.068 A 
HETATM   29  C   UNL     1      30.256  43.354  54.339  1.00  0.00     0.037 A 
HETATM   30  C   UNL     1      29.795  42.935  53.084  1.00  0.00     0.012 A 
BRANCH  28  31
HETATM   31  O   UNL     1      29.833  44.730  56.338  1.00  0.00    -0.356 OA
HETATM   32  C   UNL     1      31.114  44.383  56.845  1.00  0.00     0.210 C 
ENDBRANCH  28  31
ENDBRANCH   5  25
TORSDOF 5
ENDMDL
MODEL 8
REMARK VINA RESULT:      -7.7      1.991      2.367
REMARK  5 active torsions:
REMARK  status: ('A' for Active; 'I' for Inactive)
REMARK    1  A    between atoms: C_5  and  C_6 
REMARK    2  A    between atoms: C_9  and  O_10 
REMARK    3  A    between atoms: N_14  and  C_15 
REMARK    4  A    between atoms: C_15  and  C_16 
REMARK       I    between atoms: C_16  and  N_17 
REMARK    5  A    between atoms: N_17  and  C_18 
ROOT
HETATM    1  C   UNL     1      27.780  40.197  50.434  1.00  0.00     0.156 C 
HETATM    2  N   UNL     1      27.391  41.438  51.060  1.00  0.00    -0.346 N 
HETATM    3  C   UNL     1      26.292  42.167  50.760  1.00  0.00     0.113 A 
HETATM    4  C   UNL     1      26.256  43.288  51.541  1.00  0.00     0.014 A 
HETATM    5  C   UNL     1      25.048  44.095  51.236  1.00  0.00     0.158 A 
HETATM    6  N   UNL     1      24.382  43.202  50.250  1.00  0.00    -0.325 N 
HETATM    7  C   UNL     1      25.133  42.059  49.939  1.00  0.00     0.272 A 
HETATM    8  O   UNL     1      24.811  41.138  49.208  1.00  0.00    -0.266 OA
HETATM    9  C   UNL     1      27.348  43.243  52.425  1.00  0.00     0.002 A 
HETATM   10  C   UNL     1      28.056  42.065  52.109  1.00  0.00     0.045 A 
HETATM   11  C   UNL     1      27.807  44.060  53.474  1.00  0.00     0.014 A 
HETATM   12  C   UNL     1      28.950  43.684  54.186  1.00  0.00     0.001 A 
HETATM   13  C   UNL     1      29.637  42.516  53.862  1.00  0.00     0.002 A 
HETATM   14  C   UNL     1      29.207  41.689  52.820  1.00  0.00     0.030 A 
ENDROOT
BRANCH   6  15
HETATM   15  C   UNL     1      22.936  43.161  50.166  1.00  0.00     0.229 C 
BRANCH  15  16
HETATM   16  C   UNL     1      22.346  43.808  48.922  1.00  0.00     0.235 C 
HETATM   17  N   UNL     1      22.886  43.361  47.734  1.00  0.00    -0.355 N 
HETATM   18  H   UNL     1      23.602  42.644  47.783  1.00  0.00     0.162 HD
HETATM   19  O   UNL     1      21.384  44.570  48.988  1.00  0.00    -0.272 OA
BRANCH  17  20
HETATM   20  C   UNL     1      22.201  43.597  46.483  1.00  0.00     0.084 C 
HETATM   21  C   UNL     1      23.118  44.101  45.377  1.00  0.00     0.025 C 
HETATM   22  C   UNL     1      22.307  43.822  44.119  1.00  0.00     0.002 C 
HETATM   23  C   UNL     1      21.655  42.469  44.380  1.00  0.00     0.002 C 
HETATM   24  C   UNL     1      21.599  42.311  45.899  1.00  0.00     0.025 C 
ENDBRANCH  17  20
ENDBRANCH  15  16
ENDBRANCH   6  15
BRANCH   5  25
HETATM   25  C   UNL     1      25.464  45.429  50.646  1.00  0.00    -0.030 A 
HETATM   26  C   UNL     1      26.692  45.659  50.002  1.00  0.00     0.012 A 
HETATM   27  C   UNL     1      27.015  46.920  49.492  1.00  0.00     0.037 A 
HETATM   28  C   UNL     1      26.113  47.979  49.579  1.00  0.00     0.068 A 
HETATM   29  C   UNL     1      24.877  47.762  50.181  1.00  0.00     0.037 A 
HETATM   30  C   UNL     1      24.558  46.502  50.709  1.00  0.00     0.012 A 
BRANCH  28  31
HETATM   31  O   UNL     1      26.559  49.155  49.044  1.00  0.00    -0.356 OA
HETATM   32  C   UNL     1      25.678  49.834  48.159  1.00  0.00     0.210 C 
ENDBRANCH  28  31
ENDBRANCH   5  25
TORSDOF 5
ENDMDL
MODEL 9
REMARK VINA RESULT:      -7.5     18.137     20.857
REMARK  5 active torsions:
REMARK  status: ('A' for Active; 'I' for Inactive)
REMARK    1  A    between atoms: C_5  and  C_6 
REMARK    2  A    between atoms: C_9  and  O_10 
REMARK    3  A    between atoms: N_14  and  C_15 
REMARK    4  A    between atoms: C_15  and  C_16 
REMARK       I    between atoms: C_16  and  N_17 
REMARK    5  A    between atoms: N_17  and  C_18 
ROOT
HETATM    1  C   UNL     1      36.035  49.778  70.644  1.00  0.00     0.156 C 
HETATM    2  N   UNL     1      36.524  49.772  69.286  1.00  0.00    -0.346 N 
HETATM    3  C   UNL     1      36.627  48.687  68.485  1.00  0.00     0.113 A 
HETATM    4  C   UNL     1      37.148  49.055  67.276  1.00  0.00     0.014 A 
HETATM    5  C   UNL     1      37.254  47.879  66.377  1.00  0.00     0.158 A 
HETATM    6  N   UNL     1      36.625  46.839  67.235  1.00  0.00    -0.325 N 
HETATM    7  C   UNL     1      36.272  47.308  68.509  1.00  0.00     0.272 A 
HETATM    8  O   UNL     1      35.698  46.693  69.391  1.00  0.00    -0.266 OA
HETATM    9  C   UNL     1      37.326  50.449  67.281  1.00  0.00     0.002 A 
HETATM   10  C   UNL     1      36.926  50.888  68.560  1.00  0.00     0.045 A 
HETATM   11  C   UNL     1      37.766  51.394  66.337  1.00  0.00     0.014 A 
HETATM   12  C   UNL     1      37.790  52.749  66.683  1.00  0.00     0.001 A 
HETATM   13  C   UNL     1      37.390  53.166  67.950  1.00  0.00     0.002 A 
HETATM   14  C   UNL     1      36.955  52.248  68.910  1.00  0.00     0.030 A 
ENDROOT
BRANCH   6  15
HETATM   15  C   UNL     1      35.878  45.753  66.632  1.00  0.00     0.229 C 
BRANCH  15  16
HETATM   16  C   UNL     1      36.698  44.514  66.303  1.00  0.00     0.235 C 
HETATM   17  N   UNL     1      36.930  44.322  64.958  1.00  0.00    -0.355 N 
HETATM   18  H   UNL     1      36.560  45.013  64.313  1.00  0.00     0.162 HD
HETATM   19  O   UNL     1      37.207  43.826  67.186  1.00  0.00    -0.272 OA
BRANCH  17  20
HETATM   20  C   UNL     1      37.972  43.423  64.514  1.00  0.00     0.084 C 
HETATM   21  C   UNL     1      37.577  42.589  63.303  1.00  0.00     0.025 C 
HETATM   22  C   UNL     1      38.922  42.117  62.771  1.00  0.00     0.002 C 
HETATM   23  C   UNL     1      39.841  43.321  62.937  1.00  0.00     0.002 C 
HETATM   24  C   UNL     1      39.226  44.174  64.046  1.00  0.00     0.025 C 
ENDBRANCH  17  20
ENDBRANCH  15  16
ENDBRANCH   6  15
BRANCH   5  25
HETATM   25  C   UNL     1      38.714  47.600  66.077  1.00  0.00    -0.030 A 
HETATM   26  C   UNL     1      39.523  46.731  66.830  1.00  0.00     0.012 A 
HETATM   27  C   UNL     1      40.868  46.531  66.505  1.00  0.00     0.037 A 
HETATM   28  C   UNL     1      41.437  47.165  65.402  1.00  0.00     0.068 A 
HETATM   29  C   UNL     1      40.643  48.001  64.622  1.00  0.00     0.037 A 
HETATM   30  C   UNL     1      39.299  48.216  64.958  1.00  0.00     0.012 A 
BRANCH  28  31
HETATM   31  O   UNL     1      42.761  46.883  65.201  1.00  0.00    -0.356 OA
HETATM   32  C   UNL     1      43.065  45.857  64.267  1.00  0.00     0.210 C 
ENDBRANCH  28  31
ENDBRANCH   5  25
TORSDOF 5
ENDMDL
MODEL 10
REMARK VINA RESULT:      -7.5      2.196      4.607
REMARK  5 active torsions:
REMARK  status: ('A' for Active; 'I' for Inactive)
REMARK    1  A    between atoms: C_5  and  C_6 
REMARK    2  A    between atoms: C_9  and  O_10 
REMARK    3  A    between atoms: N_14  and  C_15 
REMARK    4  A    between atoms: C_15  and  C_16 
REMARK       I    between atoms: C_16  and  N_17 
REMARK    5  A    between atoms: N_17  and  C_18 
ROOT
HETATM    1  C   UNL     1      27.545  42.878  53.890  1.00  0.00     0.156 C 
HETATM    2  N   UNL     1      27.235  43.049  52.490  1.00  0.00    -0.346 N 
HETATM    3  C   UNL     1      26.698  44.155  51.927  1.00  0.00     0.113 A 
HETATM    4  C   UNL     1      26.527  43.951  50.586  1.00  0.00     0.014 A 
HETATM    5  C   UNL     1      25.950  45.161  49.946  1.00  0.00     0.158 A 
HETATM    6  N   UNL     1      25.925  46.083  51.113  1.00  0.00    -0.325 N 
HETATM    7  C   UNL     1      26.345  45.481  52.308  1.00  0.00     0.272 A 
HETATM    8  O   UNL     1      26.473  46.011  53.398  1.00  0.00    -0.266 OA
HETATM    9  C   UNL     1      27.038  42.682  50.266  1.00  0.00     0.002 A 
HETATM   10  C   UNL     1      27.484  42.124  51.482  1.00  0.00     0.045 A 
HETATM   11  C   UNL     1      27.190  41.947  49.077  1.00  0.00     0.014 A 
HETATM   12  C   UNL     1      27.787  40.683  49.123  1.00  0.00     0.001 A 
HETATM   13  C   UNL     1      28.224  40.148  50.332  1.00  0.00     0.002 A 
HETATM   14  C   UNL     1      28.079  40.853  51.530  1.00  0.00     0.030 A 
ENDROOT
BRANCH   6  15
HETATM   15  C   UNL     1      26.111  47.507  50.917  1.00  0.00     0.229 C 
BRANCH  15  16
HETATM   16  C   UNL     1      25.540  48.057  49.618  1.00  0.00     0.235 C 
HETATM   17  N   UNL     1      24.181  48.291  49.644  1.00  0.00    -0.355 N 
HETATM   18  H   UNL     1      23.688  48.099  50.509  1.00  0.00     0.162 HD
HETATM   19  O   UNL     1      26.267  48.376  48.680  1.00  0.00    -0.272 OA
BRANCH  17  20
HETATM   20  C   UNL     1      23.563  49.134  48.645  1.00  0.00     0.084 C 
HETATM   21  C   UNL     1      22.167  48.675  48.246  1.00  0.00     0.025 C 
HETATM   22  C   UNL     1      21.582  49.919  47.592  1.00  0.00     0.002 C 
HETATM   23  C   UNL     1      22.080  51.072  48.456  1.00  0.00     0.002 C 
HETATM   24  C   UNL     1      23.345  50.567  49.149  1.00  0.00     0.025 C 
ENDBRANCH  17  20
ENDBRANCH  15  16
ENDBRANCH   6  15
BRANCH   5  25
HETATM   25  C   UNL     1      24.568  44.841  49.410  1.00  0.00    -0.030 A 
HETATM   26  C   UNL     1      24.169  45.047  48.078  1.00  0.00     0.012 A 
HETATM   27  C   UNL     1      22.872  44.742  47.656  1.00  0.00     0.037 A 
HETATM   28  C   UNL     1      21.945  44.192  48.539  1.00  0.00     0.068 A 
HETATM   29  C   UNL     1      22.331  43.946  49.854  1.00  0.00     0.037 A 
HETATM   30  C   UNL     1      23.626  44.269  50.283  1.00  0.00     0.012 A 
BRANCH  28  31
HETATM   31  O   UNL     1      20.714  43.946  47.996  1.00  0.00    -0.356 OA
HETATM   32  C   UNL     1      20.637  43.889  46.578  1.00  0.00     0.210 C 
ENDBRANCH  28  31
ENDBRANCH   5  25
TORSDOF 5
ENDMDL
