MODEL 1
REMARK VINA RESULT:      -8.6      0.000      0.000
REMARK  9 active torsions:
REMARK  status: ('A' for Active; 'I' for Inactive)
REMARK    1  A    between atoms: C_2  and  C_3 
REMARK    2  A    between atoms: C_3  and  O_4 
REMARK    3  A    between atoms: O_4  and  C_5 
REMARK    4  A    between atoms: C_8  and  C_9 
REMARK    5  A    between atoms: N_11  and  C_12 
REMARK    6  A    between atoms: C_19  and  C_20 
REMARK    7  A    between atoms: C_20  and  S_21 
REMARK    8  A    between atoms: S_21  and  C_22 
REMARK    9  A    between atoms: C_22  and  N_23 
ROOT
HETATM    1  C   UNL     1      25.561  46.187  51.824  1.00  0.00     0.096 C 
HETATM    2  N   UNL     1      25.174  47.392  51.389  1.00  0.00    -0.167 NA
HETATM    3  N   UNL     1      24.534  47.188  50.216  1.00  0.00    -0.244 N 
HETATM    4  C   UNL     1      24.343  45.842  50.001  1.00  0.00     0.129 C 
HETATM    5  C   UNL     1      24.964  45.159  51.030  1.00  0.00     0.001 C 
ENDROOT
BRANCH   1   6
HETATM    6  C   UNL     1      26.350  46.071  53.054  1.00  0.00    -0.005 A 
HETATM    7  C   UNL     1      26.581  44.809  53.621  1.00  0.00     0.016 A 
HETATM    8  C   UNL     1      27.393  44.664  54.752  1.00  0.00     0.037 A 
HETATM    9  C   UNL     1      27.988  45.781  55.331  1.00  0.00     0.068 A 
HETATM   10  C   UNL     1      27.721  47.046  54.803  1.00  0.00     0.037 A 
HETATM   11  C   UNL     1      26.901  47.195  53.678  1.00  0.00     0.016 A 
BRANCH   9  12
HETATM   12  O   UNL     1      28.832  45.780  56.404  1.00  0.00    -0.351 OA
BRANCH  12  13
HETATM   13  C   UNL     1      30.215  45.517  56.151  1.00  0.00     0.179 C 
BRANCH  13  14
HETATM   14  C   UNL     1      30.476  44.015  56.338  1.00  0.00     0.002 C 
HETATM   15  C   UNL     1      31.662  43.775  57.276  1.00  0.00     0.011 C 
HETATM   16  C   UNL     1      30.727  43.347  54.987  1.00  0.00     0.011 C 
ENDBRANCH  13  14
ENDBRANCH  12  13
ENDBRANCH   9  12
ENDBRANCH   1   6
BRANCH   5  17
HETATM   17  C   UNL     1      24.952  43.682  51.229  1.00  0.00     0.125 C 
BRANCH  17  18
HETATM   18  S   UNL     1      26.133  42.807  50.158  1.00  0.00    -0.090 SA
BRANCH  18  19
HETATM   19  C   UNL     1      26.966  41.816  51.281  1.00  0.00     0.131 C 
HETATM   20  N   UNL     1      26.395  40.704  51.664  1.00  0.00    -0.380 N 
HETATM   21  H   UNL     1      25.489  40.469  51.272  1.00  0.00     0.158 HD
HETATM   22  H   UNL     1      26.833  40.051  52.296  1.00  0.00     0.158 HD
BRANCH  19  23
HETATM   23  N   UNL     1      28.160  42.158  51.690  1.00  0.00    -0.380 N 
HETATM   24  H   UNL     1      28.265  43.004  52.242  1.00  0.00     0.158 HD
HETATM   25  H   UNL     1      28.994  41.624  51.489  1.00  0.00     0.158 HD
ENDBRANCH  19  23
ENDBRANCH  18  19
ENDBRANCH  17  18
ENDBRANCH   5  17
BRANCH   3  26
HETATM   26  C   UNL     1      24.072  48.281  49.433  1.00  0.00     0.058 A 
HETATM   27  C   UNL     1      22.693  48.445  49.227  1.00  0.00     0.031 A 
HETATM   28  C   UNL     1      22.218  49.503  48.449  1.00  0.00     0.002 A 
HETATM   29  C   UNL     1      23.111  50.403  47.875  1.00  0.00     0.000 A 
HETATM   30  C   UNL     1      24.482  50.252  48.081  1.00  0.00     0.002 A 
HETATM   31  C   UNL     1      24.966  49.196  48.859  1.00  0.00     0.031 A 
ENDBRANCH   3  26
TORSDOF 9
ENDMDL
MODEL 2
REMARK VINA RESULT:      -8.4      2.624      8.028
REMARK  9 active torsions:
REMARK  status: ('A' for Active; 'I' for Inactive)
REMARK    1  A    between atoms: C_2  and  C_3 
REMARK    2  A    between atoms: C_3  and  O_4 
REMARK    3  A    between atoms: O_4  and  C_5 
REMARK    4  A    between atoms: C_8  and  C_9 
REMARK    5  A    between atoms: N_11  and  C_12 
REMARK    6  A    between atoms: C_19  and  C_20 
REMARK    7  A    between atoms: C_20  and  S_21 
REMARK    8  A    between atoms: S_21  and  C_22 
REMARK    9  A    between atoms: C_22  and  N_23 
ROOT
HETATM    1  C   UNL     1      26.952  44.521  51.820  1.00  0.00     0.096 C 
HETATM    2  N   UNL     1      27.629  45.020  52.862  1.00  0.00    -0.167 NA
HETATM    3  N   UNL     1      28.428  44.026  53.310  1.00  0.00    -0.244 N 
HETATM    4  C   UNL     1      28.406  42.961  52.438  1.00  0.00     0.129 C 
HETATM    5  C   UNL     1      27.489  43.251  51.444  1.00  0.00     0.001 C 
ENDROOT
BRANCH   1   6
HETATM    6  C   UNL     1      25.940  45.339  51.145  1.00  0.00    -0.005 A 
HETATM    7  C   UNL     1      26.144  46.719  50.994  1.00  0.00     0.016 A 
HETATM    8  C   UNL     1      25.229  47.509  50.287  1.00  0.00     0.037 A 
HETATM    9  C   UNL     1      24.097  46.929  49.721  1.00  0.00     0.068 A 
HETATM   10  C   UNL     1      23.863  45.566  49.912  1.00  0.00     0.037 A 
HETATM   11  C   UNL     1      24.771  44.775  50.627  1.00  0.00     0.016 A 
BRANCH   9  12
HETATM   12  O   UNL     1      23.151  47.569  48.974  1.00  0.00    -0.351 OA
BRANCH  12  13
HETATM   13  C   UNL     1      22.766  48.883  49.387  1.00  0.00     0.179 C 
BRANCH  13  14
HETATM   14  C   UNL     1      22.843  49.826  48.177  1.00  0.00     0.002 C 
HETATM   15  C   UNL     1      24.287  50.257  47.908  1.00  0.00     0.011 C 
HETATM   16  C   UNL     1      21.957  51.050  48.400  1.00  0.00     0.011 C 
ENDBRANCH  13  14
ENDBRANCH  12  13
ENDBRANCH   9  12
ENDBRANCH   1   6
BRANCH   5  17
HETATM   17  C   UNL     1      27.193  42.401  50.256  1.00  0.00     0.125 C 
BRANCH  17  18
HETATM   18  S   UNL     1      26.944  40.648  50.676  1.00  0.00    -0.090 SA
BRANCH  18  19
HETATM   19  C   UNL     1      28.492  39.983  50.366  1.00  0.00     0.131 C 
HETATM   20  N   UNL     1      29.128  39.414  51.358  1.00  0.00    -0.380 N 
HETATM   21  H   UNL     1      28.675  39.381  52.264  1.00  0.00     0.158 HD
HETATM   22  H   UNL     1      30.029  38.971  51.250  1.00  0.00     0.158 HD
BRANCH  19  23
HETATM   23  N   UNL     1      28.982  40.011  49.154  1.00  0.00    -0.380 N 
HETATM   24  H   UNL     1      28.436  40.446  48.416  1.00  0.00     0.158 HD
HETATM   25  H   UNL     1      29.880  39.621  48.906  1.00  0.00     0.158 HD
ENDBRANCH  19  23
ENDBRANCH  18  19
ENDBRANCH  17  18
ENDBRANCH   5  17
BRANCH   3  26
HETATM   26  C   UNL     1      29.220  44.193  54.479  1.00  0.00     0.058 A 
HETATM   27  C   UNL     1      30.170  43.214  54.812  1.00  0.00     0.031 A 
HETATM   28  C   UNL     1      30.948  43.350  55.963  1.00  0.00     0.002 A 
HETATM   29  C   UNL     1      30.788  44.461  56.786  1.00  0.00     0.000 A 
HETATM   30  C   UNL     1      29.852  45.442  56.460  1.00  0.00     0.002 A 
HETATM   31  C   UNL     1      29.069  45.314  55.309  1.00  0.00     0.031 A 
ENDBRANCH   3  26
TORSDOF 9
ENDMDL
MODEL 3
REMARK VINA RESULT:      -8.2      1.341      1.781
REMARK  9 active torsions:
REMARK  status: ('A' for Active; 'I' for Inactive)
REMARK    1  A    between atoms: C_2  and  C_3 
REMARK    2  A    between atoms: C_3  and  O_4 
REMARK    3  A    between atoms: O_4  and  C_5 
REMARK    4  A    between atoms: C_8  and  C_9 
REMARK    5  A    between atoms: N_11  and  C_12 
REMARK    6  A    between atoms: C_19  and  C_20 
REMARK    7  A    between atoms: C_20  and  S_21 
REMARK    8  A    between atoms: S_21  and  C_22 
REMARK    9  A    between atoms: C_22  and  N_23 
ROOT
HETATM    1  C   UNL     1      25.532  45.118  51.214  1.00  0.00     0.096 C 
HETATM    2  N   UNL     1      25.371  46.423  50.966  1.00  0.00    -0.167 NA
HETATM    3  N   UNL     1      24.482  46.513  49.953  1.00  0.00    -0.244 N 
HETATM    4  C   UNL     1      23.930  45.280  49.687  1.00  0.00     0.129 C 
HETATM    5  C   UNL     1      24.557  44.355  50.500  1.00  0.00     0.001 C 
ENDROOT
BRANCH   1   6
HETATM    6  C   UNL     1      26.496  44.678  52.227  1.00  0.00    -0.005 A 
HETATM    7  C   UNL     1      26.188  44.809  53.589  1.00  0.00     0.016 A 
HETATM    8  C   UNL     1      27.058  44.328  54.575  1.00  0.00     0.037 A 
HETATM    9  C   UNL     1      28.250  43.708  54.211  1.00  0.00     0.068 A 
HETATM   10  C   UNL     1      28.586  43.620  52.858  1.00  0.00     0.037 A 
HETATM   11  C   UNL     1      27.723  44.109  51.871  1.00  0.00     0.016 A 
BRANCH   9  12
HETATM   12  O   UNL     1      29.165  43.157  55.061  1.00  0.00    -0.351 OA
BRANCH  12  13
HETATM   13  C   UNL     1      30.548  43.355  54.756  1.00  0.00     0.179 C 
BRANCH  13  14
HETATM   14  C   UNL     1      31.211  44.101  55.923  1.00  0.00     0.002 C 
HETATM   15  C   UNL     1      31.382  43.184  57.137  1.00  0.00     0.011 C 
HETATM   16  C   UNL     1      30.391  45.333  56.301  1.00  0.00     0.011 C 
ENDBRANCH  13  14
ENDBRANCH  12  13
ENDBRANCH   9  12
ENDBRANCH   1   6
BRANCH   5  17
HETATM   17  C   UNL     1      24.225  42.905  50.587  1.00  0.00     0.125 C 
BRANCH  17  18
HETATM   18  S   UNL     1      25.054  41.904  49.314  1.00  0.00    -0.090 SA
BRANCH  18  19
HETATM   19  C   UNL     1      25.830  40.701  50.256  1.00  0.00     0.131 C 
HETATM   20  N   UNL     1      26.057  39.537  49.704  1.00  0.00    -0.380 N 
HETATM   21  H   UNL     1      25.774  39.399  48.739  1.00  0.00     0.158 HD
HETATM   22  H   UNL     1      26.537  38.787  50.180  1.00  0.00     0.158 HD
BRANCH  19  23
HETATM   23  N   UNL     1      26.220  40.978  51.473  1.00  0.00    -0.380 N 
HETATM   24  H   UNL     1      25.575  40.821  52.241  1.00  0.00     0.158 HD
HETATM   25  H   UNL     1      27.136  41.341  51.697  1.00  0.00     0.158 HD
ENDBRANCH  19  23
ENDBRANCH  18  19
ENDBRANCH  17  18
ENDBRANCH   5  17
BRANCH   3  26
HETATM   26  C   UNL     1      24.154  47.770  49.374  1.00  0.00     0.058 A 
HETATM   27  C   UNL     1      22.817  48.053  49.055  1.00  0.00     0.031 A 
HETATM   28  C   UNL     1      22.474  49.275  48.473  1.00  0.00     0.002 A 
HETATM   29  C   UNL     1      23.460  50.221  48.207  1.00  0.00     0.000 A 
HETATM   30  C   UNL     1      24.790  49.952  48.527  1.00  0.00     0.002 A 
HETATM   31  C   UNL     1      25.141  48.731  49.111  1.00  0.00     0.031 A 
ENDBRANCH   3  26
TORSDOF 9
ENDMDL
MODEL 4
REMARK VINA RESULT:      -8.2      6.239     11.067
REMARK  9 active torsions:
REMARK  status: ('A' for Active; 'I' for Inactive)
REMARK    1  A    between atoms: C_2  and  C_3 
REMARK    2  A    between atoms: C_3  and  O_4 
REMARK    3  A    between atoms: O_4  and  C_5 
REMARK    4  A    between atoms: C_8  and  C_9 
REMARK    5  A    between atoms: N_11  and  C_12 
REMARK    6  A    between atoms: C_19  and  C_20 
REMARK    7  A    between atoms: C_20  and  S_21 
REMARK    8  A    between atoms: S_21  and  C_22 
REMARK    9  A    between atoms: C_22  and  N_23 
ROOT
HETATM    1  C   UNL     1      21.210  49.445  49.103  1.00  0.00     0.096 C 
HETATM    2  N   UNL     1      22.478  49.868  49.039  1.00  0.00    -0.167 NA
HETATM    3  N   UNL     1      23.250  48.760  49.000  1.00  0.00    -0.244 N 
HETATM    4  C   UNL     1      22.471  47.637  48.842  1.00  0.00     0.129 C 
HETATM    5  C   UNL     1      21.148  48.035  48.872  1.00  0.00     0.001 C 
ENDROOT
BRANCH   1   6
HETATM    6  C   UNL     1      20.119  50.415  49.227  1.00  0.00    -0.005 A 
HETATM    7  C   UNL     1      20.128  51.581  48.446  1.00  0.00     0.016 A 
HETATM    8  C   UNL     1      19.061  52.486  48.489  1.00  0.00     0.037 A 
HETATM    9  C   UNL     1      17.968  52.237  49.315  1.00  0.00     0.068 A 
HETATM   10  C   UNL     1      17.977  51.105  50.133  1.00  0.00     0.037 A 
HETATM   11  C   UNL     1      19.047  50.204  50.099  1.00  0.00     0.016 A 
BRANCH   9  12
HETATM   12  O   UNL     1      16.846  53.008  49.423  1.00  0.00    -0.351 OA
BRANCH  12  13
HETATM   13  C   UNL     1      15.588  52.375  49.179  1.00  0.00     0.179 C 
BRANCH  13  14
HETATM   14  C   UNL     1      14.469  53.260  49.749  1.00  0.00     0.002 C 
HETATM   15  C   UNL     1      14.043  54.327  48.738  1.00  0.00     0.011 C 
HETATM   16  C   UNL     1      14.922  53.916  51.052  1.00  0.00     0.011 C 
ENDBRANCH  13  14
ENDBRANCH  12  13
ENDBRANCH   9  12
ENDBRANCH   1   6
BRANCH   5  17
HETATM   17  C   UNL     1      19.965  47.150  48.672  1.00  0.00     0.125 C 
BRANCH  17  18
HETATM   18  S   UNL     1      18.890  47.691  47.307  1.00  0.00    -0.090 SA
BRANCH  18  19
HETATM   19  C   UNL     1      17.330  47.329  47.918  1.00  0.00     0.131 C 
HETATM   20  N   UNL     1      16.359  47.153  47.060  1.00  0.00    -0.380 N 
HETATM   21  H   UNL     1      16.571  47.228  46.071  1.00  0.00     0.158 HD
HETATM   22  H   UNL     1      15.420  46.906  47.337  1.00  0.00     0.158 HD
BRANCH  19  23
HETATM   23  N   UNL     1      17.152  47.187  49.205  1.00  0.00    -0.380 N 
HETATM   24  H   UNL     1      17.164  48.014  49.795  1.00  0.00     0.158 HD
HETATM   25  H   UNL     1      16.999  46.294  49.653  1.00  0.00     0.158 HD
ENDBRANCH  19  23
ENDBRANCH  18  19
ENDBRANCH  17  18
ENDBRANCH   5  17
BRANCH   3  26
HETATM   26  C   UNL     1      24.669  48.854  49.024  1.00  0.00     0.058 A 
HETATM   27  C   UNL     1      25.302  49.883  48.308  1.00  0.00     0.031 A 
HETATM   28  C   UNL     1      26.695  49.985  48.305  1.00  0.00     0.002 A 
HETATM   29  C   UNL     1      27.463  49.067  49.016  1.00  0.00     0.000 A 
HETATM   30  C   UNL     1      26.842  48.047  49.736  1.00  0.00     0.002 A 
HETATM   31  C   UNL     1      25.448  47.938  49.744  1.00  0.00     0.031 A 
ENDBRANCH   3  26
TORSDOF 9
ENDMDL
MODEL 5
REMARK VINA RESULT:      -8.0      2.786      8.104
REMARK  9 active torsions:
REMARK  status: ('A' for Active; 'I' for Inactive)
REMARK    1  A    between atoms: C_2  and  C_3 
REMARK    2  A    between atoms: C_3  and  O_4 
REMARK    3  A    between atoms: O_4  and  C_5 
REMARK    4  A    between atoms: C_8  and  C_9 
REMARK    5  A    between atoms: N_11  and  C_12 
REMARK    6  A    between atoms: C_19  and  C_20 
REMARK    7  A    between atoms: C_20  and  S_21 
REMARK    8  A    between atoms: S_21  and  C_22 
REMARK    9  A    between atoms: C_22  and  N_23 
ROOT
HETATM    1  C   UNL     1      26.979  43.576  52.055  1.00  0.00     0.096 C 
HETATM    2  N   UNL     1      27.751  44.265  52.903  1.00  0.00    -0.167 NA
HETATM    3  N   UNL     1      28.450  43.352  53.613  1.00  0.00    -0.244 N 
HETATM    4  C   UNL     1      28.270  42.093  53.085  1.00  0.00     0.129 C 
HETATM    5  C   UNL     1      27.351  42.195  52.058  1.00  0.00     0.001 C 
ENDROOT
BRANCH   1   6
HETATM    6  C   UNL     1      26.039  44.283  51.181  1.00  0.00    -0.005 A 
HETATM    7  C   UNL     1      24.672  43.971  51.226  1.00  0.00     0.016 A 
HETATM    8  C   UNL     1      23.744  44.684  50.457  1.00  0.00     0.037 A 
HETATM    9  C   UNL     1      24.171  45.720  49.632  1.00  0.00     0.068 A 
HETATM   10  C   UNL     1      25.536  46.002  49.544  1.00  0.00     0.037 A 
HETATM   11  C   UNL     1      26.467  45.284  50.304  1.00  0.00     0.016 A 
BRANCH   9  12
HETATM   12  O   UNL     1      23.375  46.522  48.866  1.00  0.00    -0.351 OA
BRANCH  12  13
HETATM   13  C   UNL     1      23.516  47.935  49.026  1.00  0.00     0.179 C 
BRANCH  13  14
HETATM   14  C   UNL     1      22.451  48.640  48.173  1.00  0.00     0.002 C 
HETATM   15  C   UNL     1      22.829  50.102  47.918  1.00  0.00     0.011 C 
HETATM   16  C   UNL     1      21.085  48.556  48.852  1.00  0.00     0.011 C 
ENDBRANCH  13  14
ENDBRANCH  12  13
ENDBRANCH   9  12
ENDBRANCH   1   6
BRANCH   5  17
HETATM   17  C   UNL     1      26.910  41.084  51.168  1.00  0.00     0.125 C 
BRANCH  17  18
HETATM   18  S   UNL     1      28.059  40.771  49.793  1.00  0.00    -0.090 SA
BRANCH  18  19
HETATM   19  C   UNL     1      28.696  39.234  50.203  1.00  0.00     0.131 C 
HETATM   20  N   UNL     1      28.564  38.261  49.339  1.00  0.00    -0.380 N 
HETATM   21  H   UNL     1      28.100  38.460  48.459  1.00  0.00     0.158 HD
HETATM   22  H   UNL     1      28.939  37.336  49.491  1.00  0.00     0.158 HD
BRANCH  19  23
HETATM   23  N   UNL     1      29.337  39.075  51.332  1.00  0.00    -0.380 N 
HETATM   24  H   UNL     1      28.955  38.440  52.026  1.00  0.00     0.158 HD
HETATM   25  H   UNL     1      30.200  39.551  51.556  1.00  0.00     0.158 HD
ENDBRANCH  19  23
ENDBRANCH  18  19
ENDBRANCH  17  18
ENDBRANCH   5  17
BRANCH   3  26
HETATM   26  C   UNL     1      29.306  43.748  54.678  1.00  0.00     0.058 A 
HETATM   27  C   UNL     1      29.126  45.008  55.271  1.00  0.00     0.031 A 
HETATM   28  C   UNL     1      29.963  45.424  56.308  1.00  0.00     0.002 A 
HETATM   29  C   UNL     1      30.981  44.589  56.761  1.00  0.00     0.000 A 
HETATM   30  C   UNL     1      31.161  43.333  56.182  1.00  0.00     0.002 A 
HETATM   31  C   UNL     1      30.327  42.909  55.144  1.00  0.00     0.031 A 
ENDBRANCH   3  26
TORSDOF 9
ENDMDL
MODEL 6
REMARK VINA RESULT:      -7.8      3.136      8.266
REMARK  9 active torsions:
REMARK  status: ('A' for Active; 'I' for Inactive)
REMARK    1  A    between atoms: C_2  and  C_3 
REMARK    2  A    between atoms: C_3  and  O_4 
REMARK    3  A    between atoms: O_4  and  C_5 
REMARK    4  A    between atoms: C_8  and  C_9 
REMARK    5  A    between atoms: N_11  and  C_12 
REMARK    6  A    between atoms: C_19  and  C_20 
REMARK    7  A    between atoms: C_20  and  S_21 
REMARK    8  A    between atoms: S_21  and  C_22 
REMARK    9  A    between atoms: C_22  and  N_23 
ROOT
HETATM    1  C   UNL     1      27.766  43.681  53.083  1.00  0.00     0.096 C 
HETATM    2  N   UNL     1      28.723  43.419  53.981  1.00  0.00    -0.167 NA
HETATM    3  N   UNL     1      28.720  44.450  54.855  1.00  0.00    -0.244 N 
HETATM    4  C   UNL     1      27.635  45.267  54.630  1.00  0.00     0.129 C 
HETATM    5  C   UNL     1      26.974  44.790  53.514  1.00  0.00     0.001 C 
ENDROOT
BRANCH   1   6
HETATM    6  C   UNL     1      27.559  42.776  51.949  1.00  0.00    -0.005 A 
HETATM    7  C   UNL     1      27.212  43.296  50.693  1.00  0.00     0.016 A 
HETATM    8  C   UNL     1      27.084  42.461  49.577  1.00  0.00     0.037 A 
HETATM    9  C   UNL     1      27.301  41.091  49.702  1.00  0.00     0.068 A 
HETATM   10  C   UNL     1      27.596  40.561  50.959  1.00  0.00     0.037 A 
HETATM   11  C   UNL     1      27.716  41.392  52.079  1.00  0.00     0.016 A 
BRANCH   9  12
HETATM   12  O   UNL     1      27.252  40.172  48.694  1.00  0.00    -0.351 OA
BRANCH  12  13
HETATM   13  C   UNL     1      28.474  39.882  48.009  1.00  0.00     0.179 C 
BRANCH  13  14
HETATM   14  C   UNL     1      28.790  38.388  48.171  1.00  0.00     0.002 C 
HETATM   15  C   UNL     1      27.547  37.606  48.601  1.00  0.00     0.011 C 
HETATM   16  C   UNL     1      29.917  38.190  49.183  1.00  0.00     0.011 C 
ENDBRANCH  13  14
ENDBRANCH  12  13
ENDBRANCH   9  12
ENDBRANCH   1   6
BRANCH   5  17
HETATM   17  C   UNL     1      25.706  45.336  52.951  1.00  0.00     0.125 C 
BRANCH  17  18
HETATM   18  S   UNL     1      25.816  47.101  52.525  1.00  0.00    -0.090 SA
BRANCH  18  19
HETATM   19  C   UNL     1      25.366  47.098  50.871  1.00  0.00     0.131 C 
HETATM   20  N   UNL     1      24.273  46.465  50.532  1.00  0.00    -0.380 N 
HETATM   21  H   UNL     1      23.732  46.013  51.261  1.00  0.00     0.158 HD
HETATM   22  H   UNL     1      23.923  46.443  49.585  1.00  0.00     0.158 HD
BRANCH  19  23
HETATM   23  N   UNL     1      26.083  47.758  50.000  1.00  0.00    -0.380 N 
HETATM   24  H   UNL     1      27.069  47.909  50.192  1.00  0.00     0.158 HD
HETATM   25  H   UNL     1      25.711  48.131  49.138  1.00  0.00     0.158 HD
ENDBRANCH  19  23
ENDBRANCH  18  19
ENDBRANCH  17  18
ENDBRANCH   5  17
BRANCH   3  26
HETATM   26  C   UNL     1      29.688  44.535  55.893  1.00  0.00     0.058 A 
HETATM   27  C   UNL     1      30.704  43.568  55.966  1.00  0.00     0.031 A 
HETATM   28  C   UNL     1      31.657  43.623  56.986  1.00  0.00     0.002 A 
HETATM   29  C   UNL     1      31.605  44.640  57.935  1.00  0.00     0.000 A 
HETATM   30  C   UNL     1      30.603  45.609  57.865  1.00  0.00     0.002 A 
HETATM   31  C   UNL     1      29.646  45.561  56.848  1.00  0.00     0.031 A 
ENDBRANCH   3  26
TORSDOF 9
ENDMDL
MODEL 7
REMARK VINA RESULT:      -7.7      3.399      8.290
REMARK  9 active torsions:
REMARK  status: ('A' for Active; 'I' for Inactive)
REMARK    1  A    between atoms: C_2  and  C_3 
REMARK    2  A    between atoms: C_3  and  O_4 
REMARK    3  A    between atoms: O_4  and  C_5 
REMARK    4  A    between atoms: C_8  and  C_9 
REMARK    5  A    between atoms: N_11  and  C_12 
REMARK    6  A    between atoms: C_19  and  C_20 
REMARK    7  A    between atoms: C_20  and  S_21 
REMARK    8  A    between atoms: S_21  and  C_22 
REMARK    9  A    between atoms: C_22  and  N_23 
ROOT
HETATM    1  C   UNL     1      27.083  43.137  51.853  1.00  0.00     0.096 C 
HETATM    2  N   UNL     1      28.026  42.922  52.779  1.00  0.00    -0.167 NA
HETATM    3  N   UNL     1      28.067  44.032  53.548  1.00  0.00    -0.244 N 
HETATM    4  C   UNL     1      27.021  44.871  53.237  1.00  0.00     0.129 C 
HETATM    5  C   UNL     1      26.342  44.318  52.168  1.00  0.00     0.001 C 
ENDROOT
BRANCH   1   6
HETATM    6  C   UNL     1      26.838  42.135  50.811  1.00  0.00    -0.005 A 
HETATM    7  C   UNL     1      27.006  42.476  49.461  1.00  0.00     0.016 A 
HETATM    8  C   UNL     1      26.852  41.519  48.451  1.00  0.00     0.037 A 
HETATM    9  C   UNL     1      26.529  40.205  48.779  1.00  0.00     0.068 A 
HETATM   10  C   UNL     1      26.311  39.871  50.117  1.00  0.00     0.037 A 
HETATM   11  C   UNL     1      26.454  40.829  51.128  1.00  0.00     0.016 A 
BRANCH   9  12
HETATM   12  O   UNL     1      26.392  39.166  47.904  1.00  0.00    -0.351 OA
BRANCH  12  13
HETATM   13  C   UNL     1      26.801  37.871  48.352  1.00  0.00     0.179 C 
BRANCH  13  14
HETATM   14  C   UNL     1      28.153  37.529  47.709  1.00  0.00     0.002 C 
HETATM   15  C   UNL     1      29.315  38.044  48.563  1.00  0.00     0.011 C 
HETATM   16  C   UNL     1      28.234  38.111  46.299  1.00  0.00     0.011 C 
ENDBRANCH  13  14
ENDBRANCH  12  13
ENDBRANCH   9  12
ENDBRANCH   1   6
BRANCH   5  17
HETATM   17  C   UNL     1      25.102  44.863  51.546  1.00  0.00     0.125 C 
BRANCH  17  18
HETATM   18  S   UNL     1      25.433  45.945  50.122  1.00  0.00    -0.090 SA
BRANCH  18  19
HETATM   19  C   UNL     1      23.876  46.573  49.781  1.00  0.00     0.131 C 
HETATM   20  N   UNL     1      23.655  47.839  50.023  1.00  0.00    -0.380 N 
HETATM   21  H   UNL     1      24.417  48.398  50.392  1.00  0.00     0.158 HD
HETATM   22  H   UNL     1      22.776  48.292  49.821  1.00  0.00     0.158 HD
BRANCH  19  23
HETATM   23  N   UNL     1      22.965  45.801  49.247  1.00  0.00    -0.380 N 
HETATM   24  H   UNL     1      22.023  46.164  49.132  1.00  0.00     0.158 HD
HETATM   25  H   UNL     1      23.145  44.857  48.936  1.00  0.00     0.158 HD
ENDBRANCH  19  23
ENDBRANCH  18  19
ENDBRANCH  17  18
ENDBRANCH   5  17
BRANCH   3  26
HETATM   26  C   UNL     1      29.036  44.174  54.580  1.00  0.00     0.058 A 
HETATM   27  C   UNL     1      29.056  45.350  55.346  1.00  0.00     0.031 A 
HETATM   28  C   UNL     1      30.008  45.517  56.354  1.00  0.00     0.002 A 
HETATM   29  C   UNL     1      30.941  44.516  56.606  1.00  0.00     0.000 A 
HETATM   30  C   UNL     1      30.923  43.341  55.854  1.00  0.00     0.002 A 
HETATM   31  C   UNL     1      29.973  43.165  54.844  1.00  0.00     0.031 A 
ENDBRANCH   3  26
TORSDOF 9
ENDMDL
MODEL 8
REMARK VINA RESULT:      -7.3      1.887      2.787
REMARK  9 active torsions:
REMARK  status: ('A' for Active; 'I' for Inactive)
REMARK    1  A    between atoms: C_2  and  C_3 
REMARK    2  A    between atoms: C_3  and  O_4 
REMARK    3  A    between atoms: O_4  and  C_5 
REMARK    4  A    between atoms: C_8  and  C_9 
REMARK    5  A    between atoms: N_11  and  C_12 
REMARK    6  A    between atoms: C_19  and  C_20 
REMARK    7  A    between atoms: C_20  and  S_21 
REMARK    8  A    between atoms: S_21  and  C_22 
REMARK    9  A    between atoms: C_22  and  N_23 
ROOT
HETATM    1  C   UNL     1      25.655  45.189  51.065  1.00  0.00     0.096 C 
HETATM    2  N   UNL     1      24.444  45.679  50.776  1.00  0.00    -0.167 NA
HETATM    3  N   UNL     1      24.088  45.142  49.587  1.00  0.00    -0.244 N 
HETATM    4  C   UNL     1      24.983  44.164  49.215  1.00  0.00     0.129 C 
HETATM    5  C   UNL     1      25.995  44.139  50.156  1.00  0.00     0.001 C 
ENDROOT
BRANCH   1   6
HETATM    6  C   UNL     1      26.356  45.636  52.273  1.00  0.00    -0.005 A 
HETATM    7  C   UNL     1      26.176  46.946  52.741  1.00  0.00     0.016 A 
HETATM    8  C   UNL     1      26.774  47.374  53.933  1.00  0.00     0.037 A 
HETATM    9  C   UNL     1      27.559  46.495  54.674  1.00  0.00     0.068 A 
HETATM   10  C   UNL     1      27.784  45.206  54.187  1.00  0.00     0.037 A 
HETATM   11  C   UNL     1      27.196  44.779  52.991  1.00  0.00     0.016 A 
BRANCH   9  12
HETATM   12  O   UNL     1      28.163  46.765  55.869  1.00  0.00    -0.351 OA
BRANCH  12  13
HETATM   13  C   UNL     1      28.640  45.652  56.629  1.00  0.00     0.179 C 
BRANCH  13  14
HETATM   14  C   UNL     1      30.165  45.766  56.769  1.00  0.00     0.002 C 
HETATM   15  C   UNL     1      30.864  44.532  56.193  1.00  0.00     0.011 C 
HETATM   16  C   UNL     1      30.552  45.957  58.235  1.00  0.00     0.011 C 
ENDBRANCH  13  14
ENDBRANCH  12  13
ENDBRANCH   9  12
ENDBRANCH   1   6
BRANCH   5  17
HETATM   17  C   UNL     1      27.141  43.187  50.180  1.00  0.00     0.125 C 
BRANCH  17  18
HETATM   18  S   UNL     1      26.726  41.590  50.948  1.00  0.00    -0.090 SA
BRANCH  18  19
HETATM   19  C   UNL     1      28.192  40.720  50.774  1.00  0.00     0.131 C 
HETATM   20  N   UNL     1      28.806  40.323  51.858  1.00  0.00    -0.380 N 
HETATM   21  H   UNL     1      28.384  40.537  52.755  1.00  0.00     0.158 HD
HETATM   22  H   UNL     1      29.656  39.779  51.841  1.00  0.00     0.158 HD
BRANCH  19  23
HETATM   23  N   UNL     1      28.639  40.429  49.580  1.00  0.00    -0.380 N 
HETATM   24  H   UNL     1      28.975  39.487  49.400  1.00  0.00     0.158 HD
HETATM   25  H   UNL     1      28.669  41.090  48.817  1.00  0.00     0.158 HD
ENDBRANCH  19  23
ENDBRANCH  18  19
ENDBRANCH  17  18
ENDBRANCH   5  17
BRANCH   3  26
HETATM   26  C   UNL     1      22.884  45.530  48.939  1.00  0.00     0.058 A 
HETATM   27  C   UNL     1      22.749  46.846  48.469  1.00  0.00     0.031 A 
HETATM   28  C   UNL     1      21.569  47.253  47.842  1.00  0.00     0.002 A 
HETATM   29  C   UNL     1      20.520  46.353  47.678  1.00  0.00     0.000 A 
HETATM   30  C   UNL     1      20.649  45.041  48.135  1.00  0.00     0.002 A 
HETATM   31  C   UNL     1      21.826  44.626  48.763  1.00  0.00     0.031 A 
ENDBRANCH   3  26
TORSDOF 9
ENDMDL
MODEL 9
REMARK VINA RESULT:      -7.3      3.562      8.492
REMARK  9 active torsions:
REMARK  status: ('A' for Active; 'I' for Inactive)
REMARK    1  A    between atoms: C_2  and  C_3 
REMARK    2  A    between atoms: C_3  and  O_4 
REMARK    3  A    between atoms: O_4  and  C_5 
REMARK    4  A    between atoms: C_8  and  C_9 
REMARK    5  A    between atoms: N_11  and  C_12 
REMARK    6  A    between atoms: C_19  and  C_20 
REMARK    7  A    between atoms: C_20  and  S_21 
REMARK    8  A    between atoms: S_21  and  C_22 
REMARK    9  A    between atoms: C_22  and  N_23 
ROOT
HETATM    1  C   UNL     1      26.603  43.132  51.779  1.00  0.00     0.096 C 
HETATM    2  N   UNL     1      27.287  43.953  52.584  1.00  0.00    -0.167 NA
HETATM    3  N   UNL     1      28.160  43.180  53.266  1.00  0.00    -0.244 N 
HETATM    4  C   UNL     1      28.168  41.900  52.758  1.00  0.00     0.129 C 
HETATM    5  C   UNL     1      27.199  41.833  51.774  1.00  0.00     0.001 C 
ENDROOT
BRANCH   1   6
HETATM    6  C   UNL     1      25.519  43.660  50.945  1.00  0.00    -0.005 A 
HETATM    7  C   UNL     1      25.760  44.747  50.091  1.00  0.00     0.016 A 
HETATM    8  C   UNL     1      24.763  45.221  49.229  1.00  0.00     0.037 A 
HETATM    9  C   UNL     1      23.511  44.613  49.209  1.00  0.00     0.068 A 
HETATM   10  C   UNL     1      23.249  43.564  50.093  1.00  0.00     0.037 A 
HETATM   11  C   UNL     1      24.240  43.095  50.963  1.00  0.00     0.016 A 
BRANCH   9  12
HETATM   12  O   UNL     1      22.467  44.943  48.393  1.00  0.00    -0.351 OA
BRANCH  12  13
HETATM   13  C   UNL     1      22.089  43.994  47.394  1.00  0.00     0.179 C 
BRANCH  13  14
HETATM   14  C   UNL     1      21.012  44.621  46.496  1.00  0.00     0.002 C 
HETATM   15  C   UNL     1      19.970  43.581  46.078  1.00  0.00     0.011 C 
HETATM   16  C   UNL     1      21.652  45.256  45.263  1.00  0.00     0.011 C 
ENDBRANCH  13  14
ENDBRANCH  12  13
ENDBRANCH   9  12
ENDBRANCH   1   6
BRANCH   5  17
HETATM   17  C   UNL     1      26.909  40.650  50.915  1.00  0.00     0.125 C 
BRANCH  17  18
HETATM   18  S   UNL     1      28.135  40.411  49.592  1.00  0.00    -0.090 SA
BRANCH  18  19
HETATM   19  C   UNL     1      28.879  38.939  50.057  1.00  0.00     0.131 C 
HETATM   20  N   UNL     1      28.876  37.949  49.202  1.00  0.00    -0.380 N 
HETATM   21  H   UNL     1      28.444  38.098  48.296  1.00  0.00     0.158 HD
HETATM   22  H   UNL     1      29.321  37.062  49.387  1.00  0.00     0.158 HD
BRANCH  19  23
HETATM   23  N   UNL     1      29.471  38.848  51.220  1.00  0.00    -0.380 N 
HETATM   24  H   UNL     1      30.464  39.054  51.280  1.00  0.00     0.158 HD
HETATM   25  H   UNL     1      28.995  38.583  52.070  1.00  0.00     0.158 HD
ENDBRANCH  19  23
ENDBRANCH  18  19
ENDBRANCH  17  18
ENDBRANCH   5  17
BRANCH   3  26
HETATM   26  C   UNL     1      28.985  43.729  54.286  1.00  0.00     0.058 A 
HETATM   27  C   UNL     1      28.682  44.998  54.806  1.00  0.00     0.031 A 
HETATM   28  C   UNL     1      29.487  45.563  55.797  1.00  0.00     0.002 A 
HETATM   29  C   UNL     1      30.595  44.869  56.277  1.00  0.00     0.000 A 
HETATM   30  C   UNL     1      30.898  43.606  55.771  1.00  0.00     0.002 A 
HETATM   31  C   UNL     1      30.097  43.032  54.779  1.00  0.00     0.031 A 
ENDBRANCH   3  26
TORSDOF 9
ENDMDL
MODEL 10
REMARK VINA RESULT:      -7.3      2.678      3.628
REMARK  9 active torsions:
REMARK  status: ('A' for Active; 'I' for Inactive)
REMARK    1  A    between atoms: C_2  and  C_3 
REMARK    2  A    between atoms: C_3  and  O_4 
REMARK    3  A    between atoms: O_4  and  C_5 
REMARK    4  A    between atoms: C_8  and  C_9 
REMARK    5  A    between atoms: N_11  and  C_12 
REMARK    6  A    between atoms: C_19  and  C_20 
REMARK    7  A    between atoms: C_20  and  S_21 
REMARK    8  A    between atoms: S_21  and  C_22 
REMARK    9  A    between atoms: C_22  and  N_23 
ROOT
HETATM    1  C   UNL     1      23.691  45.915  49.390  1.00  0.00     0.096 C 
HETATM    2  N   UNL     1      23.416  47.214  49.559  1.00  0.00    -0.167 NA
HETATM    3  N   UNL     1      22.325  47.475  48.806  1.00  0.00    -0.244 N 
HETATM    4  C   UNL     1      21.789  46.307  48.314  1.00  0.00     0.129 C 
HETATM    5  C   UNL     1      22.622  45.271  48.692  1.00  0.00     0.001 C 
ENDROOT
BRANCH   1   6
HETATM    6  C   UNL     1      24.872  45.327  50.028  1.00  0.00    -0.005 A 
HETATM    7  C   UNL     1      24.720  44.489  51.143  1.00  0.00     0.016 A 
HETATM    8  C   UNL     1      25.825  43.855  51.724  1.00  0.00     0.037 A 
HETATM    9  C   UNL     1      27.099  44.051  51.197  1.00  0.00     0.068 A 
HETATM   10  C   UNL     1      27.263  44.924  50.120  1.00  0.00     0.037 A 
HETATM   11  C   UNL     1      26.161  45.567  49.543  1.00  0.00     0.016 A 
BRANCH   9  12
HETATM   12  O   UNL     1      28.251  43.464  51.635  1.00  0.00    -0.351 OA
BRANCH  12  13
HETATM   13  C   UNL     1      28.699  43.798  52.951  1.00  0.00     0.179 C 
BRANCH  13  14
HETATM   14  C   UNL     1      29.576  42.654  53.481  1.00  0.00     0.002 C 
HETATM   15  C   UNL     1      28.785  41.345  53.559  1.00  0.00     0.011 C 
HETATM   16  C   UNL     1      30.144  43.011  54.853  1.00  0.00     0.011 C 
ENDBRANCH  13  14
ENDBRANCH  12  13
ENDBRANCH   9  12
ENDBRANCH   1   6
BRANCH   5  17
HETATM   17  C   UNL     1      22.389  43.823  48.427  1.00  0.00     0.125 C 
BRANCH  17  18
HETATM   18  S   UNL     1      23.510  43.137  47.169  1.00  0.00    -0.090 SA
BRANCH  18  19
HETATM   19  C   UNL     1      24.476  42.068  48.097  1.00  0.00     0.131 C 
HETATM   20  N   UNL     1      25.771  42.253  48.100  1.00  0.00    -0.380 N 
HETATM   21  H   UNL     1      26.148  43.027  47.562  1.00  0.00     0.158 HD
HETATM   22  H   UNL     1      26.406  41.688  48.645  1.00  0.00     0.158 HD
BRANCH  19  23
HETATM   23  N   UNL     1      23.909  41.134  48.815  1.00  0.00    -0.380 N 
HETATM   24  H   UNL     1      24.497  40.514  49.364  1.00  0.00     0.158 HD
HETATM   25  H   UNL     1      22.910  40.991  48.857  1.00  0.00     0.158 HD
ENDBRANCH  19  23
ENDBRANCH  18  19
ENDBRANCH  17  18
ENDBRANCH   5  17
BRANCH   3  26
HETATM   26  C   UNL     1      21.818  48.799  48.684  1.00  0.00     0.058 A 
HETATM   27  C   UNL     1      20.479  48.990  48.307  1.00  0.00     0.031 A 
HETATM   28  C   UNL     1      19.965  50.281  48.166  1.00  0.00     0.002 A 
HETATM   29  C   UNL     1      20.778  51.385  48.401  1.00  0.00     0.000 A 
HETATM   30  C   UNL     1      22.107  51.204  48.784  1.00  0.00     0.002 A 
HETATM   31  C   UNL     1      22.630  49.916  48.927  1.00  0.00     0.031 A 
ENDBRANCH   3  26
TORSDOF 9
ENDMDL
