MODEL 1
REMARK VINA RESULT:      -8.2      0.000      0.000
REMARK  14 active torsions:
REMARK  status: ('A' for Active; 'I' for Inactive)
REMARK    1  A    between atoms: C_2  and  O_3 
REMARK    2  A    between atoms: O_3  and  C_4 
REMARK    3  A    between atoms: C_5  and  O_6 
REMARK    4  A    between atoms: C_9  and  C_10 
REMARK    5  A    between atoms: N_11  and  C_12 
REMARK    6  A    between atoms: C_12  and  C_13 
REMARK    7  A    between atoms: C_13  and  C_14 
REMARK    8  A    between atoms: C_14  and  N_15 
REMARK    9  A    between atoms: C_21  and  O_22 
REMARK   10  A    between atoms: C_23  and  C_24 
REMARK   11  A    between atoms: C_24  and  C_25 
REMARK   12  A    between atoms: C_29  and  O_30 
REMARK   13  A    between atoms: O_30  and  C_31 
REMARK   14  A    between atoms: C_31  and  C_32 
ROOT
HETATM    1  C   UNL     1      26.796  44.789  51.400  1.00  0.00     0.161 A 
HETATM    2  N   UNL     1      26.592  44.580  52.833  1.00  0.00    -0.333 N 
HETATM    3  C   UNL     1      25.880  45.627  53.390  1.00  0.00     0.278 A 
HETATM    4  O   UNL     1      25.544  45.776  54.551  1.00  0.00    -0.265 OA
HETATM    5  C   UNL     1      25.600  46.603  52.316  1.00  0.00     0.146 A 
HETATM    6  C   UNL     1      26.186  46.140  51.209  1.00  0.00     0.059 A 
ENDROOT
BRANCH   6   7
HETATM    7  C   UNL     1      26.315  46.830  49.911  1.00  0.00     0.193 C 
HETATM    8  O   UNL     1      27.369  46.744  49.289  1.00  0.00    -0.287 OA
BRANCH   7   9
HETATM    9  C   UNL     1      25.217  47.702  49.406  1.00  0.00     0.015 A 
HETATM   10  C   UNL     1      23.947  47.134  49.236  1.00  0.00     0.025 A 
HETATM   11  C   UNL     1      22.883  47.887  48.711  1.00  0.00    -0.028 A 
HETATM   12  C   UNL     1      21.535  47.245  48.526  1.00  0.00     0.051 C 
HETATM   13  C   UNL     1      23.092  49.230  48.354  1.00  0.00     0.074 A 
HETATM   14  C   UNL     1      24.362  49.790  48.507  1.00  0.00     0.038 A 
HETATM   15  C   UNL     1      25.420  49.030  49.017  1.00  0.00     0.018 A 
BRANCH  13  16
HETATM   16  O   UNL     1      22.002  49.891  47.853  1.00  0.00    -0.350 OA
BRANCH  16  17
HETATM   17  C   UNL     1      21.572  51.073  48.531  1.00  0.00     0.179 C 
BRANCH  17  18
HETATM   18  C   UNL     1      20.067  50.969  48.814  1.00  0.00     0.002 C 
HETATM   19  C   UNL     1      19.797  50.529  50.254  1.00  0.00     0.011 C 
HETATM   20  C   UNL     1      19.380  52.303  48.529  1.00  0.00     0.011 C 
ENDBRANCH  17  18
ENDBRANCH  16  17
ENDBRANCH  13  16
ENDBRANCH   7   9
ENDBRANCH   6   7
BRANCH   1  21
HETATM   21  C   UNL     1      26.152  43.656  50.621  1.00  0.00    -0.028 A 
HETATM   22  C   UNL     1      24.786  43.346  50.743  1.00  0.00     0.012 A 
HETATM   23  C   UNL     1      24.227  42.279  50.035  1.00  0.00     0.040 A 
HETATM   24  C   UNL     1      25.024  41.520  49.177  1.00  0.00     0.099 A 
HETATM   25  C   UNL     1      26.374  41.837  49.006  1.00  0.00     0.102 A 
HETATM   26  C   UNL     1      26.932  42.886  49.745  1.00  0.00     0.049 A 
BRANCH  24  27
HETATM   27  O   UNL     1      24.472  40.450  48.532  1.00  0.00    -0.358 OA
HETATM   28  H   UNL     1      23.811  40.030  49.106  1.00  0.00     0.218 HD
ENDBRANCH  24  27
BRANCH  25  29
HETATM   29  O   UNL     1      27.257  41.189  48.183  1.00  0.00    -0.349 OA
BRANCH  29  30
HETATM   30  C   UNL     1      28.314  40.497  48.856  1.00  0.00     0.171 C 
HETATM   31  C   UNL     1      27.904  39.043  49.007  1.00  0.00     0.034 C 
ENDBRANCH  29  30
ENDBRANCH  25  29
ENDBRANCH   1  21
BRANCH   5  32
HETATM   32  O   UNL     1      24.952  47.783  52.515  1.00  0.00    -0.355 OA
HETATM   33  H   UNL     1      25.632  48.444  52.750  1.00  0.00     0.218 HD
ENDBRANCH   5  32
BRANCH   2  34
HETATM   34  C   UNL     1      27.482  43.708  53.586  1.00  0.00     0.129 C 
BRANCH  34  35
HETATM   35  C   UNL     1      28.699  44.399  54.202  1.00  0.00     0.048 C 
BRANCH  35  36
HETATM   36  C   UNL     1      29.642  43.400  54.861  1.00  0.00     0.235 C 
BRANCH  36  37
HETATM   37  N   UNL     1      30.723  44.130  55.639  1.00  0.00    -0.079 N 
HETATM   38  H   UNL     1      31.487  44.351  54.987  1.00  0.00     0.278 HD
HETATM   39  C   UNL     1      30.240  45.437  56.215  1.00  0.00     0.269 C 
HETATM   40  C   UNL     1      31.320  43.255  56.708  1.00  0.00     0.269 C 
ENDBRANCH  36  37
ENDBRANCH  35  36
ENDBRANCH  34  35
ENDBRANCH   2  34
TORSDOF 14
ENDMDL
MODEL 2
REMARK VINA RESULT:      -8.2      2.965      7.977
REMARK  14 active torsions:
REMARK  status: ('A' for Active; 'I' for Inactive)
REMARK    1  A    between atoms: C_2  and  O_3 
REMARK    2  A    between atoms: O_3  and  C_4 
REMARK    3  A    between atoms: C_5  and  O_6 
REMARK    4  A    between atoms: C_9  and  C_10 
REMARK    5  A    between atoms: N_11  and  C_12 
REMARK    6  A    between atoms: C_12  and  C_13 
REMARK    7  A    between atoms: C_13  and  C_14 
REMARK    8  A    between atoms: C_14  and  N_15 
REMARK    9  A    between atoms: C_21  and  O_22 
REMARK   10  A    between atoms: C_23  and  C_24 
REMARK   11  A    between atoms: C_24  and  C_25 
REMARK   12  A    between atoms: C_29  and  O_30 
REMARK   13  A    between atoms: O_30  and  C_31 
REMARK   14  A    between atoms: C_31  and  C_32 
ROOT
HETATM    1  C   UNL     1      24.010  48.014  49.587  1.00  0.00     0.161 A 
HETATM    2  N   UNL     1      23.252  49.157  49.077  1.00  0.00    -0.333 N 
HETATM    3  C   UNL     1      24.059  49.988  48.321  1.00  0.00     0.278 A 
HETATM    4  O   UNL     1      23.755  51.024  47.757  1.00  0.00    -0.265 OA
HETATM    5  C   UNL     1      25.423  49.419  48.325  1.00  0.00     0.146 A 
HETATM    6  C   UNL     1      25.387  48.334  49.104  1.00  0.00     0.059 A 
ENDROOT
BRANCH   6   7
HETATM    7  C   UNL     1      26.530  47.509  49.539  1.00  0.00     0.193 C 
HETATM    8  O   UNL     1      27.506  47.399  48.803  1.00  0.00    -0.287 OA
BRANCH   7   9
HETATM    9  C   UNL     1      26.463  46.737  50.812  1.00  0.00     0.015 A 
HETATM   10  C   UNL     1      26.293  47.447  52.007  1.00  0.00     0.025 A 
HETATM   11  C   UNL     1      26.278  46.783  53.247  1.00  0.00    -0.028 A 
HETATM   12  C   UNL     1      26.108  47.574  54.515  1.00  0.00     0.051 C 
HETATM   13  C   UNL     1      26.431  45.387  53.289  1.00  0.00     0.074 A 
HETATM   14  C   UNL     1      26.618  44.682  52.098  1.00  0.00     0.038 A 
HETATM   15  C   UNL     1      26.646  45.351  50.870  1.00  0.00     0.018 A 
BRANCH  13  16
HETATM   16  O   UNL     1      26.401  44.820  54.536  1.00  0.00    -0.350 OA
BRANCH  16  17
HETATM   17  C   UNL     1      27.423  43.877  54.861  1.00  0.00     0.179 C 
BRANCH  17  18
HETATM   18  C   UNL     1      28.792  44.566  54.759  1.00  0.00     0.002 C 
HETATM   19  C   UNL     1      29.003  45.564  55.900  1.00  0.00     0.011 C 
HETATM   20  C   UNL     1      29.911  43.526  54.749  1.00  0.00     0.011 C 
ENDBRANCH  17  18
ENDBRANCH  16  17
ENDBRANCH  13  16
ENDBRANCH   7   9
ENDBRANCH   6   7
BRANCH   1  21
HETATM   21  C   UNL     1      23.406  46.724  49.060  1.00  0.00    -0.028 A 
HETATM   22  C   UNL     1      22.917  46.609  47.747  1.00  0.00     0.012 A 
HETATM   23  C   UNL     1      22.341  45.417  47.300  1.00  0.00     0.040 A 
HETATM   24  C   UNL     1      22.266  44.317  48.155  1.00  0.00     0.099 A 
HETATM   25  C   UNL     1      22.787  44.394  49.449  1.00  0.00     0.102 A 
HETATM   26  C   UNL     1      23.330  45.602  49.900  1.00  0.00     0.049 A 
BRANCH  24  27
HETATM   27  O   UNL     1      21.654  43.176  47.716  1.00  0.00    -0.358 OA
HETATM   28  H   UNL     1      20.870  42.999  48.258  1.00  0.00     0.218 HD
ENDBRANCH  24  27
BRANCH  25  29
HETATM   29  O   UNL     1      22.796  43.386  50.377  1.00  0.00    -0.349 OA
BRANCH  29  30
HETATM   30  C   UNL     1      24.088  42.838  50.661  1.00  0.00     0.171 C 
HETATM   31  C   UNL     1      24.464  41.904  49.524  1.00  0.00     0.034 C 
ENDBRANCH  29  30
ENDBRANCH  25  29
ENDBRANCH   1  21
BRANCH   5  32
HETATM   32  O   UNL     1      26.489  50.002  47.713  1.00  0.00    -0.355 OA
HETATM   33  H   UNL     1      26.168  50.836  47.319  1.00  0.00     0.218 HD
ENDBRANCH   5  32
BRANCH   2  34
HETATM   34  C   UNL     1      22.031  49.589  49.741  1.00  0.00     0.129 C 
BRANCH  34  35
HETATM   35  C   UNL     1      20.904  50.025  48.804  1.00  0.00     0.048 C 
BRANCH  35  36
HETATM   36  C   UNL     1      20.105  48.834  48.289  1.00  0.00     0.235 C 
BRANCH  36  37
HETATM   37  N   UNL     1      19.771  47.889  49.430  1.00  0.00    -0.079 N 
HETATM   38  H   UNL     1      20.628  47.742  49.980  1.00  0.00     0.278 HD
HETATM   39  C   UNL     1      18.735  48.456  50.367  1.00  0.00     0.269 C 
HETATM   40  C   UNL     1      19.358  46.534  48.922  1.00  0.00     0.269 C 
ENDBRANCH  36  37
ENDBRANCH  35  36
ENDBRANCH  34  35
ENDBRANCH   2  34
TORSDOF 14
ENDMDL
MODEL 3
REMARK VINA RESULT:      -8.0      1.720      4.584
REMARK  14 active torsions:
REMARK  status: ('A' for Active; 'I' for Inactive)
REMARK    1  A    between atoms: C_2  and  O_3 
REMARK    2  A    between atoms: O_3  and  C_4 
REMARK    3  A    between atoms: C_5  and  O_6 
REMARK    4  A    between atoms: C_9  and  C_10 
REMARK    5  A    between atoms: N_11  and  C_12 
REMARK    6  A    between atoms: C_12  and  C_13 
REMARK    7  A    between atoms: C_13  and  C_14 
REMARK    8  A    between atoms: C_14  and  N_15 
REMARK    9  A    between atoms: C_21  and  O_22 
REMARK   10  A    between atoms: C_23  and  C_24 
REMARK   11  A    between atoms: C_24  and  C_25 
REMARK   12  A    between atoms: C_29  and  O_30 
REMARK   13  A    between atoms: O_30  and  C_31 
REMARK   14  A    between atoms: C_31  and  C_32 
ROOT
HETATM    1  C   UNL     1      25.305  43.096  51.364  1.00  0.00     0.161 A 
HETATM    2  N   UNL     1      26.607  42.603  50.914  1.00  0.00    -0.333 N 
HETATM    3  C   UNL     1      26.640  42.476  49.538  1.00  0.00     0.278 A 
HETATM    4  O   UNL     1      27.559  42.090  48.838  1.00  0.00    -0.265 OA
HETATM    5  C   UNL     1      25.314  42.872  49.017  1.00  0.00     0.146 A 
HETATM    6  C   UNL     1      24.551  43.157  50.075  1.00  0.00     0.059 A 
ENDROOT
BRANCH   6   7
HETATM    7  C   UNL     1      23.107  43.457  50.081  1.00  0.00     0.193 C 
HETATM    8  O   UNL     1      22.325  42.637  50.550  1.00  0.00    -0.287 OA
BRANCH   7   9
HETATM    9  C   UNL     1      22.591  44.698  49.435  1.00  0.00     0.015 A 
HETATM   10  C   UNL     1      21.261  44.710  48.995  1.00  0.00     0.025 A 
HETATM   11  C   UNL     1      20.730  45.828  48.329  1.00  0.00    -0.028 A 
HETATM   12  C   UNL     1      19.303  45.806  47.854  1.00  0.00     0.051 C 
HETATM   13  C   UNL     1      21.542  46.953  48.104  1.00  0.00     0.074 A 
HETATM   14  C   UNL     1      22.873  46.934  48.528  1.00  0.00     0.038 A 
HETATM   15  C   UNL     1      23.398  45.811  49.177  1.00  0.00     0.018 A 
BRANCH  13  16
HETATM   16  O   UNL     1      20.945  47.999  47.451  1.00  0.00    -0.350 OA
BRANCH  16  17
HETATM   17  C   UNL     1      21.328  49.323  47.829  1.00  0.00     0.179 C 
BRANCH  17  18
HETATM   18  C   UNL     1      20.099  50.062  48.377  1.00  0.00     0.002 C 
HETATM   19  C   UNL     1      19.618  49.449  49.693  1.00  0.00     0.011 C 
HETATM   20  C   UNL     1      20.412  51.545  48.565  1.00  0.00     0.011 C 
ENDBRANCH  17  18
ENDBRANCH  16  17
ENDBRANCH  13  16
ENDBRANCH   7   9
ENDBRANCH   6   7
BRANCH   1  21
HETATM   21  C   UNL     1      25.482  44.418  52.091  1.00  0.00    -0.028 A 
HETATM   22  C   UNL     1      25.350  44.527  53.486  1.00  0.00     0.012 A 
HETATM   23  C   UNL     1      25.490  45.763  54.123  1.00  0.00     0.040 A 
HETATM   24  C   UNL     1      25.787  46.902  53.375  1.00  0.00     0.099 A 
HETATM   25  C   UNL     1      25.968  46.809  51.993  1.00  0.00     0.102 A 
HETATM   26  C   UNL     1      25.791  45.575  51.359  1.00  0.00     0.049 A 
BRANCH  24  27
HETATM   27  O   UNL     1      25.871  48.109  54.010  1.00  0.00    -0.358 OA
HETATM   28  H   UNL     1      26.272  47.989  54.885  1.00  0.00     0.218 HD
ENDBRANCH  24  27
BRANCH  25  29
HETATM   29  O   UNL     1      26.281  47.842  51.149  1.00  0.00    -0.349 OA
BRANCH  29  30
HETATM   30  C   UNL     1      26.578  47.453  49.803  1.00  0.00     0.171 C 
HETATM   31  C   UNL     1      27.366  48.576  49.152  1.00  0.00     0.034 C 
ENDBRANCH  29  30
ENDBRANCH  25  29
ENDBRANCH   1  21
BRANCH   5  32
HETATM   32  O   UNL     1      24.973  42.829  47.700  1.00  0.00    -0.355 OA
HETATM   33  H   UNL     1      24.226  43.448  47.581  1.00  0.00     0.218 HD
ENDBRANCH   5  32
BRANCH   2  34
HETATM   34  C   UNL     1      27.469  41.860  51.822  1.00  0.00     0.129 C 
BRANCH  34  35
HETATM   35  C   UNL     1      28.660  42.645  52.372  1.00  0.00     0.048 C 
BRANCH  35  36
HETATM   36  C   UNL     1      28.633  42.720  53.894  1.00  0.00     0.235 C 
BRANCH  36  37
HETATM   37  N   UNL     1      29.604  43.778  54.387  1.00  0.00    -0.079 N 
HETATM   38  H   UNL     1      30.160  44.097  53.582  1.00  0.00     0.278 HD
HETATM   39  C   UNL     1      28.904  44.990  54.949  1.00  0.00     0.269 C 
HETATM   40  C   UNL     1      30.583  43.210  55.380  1.00  0.00     0.269 C 
ENDBRANCH  36  37
ENDBRANCH  35  36
ENDBRANCH  34  35
ENDBRANCH   2  34
TORSDOF 14
ENDMDL
MODEL 4
REMARK VINA RESULT:      -8.0      3.109      8.295
REMARK  14 active torsions:
REMARK  status: ('A' for Active; 'I' for Inactive)
REMARK    1  A    between atoms: C_2  and  O_3 
REMARK    2  A    between atoms: O_3  and  C_4 
REMARK    3  A    between atoms: C_5  and  O_6 
REMARK    4  A    between atoms: C_9  and  C_10 
REMARK    5  A    between atoms: N_11  and  C_12 
REMARK    6  A    between atoms: C_12  and  C_13 
REMARK    7  A    between atoms: C_13  and  C_14 
REMARK    8  A    between atoms: C_14  and  N_15 
REMARK    9  A    between atoms: C_21  and  O_22 
REMARK   10  A    between atoms: C_23  and  C_24 
REMARK   11  A    between atoms: C_24  and  C_25 
REMARK   12  A    between atoms: C_29  and  O_30 
REMARK   13  A    between atoms: O_30  and  C_31 
REMARK   14  A    between atoms: C_31  and  C_32 
ROOT
HETATM    1  C   UNL     1      23.888  48.045  49.547  1.00  0.00     0.161 A 
HETATM    2  N   UNL     1      22.988  49.048  48.978  1.00  0.00    -0.333 N 
HETATM    3  C   UNL     1      23.672  49.907  48.137  1.00  0.00     0.278 A 
HETATM    4  O   UNL     1      23.234  50.853  47.507  1.00  0.00    -0.265 OA
HETATM    5  C   UNL     1      25.094  49.503  48.139  1.00  0.00     0.146 A 
HETATM    6  C   UNL     1      25.206  48.486  48.997  1.00  0.00     0.059 A 
ENDROOT
BRANCH   6   7
HETATM    7  C   UNL     1      26.448  47.837  49.456  1.00  0.00     0.193 C 
HETATM    8  O   UNL     1      27.487  48.016  48.828  1.00  0.00    -0.287 OA
BRANCH   7   9
HETATM    9  C   UNL     1      26.427  46.894  50.611  1.00  0.00     0.015 A 
HETATM   10  C   UNL     1      26.781  45.558  50.380  1.00  0.00     0.025 A 
HETATM   11  C   UNL     1      26.728  44.607  51.414  1.00  0.00    -0.028 A 
HETATM   12  C   UNL     1      27.100  43.177  51.133  1.00  0.00     0.051 C 
HETATM   13  C   UNL     1      26.316  45.000  52.699  1.00  0.00     0.074 A 
HETATM   14  C   UNL     1      25.945  46.328  52.924  1.00  0.00     0.038 A 
HETATM   15  C   UNL     1      25.988  47.265  51.886  1.00  0.00     0.018 A 
BRANCH  13  16
HETATM   16  O   UNL     1      26.295  44.012  53.647  1.00  0.00    -0.350 OA
BRANCH  16  17
HETATM   17  C   UNL     1      27.037  44.230  54.849  1.00  0.00     0.179 C 
BRANCH  17  18
HETATM   18  C   UNL     1      28.511  44.468  54.492  1.00  0.00     0.002 C 
HETATM   19  C   UNL     1      29.174  45.440  55.470  1.00  0.00     0.011 C 
HETATM   20  C   UNL     1      29.272  43.143  54.464  1.00  0.00     0.011 C 
ENDBRANCH  17  18
ENDBRANCH  16  17
ENDBRANCH  13  16
ENDBRANCH   7   9
ENDBRANCH   6   7
BRANCH   1  21
HETATM   21  C   UNL     1      23.430  46.657  49.138  1.00  0.00    -0.028 A 
HETATM   22  C   UNL     1      23.462  45.567  50.027  1.00  0.00     0.012 A 
HETATM   23  C   UNL     1      23.061  44.294  49.613  1.00  0.00     0.040 A 
HETATM   24  C   UNL     1      22.602  44.098  48.310  1.00  0.00     0.099 A 
HETATM   25  C   UNL     1      22.519  45.175  47.424  1.00  0.00     0.102 A 
HETATM   26  C   UNL     1      22.955  46.439  47.836  1.00  0.00     0.049 A 
BRANCH  24  27
HETATM   27  O   UNL     1      22.262  42.837  47.910  1.00  0.00    -0.358 OA
HETATM   28  H   UNL     1      23.032  42.405  47.507  1.00  0.00     0.218 HD
ENDBRANCH  24  27
BRANCH  25  29
HETATM   29  O   UNL     1      22.070  45.123  46.131  1.00  0.00    -0.349 OA
BRANCH  29  30
HETATM   30  C   UNL     1      21.064  46.087  45.801  1.00  0.00     0.171 C 
HETATM   31  C   UNL     1      20.719  45.924  44.331  1.00  0.00     0.034 C 
ENDBRANCH  29  30
ENDBRANCH  25  29
ENDBRANCH   1  21
BRANCH   5  32
HETATM   32  O   UNL     1      26.069  50.157  47.451  1.00  0.00    -0.355 OA
HETATM   33  H   UNL     1      26.572  50.682  48.105  1.00  0.00     0.218 HD
ENDBRANCH   5  32
BRANCH   2  34
HETATM   34  C   UNL     1      21.740  49.385  49.646  1.00  0.00     0.129 C 
BRANCH  34  35
HETATM   35  C   UNL     1      20.473  49.067  48.851  1.00  0.00     0.048 C 
BRANCH  35  36
HETATM   36  C   UNL     1      19.874  47.725  49.256  1.00  0.00     0.235 C 
BRANCH  36  37
HETATM   37  N   UNL     1      18.494  47.924  49.858  1.00  0.00    -0.079 N 
HETATM   38  H   UNL     1      18.066  46.997  49.983  1.00  0.00     0.278 HD
HETATM   39  C   UNL     1      18.543  48.576  51.216  1.00  0.00     0.269 C 
HETATM   40  C   UNL     1      17.589  48.684  48.925  1.00  0.00     0.269 C 
ENDBRANCH  36  37
ENDBRANCH  35  36
ENDBRANCH  34  35
ENDBRANCH   2  34
TORSDOF 14
ENDMDL
MODEL 5
REMARK VINA RESULT:      -7.9      2.905      8.210
REMARK  14 active torsions:
REMARK  status: ('A' for Active; 'I' for Inactive)
REMARK    1  A    between atoms: C_2  and  O_3 
REMARK    2  A    between atoms: O_3  and  C_4 
REMARK    3  A    between atoms: C_5  and  O_6 
REMARK    4  A    between atoms: C_9  and  C_10 
REMARK    5  A    between atoms: N_11  and  C_12 
REMARK    6  A    between atoms: C_12  and  C_13 
REMARK    7  A    between atoms: C_13  and  C_14 
REMARK    8  A    between atoms: C_14  and  N_15 
REMARK    9  A    between atoms: C_21  and  O_22 
REMARK   10  A    between atoms: C_23  and  C_24 
REMARK   11  A    between atoms: C_24  and  C_25 
REMARK   12  A    between atoms: C_29  and  O_30 
REMARK   13  A    between atoms: O_30  and  C_31 
REMARK   14  A    between atoms: C_31  and  C_32 
ROOT
HETATM    1  C   UNL     1      23.822  48.030  49.574  1.00  0.00     0.161 A 
HETATM    2  N   UNL     1      23.978  49.014  48.504  1.00  0.00    -0.333 N 
HETATM    3  C   UNL     1      25.309  49.343  48.323  1.00  0.00     0.278 A 
HETATM    4  O   UNL     1      25.790  50.128  47.526  1.00  0.00    -0.265 OA
HETATM    5  C   UNL     1      26.100  48.582  49.312  1.00  0.00     0.146 A 
HETATM    6  C   UNL     1      25.230  47.893  50.056  1.00  0.00     0.059 A 
ENDROOT
BRANCH   6   7
HETATM    7  C   UNL     1      25.520  47.101  51.266  1.00  0.00     0.193 C 
HETATM    8  O   UNL     1      25.300  47.588  52.370  1.00  0.00    -0.287 OA
BRANCH   7   9
HETATM    9  C   UNL     1      26.164  45.761  51.156  1.00  0.00     0.015 A 
HETATM   10  C   UNL     1      26.434  45.058  52.337  1.00  0.00     0.025 A 
HETATM   11  C   UNL     1      27.091  43.815  52.305  1.00  0.00    -0.028 A 
HETATM   12  C   UNL     1      27.381  43.091  53.591  1.00  0.00     0.051 C 
HETATM   13  C   UNL     1      27.479  43.266  51.071  1.00  0.00     0.074 A 
HETATM   14  C   UNL     1      27.226  43.977  49.895  1.00  0.00     0.038 A 
HETATM   15  C   UNL     1      26.585  45.219  49.937  1.00  0.00     0.018 A 
BRANCH  13  16
HETATM   16  O   UNL     1      28.110  42.052  51.130  1.00  0.00    -0.350 OA
BRANCH  16  17
HETATM   17  C   UNL     1      27.487  40.948  50.472  1.00  0.00     0.179 C 
BRANCH  17  18
HETATM   18  C   UNL     1      28.419  40.432  49.367  1.00  0.00     0.002 C 
HETATM   19  C   UNL     1      28.639  38.921  49.480  1.00  0.00     0.011 C 
HETATM   20  C   UNL     1      27.859  40.785  47.991  1.00  0.00     0.011 C 
ENDBRANCH  17  18
ENDBRANCH  16  17
ENDBRANCH  13  16
ENDBRANCH   7   9
ENDBRANCH   6   7
BRANCH   1  21
HETATM   21  C   UNL     1      23.186  46.768  49.020  1.00  0.00    -0.028 A 
HETATM   22  C   UNL     1      22.676  46.699  47.711  1.00  0.00     0.012 A 
HETATM   23  C   UNL     1      22.070  45.532  47.239  1.00  0.00     0.040 A 
HETATM   24  C   UNL     1      21.985  44.410  48.063  1.00  0.00     0.099 A 
HETATM   25  C   UNL     1      22.526  44.439  49.351  1.00  0.00     0.102 A 
HETATM   26  C   UNL     1      23.099  45.623  49.828  1.00  0.00     0.049 A 
BRANCH  24  27
HETATM   27  O   UNL     1      21.345  43.295  47.601  1.00  0.00    -0.358 OA
HETATM   28  H   UNL     1      20.802  43.527  46.832  1.00  0.00     0.218 HD
ENDBRANCH  24  27
BRANCH  25  29
HETATM   29  O   UNL     1      22.529  43.405  50.250  1.00  0.00    -0.349 OA
BRANCH  29  30
HETATM   30  C   UNL     1      23.815  42.835  50.511  1.00  0.00     0.171 C 
HETATM   31  C   UNL     1      24.197  41.969  49.323  1.00  0.00     0.034 C 
ENDBRANCH  29  30
ENDBRANCH  25  29
ENDBRANCH   1  21
BRANCH   5  32
HETATM   32  O   UNL     1      27.449  48.691  49.451  1.00  0.00    -0.355 OA
HETATM   33  H   UNL     1      27.623  48.869  50.397  1.00  0.00     0.218 HD
ENDBRANCH   5  32
BRANCH   2  34
HETATM   34  C   UNL     1      22.867  49.875  48.124  1.00  0.00     0.129 C 
BRANCH  34  35
HETATM   35  C   UNL     1      21.921  50.252  49.264  1.00  0.00     0.048 C 
BRANCH  35  36
HETATM   36  C   UNL     1      20.481  49.860  48.956  1.00  0.00     0.235 C 
BRANCH  36  37
HETATM   37  N   UNL     1      20.009  48.786  49.919  1.00  0.00    -0.079 N 
HETATM   38  H   UNL     1      20.817  48.487  50.482  1.00  0.00     0.278 HD
HETATM   39  C   UNL     1      18.962  49.289  50.881  1.00  0.00     0.269 C 
HETATM   40  C   UNL     1      19.527  47.561  49.188  1.00  0.00     0.269 C 
ENDBRANCH  36  37
ENDBRANCH  35  36
ENDBRANCH  34  35
ENDBRANCH   2  34
TORSDOF 14
ENDMDL
MODEL 6
REMARK VINA RESULT:      -7.8      1.113      2.084
REMARK  14 active torsions:
REMARK  status: ('A' for Active; 'I' for Inactive)
REMARK    1  A    between atoms: C_2  and  O_3 
REMARK    2  A    between atoms: O_3  and  C_4 
REMARK    3  A    between atoms: C_5  and  O_6 
REMARK    4  A    between atoms: C_9  and  C_10 
REMARK    5  A    between atoms: N_11  and  C_12 
REMARK    6  A    between atoms: C_12  and  C_13 
REMARK    7  A    between atoms: C_13  and  C_14 
REMARK    8  A    between atoms: C_14  and  N_15 
REMARK    9  A    between atoms: C_21  and  O_22 
REMARK   10  A    between atoms: C_23  and  C_24 
REMARK   11  A    between atoms: C_24  and  C_25 
REMARK   12  A    between atoms: C_29  and  O_30 
REMARK   13  A    between atoms: O_30  and  C_31 
REMARK   14  A    between atoms: C_31  and  C_32 
ROOT
HETATM    1  C   UNL     1      26.629  44.430  51.312  1.00  0.00     0.161 A 
HETATM    2  N   UNL     1      26.450  44.217  52.748  1.00  0.00    -0.333 N 
HETATM    3  C   UNL     1      25.898  45.333  53.349  1.00  0.00     0.278 A 
HETATM    4  O   UNL     1      25.623  45.498  54.524  1.00  0.00    -0.265 OA
HETATM    5  C   UNL     1      25.709  46.361  52.304  1.00  0.00     0.146 A 
HETATM    6  C   UNL     1      26.192  45.851  51.168  1.00  0.00     0.059 A 
ENDROOT
BRANCH   6   7
HETATM    7  C   UNL     1      26.364  46.547  49.879  1.00  0.00     0.193 C 
HETATM    8  O   UNL     1      27.391  46.369  49.233  1.00  0.00    -0.287 OA
BRANCH   7   9
HETATM    9  C   UNL     1      25.348  47.533  49.410  1.00  0.00     0.015 A 
HETATM   10  C   UNL     1      24.024  47.099  49.266  1.00  0.00     0.025 A 
HETATM   11  C   UNL     1      23.029  47.963  48.775  1.00  0.00    -0.028 A 
HETATM   12  C   UNL     1      21.619  47.464  48.616  1.00  0.00     0.051 C 
HETATM   13  C   UNL     1      23.365  49.283  48.428  1.00  0.00     0.074 A 
HETATM   14  C   UNL     1      24.689  49.709  48.556  1.00  0.00     0.038 A 
HETATM   15  C   UNL     1      25.676  48.839  49.031  1.00  0.00     0.018 A 
BRANCH  13  16
HETATM   16  O   UNL     1      22.337  50.058  47.962  1.00  0.00    -0.350 OA
BRANCH  16  17
HETATM   17  C   UNL     1      21.812  51.060  48.834  1.00  0.00     0.179 C 
BRANCH  17  18
HETATM   18  C   UNL     1      20.285  50.919  48.900  1.00  0.00     0.002 C 
HETATM   19  C   UNL     1      19.818  50.537  50.306  1.00  0.00     0.011 C 
HETATM   20  C   UNL     1      19.612  52.214  48.451  1.00  0.00     0.011 C 
ENDBRANCH  17  18
ENDBRANCH  16  17
ENDBRANCH  13  16
ENDBRANCH   7   9
ENDBRANCH   6   7
BRANCH   1  21
HETATM   21  C   UNL     1      25.819  43.405  50.538  1.00  0.00    -0.028 A 
HETATM   22  C   UNL     1      26.319  42.124  50.243  1.00  0.00     0.012 A 
HETATM   23  C   UNL     1      25.560  41.213  49.503  1.00  0.00     0.040 A 
HETATM   24  C   UNL     1      24.282  41.563  49.067  1.00  0.00     0.099 A 
HETATM   25  C   UNL     1      23.747  42.813  49.387  1.00  0.00     0.102 A 
HETATM   26  C   UNL     1      24.527  43.732  50.098  1.00  0.00     0.049 A 
BRANCH  24  27
HETATM   27  O   UNL     1      23.577  40.677  48.303  1.00  0.00    -0.358 OA
HETATM   28  H   UNL     1      24.190  40.146  47.771  1.00  0.00     0.218 HD
ENDBRANCH  24  27
BRANCH  25  29
HETATM   29  O   UNL     1      22.504  43.272  49.041  1.00  0.00    -0.349 OA
BRANCH  29  30
HETATM   30  C   UNL     1      22.211  43.227  47.640  1.00  0.00     0.171 C 
HETATM   31  C   UNL     1      22.920  44.392  46.973  1.00  0.00     0.034 C 
ENDBRANCH  29  30
ENDBRANCH  25  29
ENDBRANCH   1  21
BRANCH   5  32
HETATM   32  O   UNL     1      25.224  47.609  52.547  1.00  0.00    -0.355 OA
HETATM   33  H   UNL     1      24.297  47.618  52.236  1.00  0.00     0.218 HD
ENDBRANCH   5  32
BRANCH   2  34
HETATM   34  C   UNL     1      27.246  43.221  53.452  1.00  0.00     0.129 C 
BRANCH  34  35
HETATM   35  C   UNL     1      28.759  43.422  53.365  1.00  0.00     0.048 C 
BRANCH  35  36
HETATM   36  C   UNL     1      29.469  42.911  54.613  1.00  0.00     0.235 C 
BRANCH  36  37
HETATM   37  N   UNL     1      30.295  44.019  55.241  1.00  0.00    -0.079 N 
HETATM   38  H   UNL     1      30.935  44.384  54.523  1.00  0.00     0.278 HD
HETATM   39  C   UNL     1      29.450  45.177  55.709  1.00  0.00     0.269 C 
HETATM   40  C   UNL     1      31.163  43.497  56.355  1.00  0.00     0.269 C 
ENDBRANCH  36  37
ENDBRANCH  35  36
ENDBRANCH  34  35
ENDBRANCH   2  34
TORSDOF 14
ENDMDL
MODEL 7
REMARK VINA RESULT:      -7.7      2.477      5.445
REMARK  14 active torsions:
REMARK  status: ('A' for Active; 'I' for Inactive)
REMARK    1  A    between atoms: C_2  and  O_3 
REMARK    2  A    between atoms: O_3  and  C_4 
REMARK    3  A    between atoms: C_5  and  O_6 
REMARK    4  A    between atoms: C_9  and  C_10 
REMARK    5  A    between atoms: N_11  and  C_12 
REMARK    6  A    between atoms: C_12  and  C_13 
REMARK    7  A    between atoms: C_13  and  C_14 
REMARK    8  A    between atoms: C_14  and  N_15 
REMARK    9  A    between atoms: C_21  and  O_22 
REMARK   10  A    between atoms: C_23  and  C_24 
REMARK   11  A    between atoms: C_24  and  C_25 
REMARK   12  A    between atoms: C_29  and  O_30 
REMARK   13  A    between atoms: O_30  and  C_31 
REMARK   14  A    between atoms: C_31  and  C_32 
ROOT
HETATM    1  C   UNL     1      25.177  43.173  51.127  1.00  0.00     0.161 A 
HETATM    2  N   UNL     1      26.440  42.681  50.579  1.00  0.00    -0.333 N 
HETATM    3  C   UNL     1      26.391  42.621  49.199  1.00  0.00     0.278 A 
HETATM    4  O   UNL     1      27.260  42.254  48.428  1.00  0.00    -0.265 OA
HETATM    5  C   UNL     1      25.046  43.063  48.775  1.00  0.00     0.146 A 
HETATM    6  C   UNL     1      24.350  43.309  49.889  1.00  0.00     0.059 A 
ENDROOT
BRANCH   6   7
HETATM    7  C   UNL     1      22.915  43.633  49.994  1.00  0.00     0.193 C 
HETATM    8  O   UNL     1      22.173  42.876  50.610  1.00  0.00    -0.287 OA
BRANCH   7   9
HETATM    9  C   UNL     1      22.353  44.813  49.276  1.00  0.00     0.015 A 
HETATM   10  C   UNL     1      23.102  45.996  49.263  1.00  0.00     0.025 A 
HETATM   11  C   UNL     1      22.603  47.160  48.652  1.00  0.00    -0.028 A 
HETATM   12  C   UNL     1      23.424  48.421  48.666  1.00  0.00     0.051 C 
HETATM   13  C   UNL     1      21.337  47.137  48.043  1.00  0.00     0.074 A 
HETATM   14  C   UNL     1      20.583  45.962  48.073  1.00  0.00     0.038 A 
HETATM   15  C   UNL     1      21.081  44.812  48.695  1.00  0.00     0.018 A 
BRANCH  13  16
HETATM   16  O   UNL     1      20.929  48.312  47.470  1.00  0.00    -0.350 OA
BRANCH  16  17
HETATM   17  C   UNL     1      19.582  48.731  47.699  1.00  0.00     0.179 C 
BRANCH  17  18
HETATM   18  C   UNL     1      19.593  50.023  48.527  1.00  0.00     0.002 C 
HETATM   19  C   UNL     1      19.695  49.728  50.025  1.00  0.00     0.011 C 
HETATM   20  C   UNL     1      20.742  50.928  48.085  1.00  0.00     0.011 C 
ENDBRANCH  17  18
ENDBRANCH  16  17
ENDBRANCH  13  16
ENDBRANCH   7   9
ENDBRANCH   6   7
BRANCH   1  21
HETATM   21  C   UNL     1      25.421  44.455  51.904  1.00  0.00    -0.028 A 
HETATM   22  C   UNL     1      25.369  44.499  53.309  1.00  0.00     0.012 A 
HETATM   23  C   UNL     1      25.570  45.700  53.995  1.00  0.00     0.040 A 
HETATM   24  C   UNL     1      25.847  46.869  53.286  1.00  0.00     0.099 A 
HETATM   25  C   UNL     1      25.948  46.840  51.893  1.00  0.00     0.102 A 
HETATM   26  C   UNL     1      25.711  45.641  51.212  1.00  0.00     0.049 A 
BRANCH  24  27
HETATM   27  O   UNL     1      25.991  48.042  53.971  1.00  0.00    -0.358 OA
HETATM   28  H   UNL     1      25.166  48.249  54.438  1.00  0.00     0.218 HD
ENDBRANCH  24  27
BRANCH  25  29
HETATM   29  O   UNL     1      26.234  47.906  51.082  1.00  0.00    -0.349 OA
BRANCH  29  30
HETATM   30  C   UNL     1      26.719  47.562  49.779  1.00  0.00     0.171 C 
HETATM   31  C   UNL     1      27.394  48.788  49.190  1.00  0.00     0.034 C 
ENDBRANCH  29  30
ENDBRANCH  25  29
ENDBRANCH   1  21
BRANCH   5  32
HETATM   32  O   UNL     1      24.628  43.090  47.480  1.00  0.00    -0.355 OA
HETATM   33  H   UNL     1      23.877  42.468  47.412  1.00  0.00     0.218 HD
ENDBRANCH   5  32
BRANCH   2  34
HETATM   34  C   UNL     1      27.338  41.880  51.398  1.00  0.00     0.129 C 
BRANCH  34  35
HETATM   35  C   UNL     1      27.249  40.371  51.173  1.00  0.00     0.048 C 
BRANCH  35  36
HETATM   36  C   UNL     1      28.475  39.835  50.443  1.00  0.00     0.235 C 
BRANCH  36  37
HETATM   37  N   UNL     1      28.555  38.325  50.585  1.00  0.00    -0.079 N 
HETATM   38  H   UNL     1      27.964  38.050  51.381  1.00  0.00     0.278 HD
HETATM   39  C   UNL     1      28.029  37.600  49.373  1.00  0.00     0.269 C 
HETATM   40  C   UNL     1      29.952  37.876  50.921  1.00  0.00     0.269 C 
ENDBRANCH  36  37
ENDBRANCH  35  36
ENDBRANCH  34  35
ENDBRANCH   2  34
TORSDOF 14
ENDMDL
MODEL 8
REMARK VINA RESULT:      -7.6      4.504      9.718
REMARK  14 active torsions:
REMARK  status: ('A' for Active; 'I' for Inactive)
REMARK    1  A    between atoms: C_2  and  O_3 
REMARK    2  A    between atoms: O_3  and  C_4 
REMARK    3  A    between atoms: C_5  and  O_6 
REMARK    4  A    between atoms: C_9  and  C_10 
REMARK    5  A    between atoms: N_11  and  C_12 
REMARK    6  A    between atoms: C_12  and  C_13 
REMARK    7  A    between atoms: C_13  and  C_14 
REMARK    8  A    between atoms: C_14  and  N_15 
REMARK    9  A    between atoms: C_21  and  O_22 
REMARK   10  A    between atoms: C_23  and  C_24 
REMARK   11  A    between atoms: C_24  and  C_25 
REMARK   12  A    between atoms: C_29  and  O_30 
REMARK   13  A    between atoms: O_30  and  C_31 
REMARK   14  A    between atoms: C_31  and  C_32 
ROOT
HETATM    1  C   UNL     1      20.564  49.607  48.174  1.00  0.00     0.161 A 
HETATM    2  N   UNL     1      19.947  50.254  49.331  1.00  0.00    -0.333 N 
HETATM    3  C   UNL     1      19.082  49.392  49.978  1.00  0.00     0.278 A 
HETATM    4  O   UNL     1      18.403  49.605  50.967  1.00  0.00    -0.265 OA
HETATM    5  C   UNL     1      19.078  48.114  49.235  1.00  0.00     0.146 A 
HETATM    6  C   UNL     1      19.876  48.280  48.177  1.00  0.00     0.059 A 
ENDROOT
BRANCH   6   7
HETATM    7  C   UNL     1      20.082  47.342  47.057  1.00  0.00     0.193 C 
HETATM    8  O   UNL     1      19.434  47.488  46.025  1.00  0.00    -0.287 OA
BRANCH   7   9
HETATM    9  C   UNL     1      20.992  46.171  47.210  1.00  0.00     0.015 A 
HETATM   10  C   UNL     1      21.719  45.749  46.089  1.00  0.00     0.025 A 
HETATM   11  C   UNL     1      22.552  44.618  46.152  1.00  0.00    -0.028 A 
HETATM   12  C   UNL     1      23.309  44.180  44.928  1.00  0.00     0.051 C 
HETATM   13  C   UNL     1      22.661  43.901  47.356  1.00  0.00     0.074 A 
HETATM   14  C   UNL     1      21.921  44.312  48.467  1.00  0.00     0.038 A 
HETATM   15  C   UNL     1      21.084  45.430  48.392  1.00  0.00     0.018 A 
BRANCH  13  16
HETATM   16  O   UNL     1      23.495  42.815  47.330  1.00  0.00    -0.350 OA
BRANCH  16  17
HETATM   17  C   UNL     1      22.951  41.551  47.714  1.00  0.00     0.179 C 
BRANCH  17  18
HETATM   18  C   UNL     1      22.581  40.760  46.451  1.00  0.00     0.002 C 
HETATM   19  C   UNL     1      23.004  39.294  46.566  1.00  0.00     0.011 C 
HETATM   20  C   UNL     1      21.081  40.861  46.182  1.00  0.00     0.011 C 
ENDBRANCH  17  18
ENDBRANCH  16  17
ENDBRANCH  13  16
ENDBRANCH   7   9
ENDBRANCH   6   7
BRANCH   1  21
HETATM   21  C   UNL     1      22.072  49.572  48.350  1.00  0.00    -0.028 A 
HETATM   22  C   UNL     1      22.931  50.403  47.610  1.00  0.00     0.012 A 
HETATM   23  C   UNL     1      24.316  50.328  47.774  1.00  0.00     0.040 A 
HETATM   24  C   UNL     1      24.861  49.434  48.696  1.00  0.00     0.099 A 
HETATM   25  C   UNL     1      24.025  48.631  49.475  1.00  0.00     0.102 A 
HETATM   26  C   UNL     1      22.640  48.688  49.280  1.00  0.00     0.049 A 
BRANCH  24  27
HETATM   27  O   UNL     1      26.219  49.340  48.805  1.00  0.00    -0.358 OA
HETATM   28  H   UNL     1      26.620  50.208  48.639  1.00  0.00     0.218 HD
ENDBRANCH  24  27
BRANCH  25  29
HETATM   29  O   UNL     1      24.427  47.731  50.427  1.00  0.00    -0.349 OA
BRANCH  29  30
HETATM   30  C   UNL     1      24.502  46.373  49.982  1.00  0.00     0.171 C 
HETATM   31  C   UNL     1      25.968  45.988  49.886  1.00  0.00     0.034 C 
ENDBRANCH  29  30
ENDBRANCH  25  29
ENDBRANCH   1  21
BRANCH   5  32
HETATM   32  O   UNL     1      18.303  47.046  49.566  1.00  0.00    -0.355 OA
HETATM   33  H   UNL     1      18.161  47.088  50.532  1.00  0.00     0.218 HD
ENDBRANCH   5  32
BRANCH   2  34
HETATM   34  C   UNL     1      19.860  51.705  49.406  1.00  0.00     0.129 C 
BRANCH  34  35
HETATM   35  C   UNL     1      18.680  52.322  48.655  1.00  0.00     0.048 C 
BRANCH  35  36
HETATM   36  C   UNL     1      17.566  52.748  49.603  1.00  0.00     0.235 C 
BRANCH  36  37
HETATM   37  N   UNL     1      16.419  51.755  49.548  1.00  0.00    -0.079 N 
HETATM   38  H   UNL     1      16.595  51.027  50.253  1.00  0.00     0.278 HD
HETATM   39  C   UNL     1      15.091  52.385  49.886  1.00  0.00     0.269 C 
HETATM   40  C   UNL     1      16.361  51.051  48.219  1.00  0.00     0.269 C 
ENDBRANCH  36  37
ENDBRANCH  35  36
ENDBRANCH  34  35
ENDBRANCH   2  34
TORSDOF 14
ENDMDL
MODEL 9
REMARK VINA RESULT:      -7.6      3.329      9.229
REMARK  14 active torsions:
REMARK  status: ('A' for Active; 'I' for Inactive)
REMARK    1  A    between atoms: C_2  and  O_3 
REMARK    2  A    between atoms: O_3  and  C_4 
REMARK    3  A    between atoms: C_5  and  O_6 
REMARK    4  A    between atoms: C_9  and  C_10 
REMARK    5  A    between atoms: N_11  and  C_12 
REMARK    6  A    between atoms: C_12  and  C_13 
REMARK    7  A    between atoms: C_13  and  C_14 
REMARK    8  A    between atoms: C_14  and  N_15 
REMARK    9  A    between atoms: C_21  and  O_22 
REMARK   10  A    between atoms: C_23  and  C_24 
REMARK   11  A    between atoms: C_24  and  C_25 
REMARK   12  A    between atoms: C_29  and  O_30 
REMARK   13  A    between atoms: O_30  and  C_31 
REMARK   14  A    between atoms: C_31  and  C_32 
ROOT
HETATM    1  C   UNL     1      23.434  47.915  49.580  1.00  0.00     0.161 A 
HETATM    2  N   UNL     1      23.917  49.115  48.897  1.00  0.00    -0.333 N 
HETATM    3  C   UNL     1      25.285  49.059  48.706  1.00  0.00     0.278 A 
HETATM    4  O   UNL     1      26.007  49.887  48.179  1.00  0.00    -0.265 OA
HETATM    5  C   UNL     1      25.772  47.794  49.294  1.00  0.00     0.146 A 
HETATM    6  C   UNL     1      24.714  47.190  49.843  1.00  0.00     0.059 A 
ENDROOT
BRANCH   6   7
HETATM    7  C   UNL     1      24.713  45.973  50.677  1.00  0.00     0.193 C 
HETATM    8  O   UNL     1      23.916  45.075  50.426  1.00  0.00    -0.287 OA
BRANCH   7   9
HETATM    9  C   UNL     1      25.601  45.874  51.871  1.00  0.00     0.015 A 
HETATM   10  C   UNL     1      26.360  44.708  52.035  1.00  0.00     0.025 A 
HETATM   11  C   UNL     1      27.174  44.529  53.167  1.00  0.00    -0.028 A 
HETATM   12  C   UNL     1      27.966  43.259  53.323  1.00  0.00     0.051 C 
HETATM   13  C   UNL     1      27.231  45.534  54.148  1.00  0.00     0.074 A 
HETATM   14  C   UNL     1      26.460  46.688  53.992  1.00  0.00     0.038 A 
HETATM   15  C   UNL     1      25.642  46.853  52.869  1.00  0.00     0.018 A 
BRANCH  13  16
HETATM   16  O   UNL     1      28.050  45.280  55.216  1.00  0.00    -0.350 OA
BRANCH  16  17
HETATM   17  C   UNL     1      28.805  46.369  55.747  1.00  0.00     0.179 C 
BRANCH  17  18
HETATM   18  C   UNL     1      30.088  45.823  56.390  1.00  0.00     0.002 C 
HETATM   19  C   UNL     1      29.981  45.793  57.916  1.00  0.00     0.011 C 
HETATM   20  C   UNL     1      30.399  44.428  55.853  1.00  0.00     0.011 C 
ENDBRANCH  17  18
ENDBRANCH  16  17
ENDBRANCH  13  16
ENDBRANCH   7   9
ENDBRANCH   6   7
BRANCH   1  21
HETATM   21  C   UNL     1      22.433  47.191  48.697  1.00  0.00    -0.028 A 
HETATM   22  C   UNL     1      22.834  46.385  47.616  1.00  0.00     0.012 A 
HETATM   23  C   UNL     1      21.888  45.754  46.804  1.00  0.00     0.040 A 
HETATM   24  C   UNL     1      20.528  45.904  47.075  1.00  0.00     0.099 A 
HETATM   25  C   UNL     1      20.107  46.662  48.170  1.00  0.00     0.102 A 
HETATM   26  C   UNL     1      21.060  47.319  48.957  1.00  0.00     0.049 A 
BRANCH  24  27
HETATM   27  O   UNL     1      19.618  45.320  46.239  1.00  0.00    -0.358 OA
HETATM   28  H   UNL     1      18.964  44.831  46.763  1.00  0.00     0.218 HD
ENDBRANCH  24  27
BRANCH  25  29
HETATM   29  O   UNL     1      18.810  46.871  48.557  1.00  0.00    -0.349 OA
BRANCH  29  30
HETATM   30  C   UNL     1      18.623  47.934  49.496  1.00  0.00     0.171 C 
HETATM   31  C   UNL     1      17.538  48.852  48.960  1.00  0.00     0.034 C 
ENDBRANCH  29  30
ENDBRANCH  25  29
ENDBRANCH   1  21
BRANCH   5  32
HETATM   32  O   UNL     1      27.082  47.427  49.326  1.00  0.00    -0.355 OA
HETATM   33  H   UNL     1      27.172  46.761  50.036  1.00  0.00     0.218 HD
ENDBRANCH   5  32
BRANCH   2  34
HETATM   34  C   UNL     1      23.150  50.351  48.946  1.00  0.00     0.129 C 
BRANCH  34  35
HETATM   35  C   UNL     1      22.387  50.691  47.665  1.00  0.00     0.048 C 
BRANCH  35  36
HETATM   36  C   UNL     1      20.879  50.587  47.860  1.00  0.00     0.235 C 
BRANCH  36  37
HETATM   37  N   UNL     1      20.394  51.670  48.808  1.00  0.00    -0.079 N 
HETATM   38  H   UNL     1      21.151  52.359  48.915  1.00  0.00     0.278 HD
HETATM   39  C   UNL     1      19.193  52.410  48.275  1.00  0.00     0.269 C 
HETATM   40  C   UNL     1      20.125  51.120  50.183  1.00  0.00     0.269 C 
ENDBRANCH  36  37
ENDBRANCH  35  36
ENDBRANCH  34  35
ENDBRANCH   2  34
TORSDOF 14
ENDMDL
MODEL 10
REMARK VINA RESULT:      -7.5      2.675      8.907
REMARK  14 active torsions:
REMARK  status: ('A' for Active; 'I' for Inactive)
REMARK    1  A    between atoms: C_2  and  O_3 
REMARK    2  A    between atoms: O_3  and  C_4 
REMARK    3  A    between atoms: C_5  and  O_6 
REMARK    4  A    between atoms: C_9  and  C_10 
REMARK    5  A    between atoms: N_11  and  C_12 
REMARK    6  A    between atoms: C_12  and  C_13 
REMARK    7  A    between atoms: C_13  and  C_14 
REMARK    8  A    between atoms: C_14  and  N_15 
REMARK    9  A    between atoms: C_21  and  O_22 
REMARK   10  A    between atoms: C_23  and  C_24 
REMARK   11  A    between atoms: C_24  and  C_25 
REMARK   12  A    between atoms: C_29  and  O_30 
REMARK   13  A    between atoms: O_30  and  C_31 
REMARK   14  A    between atoms: C_31  and  C_32 
ROOT
HETATM    1  C   UNL     1      24.292  45.105  49.009  1.00  0.00     0.161 A 
HETATM    2  N   UNL     1      23.000  44.432  49.131  1.00  0.00    -0.333 N 
HETATM    3  C   UNL     1      22.982  43.587  50.226  1.00  0.00     0.278 A 
HETATM    4  O   UNL     1      22.074  42.875  50.615  1.00  0.00    -0.265 OA
HETATM    5  C   UNL     1      24.310  43.657  50.871  1.00  0.00     0.146 A 
HETATM    6  C   UNL     1      25.060  44.474  50.126  1.00  0.00     0.059 A 
ENDROOT
BRANCH   6   7
HETATM    7  C   UNL     1      26.502  44.748  50.274  1.00  0.00     0.193 C 
HETATM    8  O   UNL     1      27.197  44.862  49.270  1.00  0.00    -0.287 OA
BRANCH   7   9
HETATM    9  C   UNL     1      27.128  44.787  51.627  1.00  0.00     0.015 A 
HETATM   10  C   UNL     1      28.156  43.878  51.905  1.00  0.00     0.025 A 
HETATM   11  C   UNL     1      28.750  43.826  53.179  1.00  0.00    -0.028 A 
HETATM   12  C   UNL     1      29.842  42.828  53.453  1.00  0.00     0.051 C 
HETATM   13  C   UNL     1      28.310  44.700  54.187  1.00  0.00     0.074 A 
HETATM   14  C   UNL     1      27.272  45.594  53.913  1.00  0.00     0.038 A 
HETATM   15  C   UNL     1      26.677  45.630  52.647  1.00  0.00     0.018 A 
BRANCH  13  16
HETATM   16  O   UNL     1      28.943  44.585  55.395  1.00  0.00    -0.350 OA
BRANCH  16  17
HETATM   17  C   UNL     1      29.486  45.772  55.976  1.00  0.00     0.179 C 
BRANCH  17  18
HETATM   18  C   UNL     1      30.622  45.386  56.935  1.00  0.00     0.002 C 
HETATM   19  C   UNL     1      30.189  45.517  58.397  1.00  0.00     0.011 C 
HETATM   20  C   UNL     1      31.099  43.964  56.649  1.00  0.00     0.011 C 
ENDBRANCH  17  18
ENDBRANCH  16  17
ENDBRANCH  13  16
ENDBRANCH   7   9
ENDBRANCH   6   7
BRANCH   1  21
HETATM   21  C   UNL     1      24.098  46.607  49.105  1.00  0.00    -0.028 A 
HETATM   22  C   UNL     1      25.179  47.492  49.271  1.00  0.00     0.012 A 
HETATM   23  C   UNL     1      24.966  48.868  49.384  1.00  0.00     0.040 A 
HETATM   24  C   UNL     1      23.670  49.381  49.312  1.00  0.00     0.099 A 
HETATM   25  C   UNL     1      22.586  48.526  49.102  1.00  0.00     0.102 A 
HETATM   26  C   UNL     1      22.804  47.146  49.024  1.00  0.00     0.049 A 
BRANCH  24  27
HETATM   27  O   UNL     1      23.478  50.724  49.475  1.00  0.00    -0.358 OA
HETATM   28  H   UNL     1      24.192  51.210  49.034  1.00  0.00     0.218 HD
ENDBRANCH  24  27
BRANCH  25  29
HETATM   29  O   UNL     1      21.273  48.899  48.991  1.00  0.00    -0.349 OA
BRANCH  29  30
HETATM   30  C   UNL     1      20.948  49.621  47.798  1.00  0.00     0.171 C 
HETATM   31  C   UNL     1      20.176  50.866  48.196  1.00  0.00     0.034 C 
ENDBRANCH  29  30
ENDBRANCH  25  29
ENDBRANCH   1  21
BRANCH   5  32
HETATM   32  O   UNL     1      24.666  42.919  51.958  1.00  0.00    -0.355 OA
HETATM   33  H   UNL     1      25.619  43.076  52.106  1.00  0.00     0.218 HD
ENDBRANCH   5  32
BRANCH   2  34
HETATM   34  C   UNL     1      22.133  44.281  47.972  1.00  0.00     0.129 C 
BRANCH  34  35
HETATM   35  C   UNL     1      22.786  43.620  46.757  1.00  0.00     0.048 C 
BRANCH  35  36
HETATM   36  C   UNL     1      23.133  42.161  47.025  1.00  0.00     0.235 C 
BRANCH  36  37
HETATM   37  N   UNL     1      24.632  41.946  46.913  1.00  0.00    -0.079 N 
HETATM   38  H   UNL     1      25.079  42.869  46.833  1.00  0.00     0.278 HD
HETATM   39  C   UNL     1      25.214  41.276  48.132  1.00  0.00     0.269 C 
HETATM   40  C   UNL     1      24.989  41.192  45.660  1.00  0.00     0.269 C 
ENDBRANCH  36  37
ENDBRANCH  35  36
ENDBRANCH  34  35
ENDBRANCH   2  34
TORSDOF 14
ENDMDL
