MODEL 1
REMARK VINA RESULT:     -10.1      0.000      0.000
REMARK  2 active torsions:
REMARK  status: ('A' for Active; 'I' for Inactive)
REMARK    1  A    between atoms: C_4  and  N_5 
REMARK    2  A    between atoms: C_12  and  C_13 
ROOT
HETATM    1  N   UNL     1      25.446  47.365  50.698  1.00  0.00    -0.236 N 
HETATM    2  N   UNL     1      24.038  47.488  50.691  1.00  0.00    -0.179 NA
HETATM    3  C   UNL     1      23.739  48.412  49.709  1.00  0.00     0.119 A 
HETATM    4  C   UNL     1      24.837  48.838  49.062  1.00  0.00     0.123 A 
HETATM    5  C   UNL     1      25.990  48.172  49.686  1.00  0.00     0.280 A 
HETATM    6  O   UNL     1      27.153  48.337  49.362  1.00  0.00    -0.265 OA
HETATM    7  N   UNL     1      22.505  48.918  49.406  1.00  0.00    -0.344 N 
HETATM    8  C   UNL     1      22.328  49.893  48.447  1.00  0.00     0.049 A 
HETATM    9  C   UNL     1      23.365  50.387  47.743  1.00  0.00     0.086 A 
HETATM   10  C   UNL     1      24.736  49.856  48.014  1.00  0.00     0.193 A 
HETATM   11  O   UNL     1      25.690  50.279  47.376  1.00  0.00    -0.287 OA
HETATM   12  H   UNL     1      23.674  47.797  51.593  1.00  0.00     0.155 HD
HETATM   13  H   UNL     1      21.697  48.560  49.902  1.00  0.00     0.167 HD
ENDROOT
BRANCH   8  14
HETATM   14  C   UNL     1      20.958  50.396  48.205  1.00  0.00     0.012 A 
HETATM   15  C   UNL     1      19.970  49.651  47.535  1.00  0.00     0.046 A 
HETATM   16 CL   UNL     1      20.264  48.050  46.941  1.00  0.00    -0.083 Cl
HETATM   17  C   UNL     1      18.692  50.182  47.333  1.00  0.00     0.025 A 
HETATM   18  C   UNL     1      18.379  51.459  47.795  1.00  0.00     0.002 A 
HETATM   19  C   UNL     1      19.346  52.210  48.459  1.00  0.00     0.001 A 
HETATM   20  C   UNL     1      20.624  51.685  48.659  1.00  0.00     0.015 A 
ENDBRANCH   8  14
BRANCH   1  21
HETATM   21  C   UNL     1      26.090  46.505  51.615  1.00  0.00     0.055 A 
HETATM   22  C   UNL     1      26.255  46.866  52.958  1.00  0.00     0.031 A 
HETATM   23  C   UNL     1      26.879  46.003  53.865  1.00  0.00     0.002 A 
HETATM   24  C   UNL     1      27.350  44.764  53.442  1.00  0.00     0.000 A 
HETATM   25  C   UNL     1      27.204  44.390  52.110  1.00  0.00     0.002 A 
HETATM   26  C   UNL     1      26.580  45.254  51.204  1.00  0.00     0.031 A 
ENDBRANCH   1  21
TORSDOF 2
ENDMDL
MODEL 2
REMARK VINA RESULT:      -9.4      1.937      7.790
REMARK  2 active torsions:
REMARK  status: ('A' for Active; 'I' for Inactive)
REMARK    1  A    between atoms: C_4  and  N_5 
REMARK    2  A    between atoms: C_12  and  C_13 
ROOT
HETATM    1  N   UNL     1      22.290  49.689  48.600  1.00  0.00    -0.236 N 
HETATM    2  N   UNL     1      22.369  48.677  49.583  1.00  0.00    -0.179 NA
HETATM    3  C   UNL     1      23.711  48.373  49.713  1.00  0.00     0.119 A 
HETATM    4  C   UNL     1      24.483  49.149  48.934  1.00  0.00     0.123 A 
HETATM    5  C   UNL     1      23.584  50.033  48.179  1.00  0.00     0.280 A 
HETATM    6  O   UNL     1      23.942  50.861  47.359  1.00  0.00    -0.265 OA
HETATM    7  N   UNL     1      24.257  47.384  50.484  1.00  0.00    -0.344 N 
HETATM    8  C   UNL     1      25.612  47.123  50.487  1.00  0.00     0.049 A 
HETATM    9  C   UNL     1      26.471  47.844  49.740  1.00  0.00     0.086 A 
HETATM   10  C   UNL     1      25.935  48.953  48.895  1.00  0.00     0.193 A 
HETATM   11  O   UNL     1      26.699  49.630  48.221  1.00  0.00    -0.287 OA
HETATM   12  H   UNL     1      21.840  47.844  49.321  1.00  0.00     0.155 HD
HETATM   13  H   UNL     1      23.646  46.832  51.072  1.00  0.00     0.167 HD
ENDROOT
BRANCH   8  14
HETATM   14  C   UNL     1      26.108  46.018  51.335  1.00  0.00     0.012 A 
HETATM   15  C   UNL     1      26.193  46.100  52.737  1.00  0.00     0.046 A 
HETATM   16 CL   UNL     1      25.701  47.512  53.612  1.00  0.00    -0.083 Cl
HETATM   17  C   UNL     1      26.675  45.021  53.487  1.00  0.00     0.025 A 
HETATM   18  C   UNL     1      27.078  43.847  52.852  1.00  0.00     0.002 A 
HETATM   19  C   UNL     1      27.002  43.751  51.465  1.00  0.00     0.001 A 
HETATM   20  C   UNL     1      26.525  44.827  50.713  1.00  0.00     0.015 A 
ENDBRANCH   8  14
BRANCH   1  21
HETATM   21  C   UNL     1      21.040  50.214  48.205  1.00  0.00     0.055 A 
HETATM   22  C   UNL     1      20.219  49.535  47.296  1.00  0.00     0.031 A 
HETATM   23  C   UNL     1      18.974  50.053  46.922  1.00  0.00     0.002 A 
HETATM   24  C   UNL     1      18.531  51.260  47.451  1.00  0.00     0.000 A 
HETATM   25  C   UNL     1      19.334  51.955  48.350  1.00  0.00     0.002 A 
HETATM   26  C   UNL     1      20.579  51.437  48.723  1.00  0.00     0.031 A 
ENDBRANCH   1  21
TORSDOF 2
ENDMDL
MODEL 3
REMARK VINA RESULT:      -9.3      3.532      5.566
REMARK  2 active torsions:
REMARK  status: ('A' for Active; 'I' for Inactive)
REMARK    1  A    between atoms: C_4  and  N_5 
REMARK    2  A    between atoms: C_12  and  C_13 
ROOT
HETATM    1  N   UNL     1      27.635  45.574  54.494  1.00  0.00    -0.236 N 
HETATM    2  N   UNL     1      27.456  46.791  53.800  1.00  0.00    -0.179 NA
HETATM    3  C   UNL     1      26.500  46.545  52.833  1.00  0.00     0.119 A 
HETATM    4  C   UNL     1      26.025  45.290  52.899  1.00  0.00     0.123 A 
HETATM    5  C   UNL     1      26.751  44.611  53.983  1.00  0.00     0.280 A 
HETATM    6  O   UNL     1      26.588  43.450  54.314  1.00  0.00    -0.265 OA
HETATM    7  N   UNL     1      26.074  47.408  51.861  1.00  0.00    -0.344 N 
HETATM    8  C   UNL     1      25.159  47.033  50.899  1.00  0.00     0.049 A 
HETATM    9  C   UNL     1      24.624  45.797  50.878  1.00  0.00     0.086 A 
HETATM   10  C   UNL     1      25.035  44.817  51.928  1.00  0.00     0.193 A 
HETATM   11  O   UNL     1      24.550  43.693  51.937  1.00  0.00    -0.287 OA
HETATM   12  H   UNL     1      28.321  47.120  53.369  1.00  0.00     0.155 HD
HETATM   13  H   UNL     1      26.441  48.352  51.854  1.00  0.00     0.167 HD
ENDROOT
BRANCH   8  14
HETATM   14  C   UNL     1      24.776  48.028  49.875  1.00  0.00     0.012 A 
HETATM   15  C   UNL     1      25.712  48.788  49.149  1.00  0.00     0.046 A 
HETATM   16 CL   UNL     1      27.420  48.611  49.375  1.00  0.00    -0.083 Cl
HETATM   17  C   UNL     1      25.287  49.718  48.194  1.00  0.00     0.025 A 
HETATM   18  C   UNL     1      23.928  49.905  47.949  1.00  0.00     0.002 A 
HETATM   19  C   UNL     1      22.989  49.163  48.661  1.00  0.00     0.001 A 
HETATM   20  C   UNL     1      23.408  48.236  49.617  1.00  0.00     0.015 A 
ENDBRANCH   8  14
BRANCH   1  21
HETATM   21  C   UNL     1      28.574  45.474  55.544  1.00  0.00     0.055 A 
HETATM   22  C   UNL     1      28.406  46.182  56.741  1.00  0.00     0.031 A 
HETATM   23  C   UNL     1      29.332  46.065  57.783  1.00  0.00     0.002 A 
HETATM   24  C   UNL     1      30.442  45.239  57.645  1.00  0.00     0.000 A 
HETATM   25  C   UNL     1      30.632  44.533  56.461  1.00  0.00     0.002 A 
HETATM   26  C   UNL     1      29.706  44.651  55.419  1.00  0.00     0.031 A 
ENDBRANCH   1  21
TORSDOF 2
ENDMDL
MODEL 4
REMARK VINA RESULT:      -9.1      3.272      8.853
REMARK  2 active torsions:
REMARK  status: ('A' for Active; 'I' for Inactive)
REMARK    1  A    between atoms: C_4  and  N_5 
REMARK    2  A    between atoms: C_12  and  C_13 
ROOT
HETATM    1  N   UNL     1      24.459  47.338  50.037  1.00  0.00    -0.236 N 
HETATM    2  N   UNL     1      25.618  47.572  50.811  1.00  0.00    -0.179 NA
HETATM    3  C   UNL     1      25.902  46.378  51.446  1.00  0.00     0.119 A 
HETATM    4  C   UNL     1      25.050  45.401  51.092  1.00  0.00     0.123 A 
HETATM    5  C   UNL     1      24.078  45.993  50.162  1.00  0.00     0.280 A 
HETATM    6  O   UNL     1      23.145  45.397  49.651  1.00  0.00    -0.265 OA
HETATM    7  N   UNL     1      26.883  46.154  52.372  1.00  0.00    -0.344 N 
HETATM    8  C   UNL     1      27.036  44.933  52.997  1.00  0.00     0.049 A 
HETATM    9  C   UNL     1      26.232  43.890  52.712  1.00  0.00     0.086 A 
HETATM   10  C   UNL     1      25.156  44.068  51.691  1.00  0.00     0.193 A 
HETATM   11  O   UNL     1      24.424  43.129  51.406  1.00  0.00    -0.287 OA
HETATM   12  H   UNL     1      25.480  48.315  51.496  1.00  0.00     0.155 HD
HETATM   13  H   UNL     1      27.518  46.909  52.600  1.00  0.00     0.167 HD
ENDROOT
BRANCH   8  14
HETATM   14  C   UNL     1      28.111  44.793  54.002  1.00  0.00     0.012 A 
HETATM   15  C   UNL     1      28.320  45.717  55.043  1.00  0.00     0.046 A 
HETATM   16 CL   UNL     1      27.313  47.110  55.257  1.00  0.00    -0.083 Cl
HETATM   17  C   UNL     1      29.358  45.533  55.962  1.00  0.00     0.025 A 
HETATM   18  C   UNL     1      30.201  44.427  55.860  1.00  0.00     0.002 A 
HETATM   19  C   UNL     1      30.009  43.504  54.835  1.00  0.00     0.001 A 
HETATM   20  C   UNL     1      28.976  43.687  53.912  1.00  0.00     0.015 A 
ENDBRANCH   8  14
BRANCH   1  21
HETATM   21  C   UNL     1      23.882  48.376  49.272  1.00  0.00     0.055 A 
HETATM   22  C   UNL     1      22.494  48.471  49.106  1.00  0.00     0.031 A 
HETATM   23  C   UNL     1      21.928  49.512  48.362  1.00  0.00     0.002 A 
HETATM   24  C   UNL     1      22.741  50.473  47.770  1.00  0.00     0.000 A 
HETATM   25  C   UNL     1      24.122  50.391  47.916  1.00  0.00     0.002 A 
HETATM   26  C   UNL     1      24.688  49.350  48.660  1.00  0.00     0.031 A 
ENDBRANCH   1  21
TORSDOF 2
ENDMDL
MODEL 5
REMARK VINA RESULT:      -8.9      2.850      4.294
REMARK  2 active torsions:
REMARK  status: ('A' for Active; 'I' for Inactive)
REMARK    1  A    between atoms: C_4  and  N_5 
REMARK    2  A    between atoms: C_12  and  C_13 
ROOT
HETATM    1  N   UNL     1      26.901  44.643  52.049  1.00  0.00    -0.236 N 
HETATM    2  N   UNL     1      26.595  46.018  51.942  1.00  0.00    -0.179 NA
HETATM    3  C   UNL     1      25.537  46.108  51.057  1.00  0.00     0.119 A 
HETATM    4  C   UNL     1      25.119  44.899  50.644  1.00  0.00     0.123 A 
HETATM    5  C   UNL     1      25.996  43.901  51.274  1.00  0.00     0.280 A 
HETATM    6  O   UNL     1      25.917  42.696  51.108  1.00  0.00    -0.265 OA
HETATM    7  N   UNL     1      24.964  47.252  50.576  1.00  0.00    -0.344 N 
HETATM    8  C   UNL     1      23.952  47.227  49.639  1.00  0.00     0.049 A 
HETATM    9  C   UNL     1      23.463  46.066  49.160  1.00  0.00     0.086 A 
HETATM   10  C   UNL     1      24.034  44.782  49.666  1.00  0.00     0.193 A 
HETATM   11  O   UNL     1      23.595  43.715  49.256  1.00  0.00    -0.287 OA
HETATM   12  H   UNL     1      27.388  46.564  51.604  1.00  0.00     0.155 HD
HETATM   13  H   UNL     1      25.293  48.145  50.925  1.00  0.00     0.167 HD
ENDROOT
BRANCH   8  14
HETATM   14  C   UNL     1      23.410  48.517  49.161  1.00  0.00     0.012 A 
HETATM   15  C   UNL     1      24.218  49.556  48.663  1.00  0.00     0.046 A 
HETATM   16 CL   UNL     1      25.940  49.411  48.544  1.00  0.00    -0.083 Cl
HETATM   17  C   UNL     1      23.647  50.757  48.229  1.00  0.00     0.025 A 
HETATM   18  C   UNL     1      22.266  50.940  48.283  1.00  0.00     0.002 A 
HETATM   19  C   UNL     1      21.453  49.923  48.775  1.00  0.00     0.001 A 
HETATM   20  C   UNL     1      22.019  48.724  49.213  1.00  0.00     0.015 A 
ENDBRANCH   8  14
BRANCH   1  21
HETATM   21  C   UNL     1      27.965  44.203  52.867  1.00  0.00     0.055 A 
HETATM   22  C   UNL     1      28.921  43.296  52.392  1.00  0.00     0.031 A 
HETATM   23  C   UNL     1      29.982  42.878  53.202  1.00  0.00     0.002 A 
HETATM   24  C   UNL     1      30.103  43.358  54.502  1.00  0.00     0.000 A 
HETATM   25  C   UNL     1      29.159  44.253  54.996  1.00  0.00     0.002 A 
HETATM   26  C   UNL     1      28.098  44.671  54.185  1.00  0.00     0.031 A 
ENDBRANCH   1  21
TORSDOF 2
ENDMDL
MODEL 6
REMARK VINA RESULT:      -8.6      4.343      6.741
REMARK  2 active torsions:
REMARK  status: ('A' for Active; 'I' for Inactive)
REMARK    1  A    between atoms: C_4  and  N_5 
REMARK    2  A    between atoms: C_12  and  C_13 
ROOT
HETATM    1  N   UNL     1      29.031  44.126  54.328  1.00  0.00    -0.236 N 
HETATM    2  N   UNL     1      28.002  45.053  54.048  1.00  0.00    -0.179 NA
HETATM    3  C   UNL     1      27.447  44.658  52.846  1.00  0.00     0.119 A 
HETATM    4  C   UNL     1      28.006  43.530  52.376  1.00  0.00     0.123 A 
HETATM    5  C   UNL     1      29.061  43.145  53.325  1.00  0.00     0.280 A 
HETATM    6  O   UNL     1      29.790  42.175  53.205  1.00  0.00    -0.265 OA
HETATM    7  N   UNL     1      26.478  45.311  52.135  1.00  0.00    -0.344 N 
HETATM    8  C   UNL     1      26.043  44.862  50.905  1.00  0.00     0.049 A 
HETATM    9  C   UNL     1      26.541  43.741  50.347  1.00  0.00     0.086 A 
HETATM   10  C   UNL     1      27.587  42.973  51.087  1.00  0.00     0.193 A 
HETATM   11  O   UNL     1      28.043  41.944  50.606  1.00  0.00    -0.287 OA
HETATM   12  H   UNL     1      28.351  46.009  53.981  1.00  0.00     0.155 HD
HETATM   13  H   UNL     1      26.066  46.149  52.530  1.00  0.00     0.167 HD
ENDROOT
BRANCH   8  14
HETATM   14  C   UNL     1      25.007  45.648  50.201  1.00  0.00     0.012 A 
HETATM   15  C   UNL     1      25.119  47.030  49.960  1.00  0.00     0.046 A 
HETATM   16 CL   UNL     1      26.504  47.945  50.454  1.00  0.00    -0.083 Cl
HETATM   17  C   UNL     1      24.102  47.721  49.291  1.00  0.00     0.025 A 
HETATM   18  C   UNL     1      22.964  47.047  48.853  1.00  0.00     0.002 A 
HETATM   19  C   UNL     1      22.837  45.680  49.085  1.00  0.00     0.001 A 
HETATM   20  C   UNL     1      23.847  44.987  49.756  1.00  0.00     0.015 A 
ENDBRANCH   8  14
BRANCH   1  21
HETATM   21  C   UNL     1      29.825  44.259  55.488  1.00  0.00     0.055 A 
HETATM   22  C   UNL     1      29.699  45.369  56.333  1.00  0.00     0.031 A 
HETATM   23  C   UNL     1      30.476  45.486  57.490  1.00  0.00     0.002 A 
HETATM   24  C   UNL     1      31.394  44.494  57.821  1.00  0.00     0.000 A 
HETATM   25  C   UNL     1      31.540  43.387  56.990  1.00  0.00     0.002 A 
HETATM   26  C   UNL     1      30.763  43.271  55.833  1.00  0.00     0.031 A 
ENDBRANCH   1  21
TORSDOF 2
ENDMDL
MODEL 7
REMARK VINA RESULT:      -8.6      8.015      9.971
REMARK  2 active torsions:
REMARK  status: ('A' for Active; 'I' for Inactive)
REMARK    1  A    between atoms: C_4  and  N_5 
REMARK    2  A    between atoms: C_12  and  C_13 
ROOT
HETATM    1  N   UNL     1      28.411  43.097  53.279  1.00  0.00    -0.236 N 
HETATM    2  N   UNL     1      29.007  42.089  52.488  1.00  0.00    -0.179 NA
HETATM    3  C   UNL     1      28.037  41.681  51.592  1.00  0.00     0.119 A 
HETATM    4  C   UNL     1      26.900  42.387  51.720  1.00  0.00     0.123 A 
HETATM    5  C   UNL     1      27.104  43.333  52.827  1.00  0.00     0.280 A 
HETATM    6  O   UNL     1      26.270  44.123  53.234  1.00  0.00    -0.265 OA
HETATM    7  N   UNL     1      28.131  40.659  50.689  1.00  0.00    -0.344 N 
HETATM    8  C   UNL     1      27.071  40.291  49.885  1.00  0.00     0.049 A 
HETATM    9  C   UNL     1      25.889  40.935  49.938  1.00  0.00     0.086 A 
HETATM   10  C   UNL     1      25.734  42.076  50.890  1.00  0.00     0.193 A 
HETATM   11  O   UNL     1      24.673  42.685  50.944  1.00  0.00    -0.287 OA
HETATM   12  H   UNL     1      29.328  41.299  53.047  1.00  0.00     0.155 HD
HETATM   13  H   UNL     1      29.010  40.161  50.607  1.00  0.00     0.167 HD
ENDROOT
BRANCH   8  14
HETATM   14  C   UNL     1      27.261  39.157  48.955  1.00  0.00     0.012 A 
HETATM   15  C   UNL     1      27.782  39.303  47.657  1.00  0.00     0.046 A 
HETATM   16 CL   UNL     1      28.274  40.840  47.026  1.00  0.00    -0.083 Cl
HETATM   17  C   UNL     1      27.934  38.192  46.820  1.00  0.00     0.025 A 
HETATM   18  C   UNL     1      27.571  36.921  47.265  1.00  0.00     0.002 A 
HETATM   19  C   UNL     1      27.051  36.760  48.547  1.00  0.00     0.001 A 
HETATM   20  C   UNL     1      26.894  37.867  49.383  1.00  0.00     0.015 A 
ENDBRANCH   8  14
BRANCH   1  21
HETATM   21  C   UNL     1      29.134  43.716  54.322  1.00  0.00     0.055 A 
HETATM   22  C   UNL     1      30.201  43.065  54.954  1.00  0.00     0.031 A 
HETATM   23  C   UNL     1      30.924  43.691  55.975  1.00  0.00     0.002 A 
HETATM   24  C   UNL     1      30.590  44.979  56.382  1.00  0.00     0.000 A 
HETATM   25  C   UNL     1      29.529  45.640  55.772  1.00  0.00     0.002 A 
HETATM   26  C   UNL     1      28.806  45.013  54.751  1.00  0.00     0.031 A 
ENDBRANCH   1  21
TORSDOF 2
ENDMDL
MODEL 8
REMARK VINA RESULT:      -8.5      4.215      6.449
REMARK  2 active torsions:
REMARK  status: ('A' for Active; 'I' for Inactive)
REMARK    1  A    between atoms: C_4  and  N_5 
REMARK    2  A    between atoms: C_12  and  C_13 
ROOT
HETATM    1  N   UNL     1      27.197  42.038  50.066  1.00  0.00    -0.236 N 
HETATM    2  N   UNL     1      26.804  43.027  49.137  1.00  0.00    -0.179 NA
HETATM    3  C   UNL     1      26.589  44.179  49.871  1.00  0.00     0.119 A 
HETATM    4  C   UNL     1      26.868  44.008  51.174  1.00  0.00     0.123 A 
HETATM    5  C   UNL     1      27.272  42.605  51.348  1.00  0.00     0.280 A 
HETATM    6  O   UNL     1      27.580  42.092  52.410  1.00  0.00    -0.265 OA
HETATM    7  N   UNL     1      26.105  45.370  49.406  1.00  0.00    -0.344 N 
HETATM    8  C   UNL     1      25.863  46.440  50.243  1.00  0.00     0.049 A 
HETATM    9  C   UNL     1      26.109  46.369  51.566  1.00  0.00     0.086 A 
HETATM   10  C   UNL     1      26.660  45.099  52.129  1.00  0.00     0.193 A 
HETATM   11  O   UNL     1      26.905  45.019  53.325  1.00  0.00    -0.287 OA
HETATM   12  H   UNL     1      25.958  42.766  48.631  1.00  0.00     0.155 HD
HETATM   13  H   UNL     1      25.924  45.468  48.414  1.00  0.00     0.167 HD
ENDROOT
BRANCH   8  14
HETATM   14  C   UNL     1      25.318  47.680  49.652  1.00  0.00     0.012 A 
HETATM   15  C   UNL     1      26.125  48.687  49.091  1.00  0.00     0.046 A 
HETATM   16 CL   UNL     1      27.851  48.557  49.023  1.00  0.00    -0.083 Cl
HETATM   17  C   UNL     1      25.550  49.842  48.550  1.00  0.00     0.025 A 
HETATM   18  C   UNL     1      24.166  50.010  48.559  1.00  0.00     0.002 A 
HETATM   19  C   UNL     1      23.353  49.024  49.112  1.00  0.00     0.001 A 
HETATM   20  C   UNL     1      23.924  47.871  49.657  1.00  0.00     0.015 A 
ENDBRANCH   8  14
BRANCH   1  21
HETATM   21  C   UNL     1      27.473  40.719  49.641  1.00  0.00     0.055 A 
HETATM   22  C   UNL     1      28.633  40.415  48.918  1.00  0.00     0.031 A 
HETATM   23  C   UNL     1      28.908  39.104  48.516  1.00  0.00     0.002 A 
HETATM   24  C   UNL     1      28.025  38.075  48.828  1.00  0.00     0.000 A 
HETATM   25  C   UNL     1      26.863  38.358  49.539  1.00  0.00     0.002 A 
HETATM   26  C   UNL     1      26.588  39.670  49.941  1.00  0.00     0.031 A 
ENDBRANCH   1  21
TORSDOF 2
ENDMDL
MODEL 9
REMARK VINA RESULT:      -8.5      8.119     10.124
REMARK  2 active torsions:
REMARK  status: ('A' for Active; 'I' for Inactive)
REMARK    1  A    between atoms: C_4  and  N_5 
REMARK    2  A    between atoms: C_12  and  C_13 
ROOT
HETATM    1  N   UNL     1      29.408  43.708  54.451  1.00  0.00    -0.236 N 
HETATM    2  N   UNL     1      29.922  42.622  53.708  1.00  0.00    -0.179 NA
HETATM    3  C   UNL     1      29.089  42.478  52.614  1.00  0.00     0.119 A 
HETATM    4  C   UNL     1      28.129  43.418  52.581  1.00  0.00     0.123 A 
HETATM    5  C   UNL     1      28.302  44.252  53.780  1.00  0.00     0.280 A 
HETATM    6  O   UNL     1      27.592  45.195  54.084  1.00  0.00    -0.265 OA
HETATM    7  N   UNL     1      29.143  41.495  51.665  1.00  0.00    -0.344 N 
HETATM    8  C   UNL     1      28.214  41.406  50.648  1.00  0.00     0.049 A 
HETATM    9  C   UNL     1      27.213  42.300  50.528  1.00  0.00     0.086 A 
HETATM   10  C   UNL     1      27.116  43.410  51.523  1.00  0.00     0.193 A 
HETATM   11  O   UNL     1      26.223  44.241  51.424  1.00  0.00    -0.287 OA
HETATM   12  H   UNL     1      29.945  41.759  54.252  1.00  0.00     0.155 HD
HETATM   13  H   UNL     1      29.892  40.814  51.711  1.00  0.00     0.167 HD
ENDROOT
BRANCH   8  14
HETATM   14  C   UNL     1      28.340  40.294  49.682  1.00  0.00     0.012 A 
HETATM   15  C   UNL     1      28.915  39.052  50.006  1.00  0.00     0.046 A 
HETATM   16 CL   UNL     1      29.518  38.698  51.592  1.00  0.00    -0.083 Cl
HETATM   17  C   UNL     1      29.011  38.038  49.047  1.00  0.00     0.025 A 
HETATM   18  C   UNL     1      28.535  38.246  47.753  1.00  0.00     0.002 A 
HETATM   19  C   UNL     1      27.965  39.471  47.415  1.00  0.00     0.001 A 
HETATM   20  C   UNL     1      27.872  40.487  48.369  1.00  0.00     0.015 A 
ENDBRANCH   8  14
BRANCH   1  21
HETATM   21  C   UNL     1      30.021  44.108  55.659  1.00  0.00     0.055 A 
HETATM   22  C   UNL     1      31.018  43.331  56.261  1.00  0.00     0.031 A 
HETATM   23  C   UNL     1      31.633  43.743  57.449  1.00  0.00     0.002 A 
HETATM   24  C   UNL     1      31.258  44.937  58.055  1.00  0.00     0.000 A 
HETATM   25  C   UNL     1      30.262  45.719  57.477  1.00  0.00     0.002 A 
HETATM   26  C   UNL     1      29.648  45.307  56.290  1.00  0.00     0.031 A 
ENDBRANCH   1  21
TORSDOF 2
ENDMDL
MODEL 10
REMARK VINA RESULT:      -8.2      7.885     10.371
REMARK  2 active torsions:
REMARK  status: ('A' for Active; 'I' for Inactive)
REMARK    1  A    between atoms: C_4  and  N_5 
REMARK    2  A    between atoms: C_12  and  C_13 
ROOT
HETATM    1  N   UNL     1      27.373  41.043  49.818  1.00  0.00    -0.236 N 
HETATM    2  N   UNL     1      28.462  41.143  50.713  1.00  0.00    -0.179 NA
HETATM    3  C   UNL     1      28.063  42.017  51.706  1.00  0.00     0.119 A 
HETATM    4  C   UNL     1      26.795  42.430  51.537  1.00  0.00     0.123 A 
HETATM    5  C   UNL     1      26.301  41.811  50.299  1.00  0.00     0.280 A 
HETATM    6  O   UNL     1      25.190  41.980  49.827  1.00  0.00    -0.265 OA
HETATM    7  N   UNL     1      28.825  42.490  52.739  1.00  0.00    -0.344 N 
HETATM    8  C   UNL     1      28.343  43.417  53.639  1.00  0.00     0.049 A 
HETATM    9  C   UNL     1      27.086  43.895  53.556  1.00  0.00     0.086 A 
HETATM   10  C   UNL     1      26.199  43.398  52.461  1.00  0.00     0.193 A 
HETATM   11  O   UNL     1      25.049  43.807  52.376  1.00  0.00    -0.287 OA
HETATM   12  H   UNL     1      29.306  41.487  50.255  1.00  0.00     0.155 HD
HETATM   13  H   UNL     1      29.770  42.141  52.845  1.00  0.00     0.167 HD
ENDROOT
BRANCH   8  14
HETATM   14  C   UNL     1      29.249  43.887  54.710  1.00  0.00     0.012 A 
HETATM   15  C   UNL     1      29.171  45.171  55.279  1.00  0.00     0.046 A 
HETATM   16 CL   UNL     1      27.980  46.328  54.787  1.00  0.00    -0.083 Cl
HETATM   17  C   UNL     1      30.060  45.560  56.287  1.00  0.00     0.025 A 
HETATM   18  C   UNL     1      31.037  44.676  56.742  1.00  0.00     0.002 A 
HETATM   19  C   UNL     1      31.130  43.402  56.188  1.00  0.00     0.001 A 
HETATM   20  C   UNL     1      30.247  43.012  55.179  1.00  0.00     0.015 A 
ENDBRANCH   8  14
BRANCH   1  21
HETATM   21  C   UNL     1      27.462  40.236  48.662  1.00  0.00     0.055 A 
HETATM   22  C   UNL     1      27.073  38.891  48.682  1.00  0.00     0.031 A 
HETATM   23  C   UNL     1      27.148  38.102  47.528  1.00  0.00     0.002 A 
HETATM   24  C   UNL     1      27.615  38.646  46.337  1.00  0.00     0.000 A 
HETATM   25  C   UNL     1      28.014  39.979  46.298  1.00  0.00     0.002 A 
HETATM   26  C   UNL     1      27.940  40.767  47.452  1.00  0.00     0.031 A 
ENDBRANCH   1  21
TORSDOF 2
ENDMDL
