MODEL 1
REMARK VINA RESULT:      -7.4      0.000      0.000
REMARK  9 active torsions:
REMARK  status: ('A' for Active; 'I' for Inactive)
REMARK    1  A    between atoms: C_2  and  N_3 
REMARK       I    between atoms: N_3  and  C_4 
REMARK    2  A    between atoms: C_4  and  C_5 
REMARK    3  A    between atoms: C_5  and  S_6 
REMARK    4  A    between atoms: S_6  and  C_7 
REMARK    5  A    between atoms: N_8  and  C_9 
REMARK    6  A    between atoms: C_9  and  C_10 
REMARK    7  A    between atoms: C_10  and  C_11 
REMARK    8  A    between atoms: C_17  and  C_18 
REMARK    9  A    between atoms: C_19  and  O_20 
ROOT
HETATM    1  C   UNL     1      22.769  48.076  49.240  1.00  0.00     0.192 A 
HETATM    2  N   UNL     1      21.494  48.493  48.962  1.00  0.00    -0.307 N 
HETATM    3  C   UNL     1      21.450  49.820  49.354  1.00  0.00     0.167 A 
HETATM    4  N   UNL     1      22.656  50.174  49.767  1.00  0.00    -0.128 NA
HETATM    5  N   UNL     1      23.481  49.086  49.683  1.00  0.00    -0.122 NA
ENDROOT
BRANCH   1   6
HETATM    6  S   UNL     1      23.329  46.450  49.075  1.00  0.00    -0.081 SA
BRANCH   6   7
HETATM    7  C   UNL     1      24.623  46.378  50.344  1.00  0.00     0.185 C 
BRANCH   7   8
HETATM    8  C   UNL     1      25.989  46.715  49.768  1.00  0.00     0.227 C 
HETATM    9  N   UNL     1      26.251  48.068  49.686  1.00  0.00    -0.361 N 
HETATM   10  H   UNL     1      25.722  48.669  50.323  1.00  0.00     0.162 HD
HETATM   11  O   UNL     1      26.773  45.850  49.385  1.00  0.00    -0.273 OA
BRANCH   9  12
HETATM   12  C   UNL     1      27.516  48.581  49.210  1.00  0.00     0.118 C 
HETATM   13  C   UNL     1      27.405  50.023  48.748  1.00  0.00     0.026 C 
ENDBRANCH   9  12
ENDBRANCH   7   8
ENDBRANCH   6   7
ENDBRANCH   1   6
BRANCH   2  14
HETATM   14  C   UNL     1      20.410  47.720  48.388  1.00  0.00     0.137 C 
BRANCH  14  15
HETATM   15  C   UNL     1      20.096  48.031  46.920  1.00  0.00     0.059 C 
BRANCH  15  16
HETATM   16  C   UNL     1      18.817  48.804  46.721  1.00  0.00    -0.057 A 
HETATM   17  C   UNL     1      18.707  49.747  45.692  1.00  0.00     0.007 A 
HETATM   18  C   UNL     1      17.517  50.455  45.508  1.00  0.00     0.001 A 
HETATM   19  C   UNL     1      16.432  50.230  46.352  1.00  0.00     0.000 A 
HETATM   20  C   UNL     1      16.535  49.300  47.384  1.00  0.00     0.001 A 
HETATM   21  C   UNL     1      17.721  48.590  47.568  1.00  0.00     0.007 A 
ENDBRANCH  15  16
ENDBRANCH  14  15
ENDBRANCH   2  14
BRANCH   3  22
HETATM   22  C   UNL     1      20.285  50.701  49.301  1.00  0.00     0.045 A 
HETATM   23  C   UNL     1      19.238  50.576  50.226  1.00  0.00     0.082 A 
HETATM   24  C   UNL     1      18.146  51.447  50.197  1.00  0.00     0.038 A 
HETATM   25  C   UNL     1      18.067  52.428  49.211  1.00  0.00     0.003 A 
HETATM   26  C   UNL     1      19.080  52.540  48.259  1.00  0.00     0.001 A 
HETATM   27  C   UNL     1      20.180  51.679  48.300  1.00  0.00     0.018 A 
BRANCH  23  28
HETATM   28  O   UNL     1      19.312  49.652  51.239  1.00  0.00    -0.355 OA
HETATM   29  C   UNL     1      18.303  48.654  51.067  1.00  0.00     0.210 C 
ENDBRANCH  23  28
ENDBRANCH   3  22
TORSDOF 9
ENDMDL
MODEL 2
REMARK VINA RESULT:      -7.4      4.302     10.149
REMARK  9 active torsions:
REMARK  status: ('A' for Active; 'I' for Inactive)
REMARK    1  A    between atoms: C_2  and  N_3 
REMARK       I    between atoms: N_3  and  C_4 
REMARK    2  A    between atoms: C_4  and  C_5 
REMARK    3  A    between atoms: C_5  and  S_6 
REMARK    4  A    between atoms: S_6  and  C_7 
REMARK    5  A    between atoms: N_8  and  C_9 
REMARK    6  A    between atoms: C_9  and  C_10 
REMARK    7  A    between atoms: C_10  and  C_11 
REMARK    8  A    between atoms: C_17  and  C_18 
REMARK    9  A    between atoms: C_19  and  O_20 
ROOT
HETATM    1  C   UNL     1      25.813  46.141  50.188  1.00  0.00     0.192 A 
HETATM    2  N   UNL     1      26.008  45.167  51.132  1.00  0.00    -0.307 N 
HETATM    3  C   UNL     1      27.197  44.552  50.781  1.00  0.00     0.167 A 
HETATM    4  N   UNL     1      27.702  45.184  49.734  1.00  0.00    -0.128 NA
HETATM    5  N   UNL     1      26.841  46.184  49.373  1.00  0.00    -0.122 NA
ENDROOT
BRANCH   1   6
HETATM    6  S   UNL     1      24.397  47.124  50.070  1.00  0.00    -0.081 SA
BRANCH   6   7
HETATM    7  C   UNL     1      25.045  48.601  49.239  1.00  0.00     0.185 C 
BRANCH   7   8
HETATM    8  C   UNL     1      23.975  49.288  48.406  1.00  0.00     0.227 C 
HETATM    9  N   UNL     1      22.686  49.080  48.857  1.00  0.00    -0.361 N 
HETATM   10  H   UNL     1      22.588  48.835  49.845  1.00  0.00     0.162 HD
HETATM   11  O   UNL     1      24.243  49.946  47.404  1.00  0.00    -0.273 OA
BRANCH   9  12
HETATM   12  C   UNL     1      21.540  49.692  48.223  1.00  0.00     0.118 C 
HETATM   13  C   UNL     1      21.217  51.048  48.824  1.00  0.00     0.026 C 
ENDBRANCH   9  12
ENDBRANCH   7   8
ENDBRANCH   6   7
ENDBRANCH   1   6
BRANCH   2  14
HETATM   14  C   UNL     1      25.157  44.836  52.258  1.00  0.00     0.137 C 
BRANCH  14  15
HETATM   15  C   UNL     1      25.109  45.890  53.369  1.00  0.00     0.059 C 
BRANCH  15  16
HETATM   16  C   UNL     1      26.412  46.057  54.108  1.00  0.00    -0.057 A 
HETATM   17  C   UNL     1      27.059  47.298  54.142  1.00  0.00     0.007 A 
HETATM   18  C   UNL     1      28.263  47.449  54.835  1.00  0.00     0.001 A 
HETATM   19  C   UNL     1      28.831  46.361  55.493  1.00  0.00     0.000 A 
HETATM   20  C   UNL     1      28.200  45.119  55.457  1.00  0.00     0.001 A 
HETATM   21  C   UNL     1      26.996  44.967  54.768  1.00  0.00     0.007 A 
ENDBRANCH  15  16
ENDBRANCH  14  15
ENDBRANCH   2  14
BRANCH   3  22
HETATM   22  C   UNL     1      27.817  43.415  51.458  1.00  0.00     0.045 A 
HETATM   23  C   UNL     1      27.320  42.113  51.291  1.00  0.00     0.082 A 
HETATM   24  C   UNL     1      27.942  41.023  51.908  1.00  0.00     0.038 A 
HETATM   25  C   UNL     1      29.042  41.230  52.736  1.00  0.00     0.003 A 
HETATM   26  C   UNL     1      29.523  42.521  52.944  1.00  0.00     0.001 A 
HETATM   27  C   UNL     1      28.912  43.608  52.313  1.00  0.00     0.018 A 
BRANCH  23  28
HETATM   28  O   UNL     1      26.269  41.873  50.443  1.00  0.00    -0.355 OA
HETATM   29  C   UNL     1      26.002  40.471  50.376  1.00  0.00     0.210 C 
ENDBRANCH  23  28
ENDBRANCH   3  22
TORSDOF 9
ENDMDL
MODEL 3
REMARK VINA RESULT:      -7.2      9.391     13.284
REMARK  9 active torsions:
REMARK  status: ('A' for Active; 'I' for Inactive)
REMARK    1  A    between atoms: C_2  and  N_3 
REMARK       I    between atoms: N_3  and  C_4 
REMARK    2  A    between atoms: C_4  and  C_5 
REMARK    3  A    between atoms: C_5  and  S_6 
REMARK    4  A    between atoms: S_6  and  C_7 
REMARK    5  A    between atoms: N_8  and  C_9 
REMARK    6  A    between atoms: C_9  and  C_10 
REMARK    7  A    between atoms: C_10  and  C_11 
REMARK    8  A    between atoms: C_17  and  C_18 
REMARK    9  A    between atoms: C_19  and  O_20 
ROOT
HETATM    1  C   UNL     1      26.449  49.573  38.542  1.00  0.00     0.192 A 
HETATM    2  N   UNL     1      27.290  49.739  39.610  1.00  0.00    -0.307 N 
HETATM    3  C   UNL     1      28.058  50.848  39.302  1.00  0.00     0.167 A 
HETATM    4  N   UNL     1      27.634  51.343  38.151  1.00  0.00    -0.128 NA
HETATM    5  N   UNL     1      26.621  50.551  37.684  1.00  0.00    -0.122 NA
ENDROOT
BRANCH   1   6
HETATM    6  S   UNL     1      25.365  48.243  38.341  1.00  0.00    -0.081 SA
BRANCH   6   7
HETATM    7  C   UNL     1      24.105  48.604  39.594  1.00  0.00     0.185 C 
BRANCH   7   8
HETATM    8  C   UNL     1      23.197  49.744  39.160  1.00  0.00     0.227 C 
HETATM    9  N   UNL     1      22.434  50.280  40.178  1.00  0.00    -0.361 N 
HETATM   10  H   UNL     1      22.792  50.149  41.126  1.00  0.00     0.162 HD
HETATM   11  O   UNL     1      23.137  50.130  37.994  1.00  0.00    -0.273 OA
BRANCH   9  12
HETATM   12  C   UNL     1      21.547  51.401  39.968  1.00  0.00     0.118 C 
HETATM   13  C   UNL     1      20.309  51.317  40.841  1.00  0.00     0.026 C 
ENDBRANCH   9  12
ENDBRANCH   7   8
ENDBRANCH   6   7
ENDBRANCH   1   6
BRANCH   2  14
HETATM   14  C   UNL     1      27.374  48.930  40.810  1.00  0.00     0.137 C 
BRANCH  14  15
HETATM   15  C   UNL     1      28.301  47.713  40.710  1.00  0.00     0.059 C 
BRANCH  15  16
HETATM   16  C   UNL     1      29.723  47.995  41.124  1.00  0.00    -0.057 A 
HETATM   17  C   UNL     1      29.999  48.647  42.333  1.00  0.00     0.007 A 
HETATM   18  C   UNL     1      31.318  48.899  42.715  1.00  0.00     0.001 A 
HETATM   19  C   UNL     1      32.371  48.508  41.891  1.00  0.00     0.000 A 
HETATM   20  C   UNL     1      32.107  47.867  40.682  1.00  0.00     0.001 A 
HETATM   21  C   UNL     1      30.790  47.612  40.300  1.00  0.00     0.007 A 
ENDBRANCH  15  16
ENDBRANCH  14  15
ENDBRANCH   2  14
BRANCH   3  22
HETATM   22  C   UNL     1      29.139  51.406  40.112  1.00  0.00     0.045 A 
HETATM   23  C   UNL     1      30.480  51.276  39.721  1.00  0.00     0.082 A 
HETATM   24  C   UNL     1      31.507  51.847  40.479  1.00  0.00     0.038 A 
HETATM   25  C   UNL     1      31.206  52.518  41.661  1.00  0.00     0.003 A 
HETATM   26  C   UNL     1      29.882  52.622  42.084  1.00  0.00     0.001 A 
HETATM   27  C   UNL     1      28.854  52.065  41.317  1.00  0.00     0.018 A 
BRANCH  23  28
HETATM   28  O   UNL     1      30.803  50.663  38.537  1.00  0.00    -0.355 OA
HETATM   29  C   UNL     1      32.031  51.190  38.030  1.00  0.00     0.210 C 
ENDBRANCH  23  28
ENDBRANCH   3  22
TORSDOF 9
ENDMDL
MODEL 4
REMARK VINA RESULT:      -7.0      7.866     10.830
REMARK  9 active torsions:
REMARK  status: ('A' for Active; 'I' for Inactive)
REMARK    1  A    between atoms: C_2  and  N_3 
REMARK       I    between atoms: N_3  and  C_4 
REMARK    2  A    between atoms: C_4  and  C_5 
REMARK    3  A    between atoms: C_5  and  S_6 
REMARK    4  A    between atoms: S_6  and  C_7 
REMARK    5  A    between atoms: N_8  and  C_9 
REMARK    6  A    between atoms: C_9  and  C_10 
REMARK    7  A    between atoms: C_10  and  C_11 
REMARK    8  A    between atoms: C_17  and  C_18 
REMARK    9  A    between atoms: C_19  and  O_20 
ROOT
HETATM    1  C   UNL     1      25.675  41.565  50.531  1.00  0.00     0.192 A 
HETATM    2  N   UNL     1      26.195  42.450  51.437  1.00  0.00    -0.307 N 
HETATM    3  C   UNL     1      25.467  43.616  51.269  1.00  0.00     0.167 A 
HETATM    4  N   UNL     1      24.526  43.393  50.365  1.00  0.00    -0.128 NA
HETATM    5  N   UNL     1      24.651  42.108  49.915  1.00  0.00    -0.122 NA
ENDROOT
BRANCH   1   6
HETATM    6  S   UNL     1      26.313  39.990  50.218  1.00  0.00    -0.081 SA
BRANCH   6   7
HETATM    7  C   UNL     1      27.529  40.339  48.918  1.00  0.00     0.185 C 
BRANCH   7   8
HETATM    8  C   UNL     1      28.599  39.261  48.850  1.00  0.00     0.227 C 
HETATM    9  N   UNL     1      29.194  38.976  50.063  1.00  0.00    -0.361 N 
HETATM   10  H   UNL     1      28.648  39.204  50.897  1.00  0.00     0.162 HD
HETATM   11  O   UNL     1      28.917  38.716  47.795  1.00  0.00    -0.273 OA
BRANCH   9  12
HETATM   12  C   UNL     1      30.198  37.947  50.205  1.00  0.00     0.118 C 
HETATM   13  C   UNL     1      29.862  36.978  51.324  1.00  0.00     0.026 C 
ENDBRANCH   9  12
ENDBRANCH   7   8
ENDBRANCH   6   7
ENDBRANCH   1   6
BRANCH   2  14
HETATM   14  C   UNL     1      27.280  42.231  52.373  1.00  0.00     0.137 C 
BRANCH  14  15
HETATM   15  C   UNL     1      28.508  43.124  52.165  1.00  0.00     0.059 C 
BRANCH  15  16
HETATM   16  C   UNL     1      29.158  43.576  53.448  1.00  0.00    -0.057 A 
HETATM   17  C   UNL     1      30.282  42.911  53.952  1.00  0.00     0.007 A 
HETATM   18  C   UNL     1      30.884  43.339  55.137  1.00  0.00     0.001 A 
HETATM   19  C   UNL     1      30.365  44.430  55.830  1.00  0.00     0.000 A 
HETATM   20  C   UNL     1      29.241  45.093  55.342  1.00  0.00     0.001 A 
HETATM   21  C   UNL     1      28.640  44.669  54.157  1.00  0.00     0.007 A 
ENDBRANCH  15  16
ENDBRANCH  14  15
ENDBRANCH   2  14
BRANCH   3  22
HETATM   22  C   UNL     1      25.672  44.876  51.979  1.00  0.00     0.045 A 
HETATM   23  C   UNL     1      25.271  45.028  53.316  1.00  0.00     0.082 A 
HETATM   24  C   UNL     1      25.506  46.222  54.004  1.00  0.00     0.038 A 
HETATM   25  C   UNL     1      26.105  47.294  53.348  1.00  0.00     0.003 A 
HETATM   26  C   UNL     1      26.473  47.172  52.009  1.00  0.00     0.001 A 
HETATM   27  C   UNL     1      26.253  45.973  51.327  1.00  0.00     0.018 A 
BRANCH  23  28
HETATM   28  O   UNL     1      24.723  43.973  54.002  1.00  0.00    -0.355 OA
HETATM   29  C   UNL     1      25.449  43.745  55.212  1.00  0.00     0.210 C 
ENDBRANCH  23  28
ENDBRANCH   3  22
TORSDOF 9
ENDMDL
MODEL 5
REMARK VINA RESULT:      -6.9      7.162     10.896
REMARK  9 active torsions:
REMARK  status: ('A' for Active; 'I' for Inactive)
REMARK    1  A    between atoms: C_2  and  N_3 
REMARK       I    between atoms: N_3  and  C_4 
REMARK    2  A    between atoms: C_4  and  C_5 
REMARK    3  A    between atoms: C_5  and  S_6 
REMARK    4  A    between atoms: S_6  and  C_7 
REMARK    5  A    between atoms: N_8  and  C_9 
REMARK    6  A    between atoms: C_9  and  C_10 
REMARK    7  A    between atoms: C_10  and  C_11 
REMARK    8  A    between atoms: C_17  and  C_18 
REMARK    9  A    between atoms: C_19  and  O_20 
ROOT
HETATM    1  C   UNL     1      27.056  41.527  50.926  1.00  0.00     0.192 A 
HETATM    2  N   UNL     1      27.402  42.633  51.657  1.00  0.00    -0.307 N 
HETATM    3  C   UNL     1      26.247  43.392  51.740  1.00  0.00     0.167 A 
HETATM    4  N   UNL     1      25.266  42.725  51.154  1.00  0.00    -0.128 NA
HETATM    5  N   UNL     1      25.772  41.555  50.656  1.00  0.00    -0.122 NA
ENDROOT
BRANCH   1   6
HETATM    6  S   UNL     1      28.165  40.311  50.401  1.00  0.00    -0.081 SA
BRANCH   6   7
HETATM    7  C   UNL     1      28.261  40.647  48.622  1.00  0.00     0.185 C 
BRANCH   7   8
HETATM    8  C   UNL     1      26.981  40.246  47.907  1.00  0.00     0.227 C 
HETATM    9  N   UNL     1      26.231  41.310  47.448  1.00  0.00    -0.361 N 
HETATM   10  H   UNL     1      26.738  42.183  47.289  1.00  0.00     0.162 HD
HETATM   11  O   UNL     1      26.639  39.072  47.779  1.00  0.00    -0.273 OA
BRANCH   9  12
HETATM   12  C   UNL     1      25.006  41.125  46.703  1.00  0.00     0.118 C 
HETATM   13  C   UNL     1      23.780  41.439  47.541  1.00  0.00     0.026 C 
ENDBRANCH   9  12
ENDBRANCH   7   8
ENDBRANCH   6   7
ENDBRANCH   1   6
BRANCH   2  14
HETATM   14  C   UNL     1      28.697  42.957  52.222  1.00  0.00     0.137 C 
BRANCH  14  15
HETATM   15  C   UNL     1      28.973  42.354  53.603  1.00  0.00     0.059 C 
BRANCH  15  16
HETATM   16  C   UNL     1      29.532  43.340  54.598  1.00  0.00    -0.057 A 
HETATM   17  C   UNL     1      30.635  43.005  55.392  1.00  0.00     0.007 A 
HETATM   18  C   UNL     1      31.153  43.924  56.307  1.00  0.00     0.001 A 
HETATM   19  C   UNL     1      30.570  45.183  56.439  1.00  0.00     0.000 A 
HETATM   20  C   UNL     1      29.466  45.523  55.659  1.00  0.00     0.001 A 
HETATM   21  C   UNL     1      28.949  44.607  54.743  1.00  0.00     0.007 A 
ENDBRANCH  15  16
ENDBRANCH  14  15
ENDBRANCH   2  14
BRANCH   3  22
HETATM   22  C   UNL     1      26.111  44.695  52.387  1.00  0.00     0.045 A 
HETATM   23  C   UNL     1      26.316  45.884  51.670  1.00  0.00     0.082 A 
HETATM   24  C   UNL     1      26.144  47.130  52.282  1.00  0.00     0.038 A 
HETATM   25  C   UNL     1      25.809  47.198  53.633  1.00  0.00     0.003 A 
HETATM   26  C   UNL     1      25.642  46.026  54.368  1.00  0.00     0.001 A 
HETATM   27  C   UNL     1      25.797  44.782  53.751  1.00  0.00     0.018 A 
BRANCH  23  28
HETATM   28  O   UNL     1      26.597  45.848  50.328  1.00  0.00    -0.355 OA
HETATM   29  C   UNL     1      25.477  46.323  49.578  1.00  0.00     0.210 C 
ENDBRANCH  23  28
ENDBRANCH   3  22
TORSDOF 9
ENDMDL
MODEL 6
REMARK VINA RESULT:      -6.9     12.307     14.482
REMARK  9 active torsions:
REMARK  status: ('A' for Active; 'I' for Inactive)
REMARK    1  A    between atoms: C_2  and  N_3 
REMARK       I    between atoms: N_3  and  C_4 
REMARK    2  A    between atoms: C_4  and  C_5 
REMARK    3  A    between atoms: C_5  and  S_6 
REMARK    4  A    between atoms: S_6  and  C_7 
REMARK    5  A    between atoms: N_8  and  C_9 
REMARK    6  A    between atoms: C_9  and  C_10 
REMARK    7  A    between atoms: C_10  and  C_11 
REMARK    8  A    between atoms: C_17  and  C_18 
REMARK    9  A    between atoms: C_19  and  O_20 
ROOT
HETATM    1  C   UNL     1      34.978  51.276  40.136  1.00  0.00     0.192 A 
HETATM    2  N   UNL     1      33.699  50.949  40.501  1.00  0.00    -0.307 N 
HETATM    3  C   UNL     1      32.885  51.546  39.554  1.00  0.00     0.167 A 
HETATM    4  N   UNL     1      33.655  52.124  38.646  1.00  0.00    -0.128 NA
HETATM    5  N   UNL     1      34.962  51.944  39.006  1.00  0.00    -0.122 NA
ENDROOT
BRANCH   1   6
HETATM    6  S   UNL     1      36.389  50.904  41.061  1.00  0.00    -0.081 SA
BRANCH   6   7
HETATM    7  C   UNL     1      36.887  52.546  41.646  1.00  0.00     0.185 C 
BRANCH   7   8
HETATM    8  C   UNL     1      36.649  52.702  43.140  1.00  0.00     0.227 C 
HETATM    9  N   UNL     1      37.784  53.006  43.866  1.00  0.00    -0.361 N 
HETATM   10  H   UNL     1      38.545  53.450  43.347  1.00  0.00     0.162 HD
HETATM   11  O   UNL     1      35.542  52.543  43.650  1.00  0.00    -0.273 OA
BRANCH   9  12
HETATM   12  C   UNL     1      37.747  53.240  45.292  1.00  0.00     0.118 C 
HETATM   13  C   UNL     1      37.620  54.716  45.621  1.00  0.00     0.026 C 
ENDBRANCH   9  12
ENDBRANCH   7   8
ENDBRANCH   6   7
ENDBRANCH   1   6
BRANCH   2  14
HETATM   14  C   UNL     1      33.273  50.157  41.637  1.00  0.00     0.137 C 
BRANCH  14  15
HETATM   15  C   UNL     1      32.947  48.692  41.323  1.00  0.00     0.059 C 
BRANCH  15  16
HETATM   16  C   UNL     1      31.469  48.401  41.240  1.00  0.00    -0.057 A 
HETATM   17  C   UNL     1      30.577  48.972  42.155  1.00  0.00     0.007 A 
HETATM   18  C   UNL     1      29.209  48.705  42.069  1.00  0.00     0.001 A 
HETATM   19  C   UNL     1      28.723  47.862  41.073  1.00  0.00     0.000 A 
HETATM   20  C   UNL     1      29.604  47.281  40.162  1.00  0.00     0.001 A 
HETATM   21  C   UNL     1      30.970  47.549  40.245  1.00  0.00     0.007 A 
ENDBRANCH  15  16
ENDBRANCH  14  15
ENDBRANCH   2  14
BRANCH   3  22
HETATM   22  C   UNL     1      31.424  51.526  39.530  1.00  0.00     0.045 A 
HETATM   23  C   UNL     1      30.673  52.269  40.453  1.00  0.00     0.082 A 
HETATM   24  C   UNL     1      29.276  52.279  40.400  1.00  0.00     0.038 A 
HETATM   25  C   UNL     1      28.613  51.508  39.449  1.00  0.00     0.003 A 
HETATM   26  C   UNL     1      29.343  50.733  38.550  1.00  0.00     0.001 A 
HETATM   27  C   UNL     1      30.740  50.737  38.593  1.00  0.00     0.018 A 
BRANCH  23  28
HETATM   28  O   UNL     1      31.300  53.077  41.369  1.00  0.00    -0.355 OA
HETATM   29  C   UNL     1      30.870  52.746  42.691  1.00  0.00     0.210 C 
ENDBRANCH  23  28
ENDBRANCH   3  22
TORSDOF 9
ENDMDL
MODEL 7
REMARK VINA RESULT:      -6.9      7.480     11.371
REMARK  9 active torsions:
REMARK  status: ('A' for Active; 'I' for Inactive)
REMARK    1  A    between atoms: C_2  and  N_3 
REMARK       I    between atoms: N_3  and  C_4 
REMARK    2  A    between atoms: C_4  and  C_5 
REMARK    3  A    between atoms: C_5  and  S_6 
REMARK    4  A    between atoms: S_6  and  C_7 
REMARK    5  A    between atoms: N_8  and  C_9 
REMARK    6  A    between atoms: C_9  and  C_10 
REMARK    7  A    between atoms: C_10  and  C_11 
REMARK    8  A    between atoms: C_17  and  C_18 
REMARK    9  A    between atoms: C_19  and  O_20 
ROOT
HETATM    1  C   UNL     1      27.233  41.439  51.018  1.00  0.00     0.192 A 
HETATM    2  N   UNL     1      27.531  42.566  51.737  1.00  0.00    -0.307 N 
HETATM    3  C   UNL     1      26.359  43.302  51.766  1.00  0.00     0.167 A 
HETATM    4  N   UNL     1      25.412  42.604  51.160  1.00  0.00    -0.128 NA
HETATM    5  N   UNL     1      25.958  41.435  50.705  1.00  0.00    -0.122 NA
ENDROOT
BRANCH   1   6
HETATM    6  S   UNL     1      28.383  40.235  50.555  1.00  0.00    -0.081 SA
BRANCH   6   7
HETATM    7  C   UNL     1      28.162  40.191  48.756  1.00  0.00     0.185 C 
BRANCH   7   8
HETATM    8  C   UNL     1      28.121  38.763  48.234  1.00  0.00     0.227 C 
HETATM    9  N   UNL     1      27.877  38.663  46.879  1.00  0.00    -0.361 N 
HETATM   10  H   UNL     1      28.114  39.483  46.316  1.00  0.00     0.162 HD
HETATM   11  O   UNL     1      28.267  37.789  48.969  1.00  0.00    -0.273 OA
BRANCH   9  12
HETATM   12  C   UNL     1      27.849  37.390  46.193  1.00  0.00     0.118 C 
HETATM   13  C   UNL     1      29.236  36.948  45.763  1.00  0.00     0.026 C 
ENDBRANCH   9  12
ENDBRANCH   7   8
ENDBRANCH   6   7
ENDBRANCH   1   6
BRANCH   2  14
HETATM   14  C   UNL     1      28.800  42.928  52.338  1.00  0.00     0.137 C 
BRANCH  14  15
HETATM   15  C   UNL     1      29.022  42.396  53.757  1.00  0.00     0.059 C 
BRANCH  15  16
HETATM   16  C   UNL     1      29.565  43.425  54.716  1.00  0.00    -0.057 A 
HETATM   17  C   UNL     1      28.976  44.692  54.812  1.00  0.00     0.007 A 
HETATM   18  C   UNL     1      29.478  45.639  55.707  1.00  0.00     0.001 A 
HETATM   19  C   UNL     1      30.576  45.330  56.508  1.00  0.00     0.000 A 
HETATM   20  C   UNL     1      31.175  44.076  56.413  1.00  0.00     0.001 A 
HETATM   21  C   UNL     1      30.673  43.128  55.522  1.00  0.00     0.007 A 
ENDBRANCH  15  16
ENDBRANCH  14  15
ENDBRANCH   2  14
BRANCH   3  22
HETATM   22  C   UNL     1      26.175  44.615  52.380  1.00  0.00     0.045 A 
HETATM   23  C   UNL     1      26.414  45.794  51.657  1.00  0.00     0.082 A 
HETATM   24  C   UNL     1      26.197  47.048  52.236  1.00  0.00     0.038 A 
HETATM   25  C   UNL     1      25.781  47.136  53.562  1.00  0.00     0.003 A 
HETATM   26  C   UNL     1      25.579  45.975  54.307  1.00  0.00     0.001 A 
HETATM   27  C   UNL     1      25.780  44.722  53.721  1.00  0.00     0.018 A 
BRANCH  23  28
HETATM   28  O   UNL     1      26.775  45.737  50.334  1.00  0.00    -0.355 OA
HETATM   29  C   UNL     1      26.293  46.892  49.644  1.00  0.00     0.210 C 
ENDBRANCH  23  28
ENDBRANCH   3  22
TORSDOF 9
ENDMDL
MODEL 8
REMARK VINA RESULT:      -6.8      3.935      8.985
REMARK  9 active torsions:
REMARK  status: ('A' for Active; 'I' for Inactive)
REMARK    1  A    between atoms: C_2  and  N_3 
REMARK       I    between atoms: N_3  and  C_4 
REMARK    2  A    between atoms: C_4  and  C_5 
REMARK    3  A    between atoms: C_5  and  S_6 
REMARK    4  A    between atoms: S_6  and  C_7 
REMARK    5  A    between atoms: N_8  and  C_9 
REMARK    6  A    between atoms: C_9  and  C_10 
REMARK    7  A    between atoms: C_10  and  C_11 
REMARK    8  A    between atoms: C_17  and  C_18 
REMARK    9  A    between atoms: C_19  and  O_20 
ROOT
HETATM    1  C   UNL     1      25.062  43.649  49.910  1.00  0.00     0.192 A 
HETATM    2  N   UNL     1      26.175  44.178  50.509  1.00  0.00    -0.307 N 
HETATM    3  C   UNL     1      26.560  43.242  51.454  1.00  0.00     0.167 A 
HETATM    4  N   UNL     1      25.757  42.195  51.356  1.00  0.00    -0.128 NA
HETATM    5  N   UNL     1      24.830  42.447  50.382  1.00  0.00    -0.122 NA
ENDROOT
BRANCH   1   6
HETATM    6  S   UNL     1      24.088  44.474  48.745  1.00  0.00    -0.081 SA
BRANCH   6   7
HETATM    7  C   UNL     1      22.418  43.979  49.247  1.00  0.00     0.185 C 
BRANCH   7   8
HETATM    8  C   UNL     1      21.367  44.942  48.718  1.00  0.00     0.227 C 
HETATM    9  N   UNL     1      21.757  46.266  48.724  1.00  0.00    -0.361 N 
HETATM   10  H   UNL     1      22.765  46.438  48.712  1.00  0.00     0.162 HD
HETATM   11  O   UNL     1      20.258  44.565  48.345  1.00  0.00    -0.273 OA
BRANCH   9  12
HETATM   12  C   UNL     1      20.912  47.321  48.214  1.00  0.00     0.118 C 
HETATM   13  C   UNL     1      20.930  48.545  49.111  1.00  0.00     0.026 C 
ENDBRANCH   9  12
ENDBRANCH   7   8
ENDBRANCH   6   7
ENDBRANCH   1   6
BRANCH   2  14
HETATM   14  C   UNL     1      26.818  45.446  50.230  1.00  0.00     0.137 C 
BRANCH  14  15
HETATM   15  C   UNL     1      26.145  46.669  50.862  1.00  0.00     0.059 C 
BRANCH  15  16
HETATM   16  C   UNL     1      25.984  47.833  49.916  1.00  0.00    -0.057 A 
HETATM   17  C   UNL     1      27.102  48.542  49.460  1.00  0.00     0.007 A 
HETATM   18  C   UNL     1      26.948  49.614  48.579  1.00  0.00     0.001 A 
HETATM   19  C   UNL     1      25.676  49.990  48.152  1.00  0.00     0.000 A 
HETATM   20  C   UNL     1      24.556  49.297  48.607  1.00  0.00     0.001 A 
HETATM   21  C   UNL     1      24.709  48.224  49.485  1.00  0.00     0.007 A 
ENDBRANCH  15  16
ENDBRANCH  14  15
ENDBRANCH   2  14
BRANCH   3  22
HETATM   22  C   UNL     1      27.676  43.364  52.389  1.00  0.00     0.045 A 
HETATM   23  C   UNL     1      27.548  44.093  53.581  1.00  0.00     0.082 A 
HETATM   24  C   UNL     1      28.606  44.173  54.491  1.00  0.00     0.038 A 
HETATM   25  C   UNL     1      29.821  43.558  54.198  1.00  0.00     0.003 A 
HETATM   26  C   UNL     1      29.977  42.863  52.999  1.00  0.00     0.001 A 
HETATM   27  C   UNL     1      28.913  42.771  52.098  1.00  0.00     0.018 A 
BRANCH  23  28
HETATM   28  O   UNL     1      26.348  44.667  53.919  1.00  0.00    -0.355 OA
HETATM   29  C   UNL     1      26.561  45.982  54.438  1.00  0.00     0.210 C 
ENDBRANCH  23  28
ENDBRANCH   3  22
TORSDOF 9
ENDMDL
MODEL 9
REMARK VINA RESULT:      -6.8      2.101      3.724
REMARK  9 active torsions:
REMARK  status: ('A' for Active; 'I' for Inactive)
REMARK    1  A    between atoms: C_2  and  N_3 
REMARK       I    between atoms: N_3  and  C_4 
REMARK    2  A    between atoms: C_4  and  C_5 
REMARK    3  A    between atoms: C_5  and  S_6 
REMARK    4  A    between atoms: S_6  and  C_7 
REMARK    5  A    between atoms: N_8  and  C_9 
REMARK    6  A    between atoms: C_9  and  C_10 
REMARK    7  A    between atoms: C_10  and  C_11 
REMARK    8  A    between atoms: C_17  and  C_18 
REMARK    9  A    between atoms: C_19  and  O_20 
ROOT
HETATM    1  C   UNL     1      22.498  49.594  48.329  1.00  0.00     0.192 A 
HETATM    2  N   UNL     1      21.175  49.757  48.647  1.00  0.00    -0.307 N 
HETATM    3  C   UNL     1      20.526  48.676  48.075  1.00  0.00     0.167 A 
HETATM    4  N   UNL     1      21.434  47.890  47.519  1.00  0.00    -0.128 NA
HETATM    5  N   UNL     1      22.666  48.460  47.689  1.00  0.00    -0.122 NA
ENDROOT
BRANCH   1   6
HETATM    6  S   UNL     1      23.741  50.742  48.678  1.00  0.00    -0.081 SA
BRANCH   6   7
HETATM    7  C   UNL     1      25.159  50.022  47.807  1.00  0.00     0.185 C 
BRANCH   7   8
HETATM    8  C   UNL     1      26.100  49.310  48.766  1.00  0.00     0.227 C 
HETATM    9  N   UNL     1      25.522  48.258  49.450  1.00  0.00    -0.361 N 
HETATM   10  H   UNL     1      24.703  47.831  49.011  1.00  0.00     0.162 HD
HETATM   11  O   UNL     1      27.265  49.665  48.931  1.00  0.00    -0.273 OA
BRANCH   9  12
HETATM   12  C   UNL     1      26.272  47.432  50.369  1.00  0.00     0.118 C 
HETATM   13  C   UNL     1      25.438  47.017  51.567  1.00  0.00     0.026 C 
ENDBRANCH   9  12
ENDBRANCH   7   8
ENDBRANCH   6   7
ENDBRANCH   1   6
BRANCH   2  14
HETATM   14  C   UNL     1      20.569  50.829  49.412  1.00  0.00     0.137 C 
BRANCH  14  15
HETATM   15  C   UNL     1      19.969  51.964  48.576  1.00  0.00     0.059 C 
BRANCH  15  16
HETATM   16  C   UNL     1      18.464  51.926  48.489  1.00  0.00    -0.057 A 
HETATM   17  C   UNL     1      17.815  52.104  47.260  1.00  0.00     0.007 A 
HETATM   18  C   UNL     1      16.422  52.060  47.184  1.00  0.00     0.001 A 
HETATM   19  C   UNL     1      15.665  51.845  48.334  1.00  0.00     0.000 A 
HETATM   20  C   UNL     1      16.300  51.676  49.563  1.00  0.00     0.001 A 
HETATM   21  C   UNL     1      17.693  51.717  49.640  1.00  0.00     0.007 A 
ENDBRANCH  15  16
ENDBRANCH  14  15
ENDBRANCH   2  14
BRANCH   3  22
HETATM   22  C   UNL     1      19.088  48.418  48.096  1.00  0.00     0.045 A 
HETATM   23  C   UNL     1      18.295  48.639  46.960  1.00  0.00     0.082 A 
HETATM   24  C   UNL     1      16.927  48.352  46.973  1.00  0.00     0.038 A 
HETATM   25  C   UNL     1      16.328  47.883  48.139  1.00  0.00     0.003 A 
HETATM   26  C   UNL     1      17.094  47.696  49.288  1.00  0.00     0.001 A 
HETATM   27  C   UNL     1      18.465  47.967  49.269  1.00  0.00     0.018 A 
BRANCH  23  28
HETATM   28  O   UNL     1      18.866  49.054  45.783  1.00  0.00    -0.355 OA
HETATM   29  C   UNL     1      18.549  48.137  44.734  1.00  0.00     0.210 C 
ENDBRANCH  23  28
ENDBRANCH   3  22
TORSDOF 9
ENDMDL
MODEL 10
REMARK VINA RESULT:      -6.8     13.168     15.864
REMARK  9 active torsions:
REMARK  status: ('A' for Active; 'I' for Inactive)
REMARK    1  A    between atoms: C_2  and  N_3 
REMARK       I    between atoms: N_3  and  C_4 
REMARK    2  A    between atoms: C_4  and  C_5 
REMARK    3  A    between atoms: C_5  and  S_6 
REMARK    4  A    between atoms: S_6  and  C_7 
REMARK    5  A    between atoms: N_8  and  C_9 
REMARK    6  A    between atoms: C_9  and  C_10 
REMARK    7  A    between atoms: C_10  and  C_11 
REMARK    8  A    between atoms: C_17  and  C_18 
REMARK    9  A    between atoms: C_19  and  O_20 
ROOT
HETATM    1  C   UNL     1      36.529  51.903  40.231  1.00  0.00     0.192 A 
HETATM    2  N   UNL     1      35.220  51.497  40.210  1.00  0.00    -0.307 N 
HETATM    3  C   UNL     1      35.041  50.781  41.381  1.00  0.00     0.167 A 
HETATM    4  N   UNL     1      36.165  50.833  42.078  1.00  0.00    -0.128 NA
HETATM    5  N   UNL     1      37.088  51.545  41.362  1.00  0.00    -0.122 NA
ENDROOT
BRANCH   1   6
HETATM    6  S   UNL     1      37.325  52.719  38.933  1.00  0.00    -0.081 SA
BRANCH   6   7
HETATM    7  C   UNL     1      37.996  54.178  39.774  1.00  0.00     0.185 C 
BRANCH   7   8
HETATM    8  C   UNL     1      36.900  55.168  40.137  1.00  0.00     0.227 C 
HETATM    9  N   UNL     1      36.011  55.428  39.114  1.00  0.00    -0.361 N 
HETATM   10  H   UNL     1      35.931  54.709  38.392  1.00  0.00     0.162 HD
HETATM   11  O   UNL     1      36.837  55.704  41.241  1.00  0.00    -0.273 OA
BRANCH   9  12
HETATM   12  C   UNL     1      34.875  56.305  39.285  1.00  0.00     0.118 C 
HETATM   13  C   UNL     1      35.077  57.637  38.586  1.00  0.00     0.026 C 
ENDBRANCH   9  12
ENDBRANCH   7   8
ENDBRANCH   6   7
ENDBRANCH   1   6
BRANCH   2  14
HETATM   14  C   UNL     1      34.227  51.749  39.185  1.00  0.00     0.137 C 
BRANCH  14  15
HETATM   15  C   UNL     1      33.268  52.908  39.479  1.00  0.00     0.059 C 
BRANCH  15  16
HETATM   16  C   UNL     1      31.885  52.467  39.884  1.00  0.00    -0.057 A 
HETATM   17  C   UNL     1      31.121  53.237  40.770  1.00  0.00     0.007 A 
HETATM   18  C   UNL     1      29.837  52.827  41.136  1.00  0.00     0.001 A 
HETATM   19  C   UNL     1      29.309  51.644  40.624  1.00  0.00     0.000 A 
HETATM   20  C   UNL     1      30.064  50.866  39.749  1.00  0.00     0.001 A 
HETATM   21  C   UNL     1      31.346  51.275  39.380  1.00  0.00     0.007 A 
ENDBRANCH  15  16
ENDBRANCH  14  15
ENDBRANCH   2  14
BRANCH   3  22
HETATM   22  C   UNL     1      33.819  50.101  41.802  1.00  0.00     0.045 A 
HETATM   23  C   UNL     1      32.953  50.683  42.741  1.00  0.00     0.082 A 
HETATM   24  C   UNL     1      31.764  50.047  43.111  1.00  0.00     0.038 A 
HETATM   25  C   UNL     1      31.449  48.800  42.578  1.00  0.00     0.003 A 
HETATM   26  C   UNL     1      32.319  48.190  41.675  1.00  0.00     0.001 A 
HETATM   27  C   UNL     1      33.499  48.834  41.293  1.00  0.00     0.018 A 
BRANCH  23  28
HETATM   28  O   UNL     1      33.212  51.932  43.245  1.00  0.00    -0.355 OA
HETATM   29  C   UNL     1      32.937  51.963  44.647  1.00  0.00     0.210 C 
ENDBRANCH  23  28
ENDBRANCH   3  22
TORSDOF 9
ENDMDL
