MODEL 1
REMARK VINA RESULT:     -10.6      0.000      0.000
REMARK  5 active torsions:
REMARK  status: ('A' for Active; 'I' for Inactive)
REMARK    1  A    between atoms: C_2  and  N_3 
REMARK    2  A    between atoms: C_14  and  C_17 
REMARK       I    between atoms: C_17  and  N_19 
REMARK    3  A    between atoms: N_19  and  C_20 
REMARK    4  A    between atoms: C_20  and  C_22 
REMARK    5  A    between atoms: C_26  and  O_27 
ROOT
HETATM    1  N   UNL     1      29.593  43.984  54.607  1.00  0.00    -0.008 N 
HETATM    2  H   UNL     1      30.238  44.097  53.835  1.00  0.00     0.293 HD
HETATM    3  C   UNL     1      30.298  44.115  55.811  1.00  0.00     0.169 A 
HETATM    4  C   UNL     1      31.362  43.348  56.351  1.00  0.00     0.154 A 
HETATM    5  N   UNL     1      31.940  43.616  57.553  1.00  0.00    -0.271 NA
HETATM    6  C   UNL     1      31.496  44.668  58.266  1.00  0.00     0.117 A 
HETATM    7  C   UNL     1      30.484  45.497  57.847  1.00  0.00     0.034 A 
HETATM    8  C   UNL     1      29.880  45.225  56.609  1.00  0.00     0.014 A 
HETATM    9  C   UNL     1      28.824  45.854  55.838  1.00  0.00     0.012 A 
HETATM   10  C   UNL     1      28.000  46.978  56.040  1.00  0.00     0.016 A 
HETATM   11  C   UNL     1      27.068  47.331  55.075  1.00  0.00     0.018 A 
HETATM   12  C   UNL     1      26.963  46.577  53.901  1.00  0.00     0.034 A 
HETATM   13  C   UNL     1      27.798  45.476  53.670  1.00  0.00     0.055 A 
HETATM   14  C   UNL     1      28.722  45.065  54.651  1.00  0.00     0.152 A 
ENDROOT
BRANCH  12  15
HETATM   15  C   UNL     1      25.939  47.003  52.899  1.00  0.00     0.252 C 
HETATM   16  O   UNL     1      25.080  47.821  53.211  1.00  0.00    -0.268 OA
HETATM   17  N   UNL     1      25.999  46.417  51.653  1.00  0.00    -0.349 N 
HETATM   18  H   UNL     1      26.624  45.645  51.485  1.00  0.00     0.163 HD
BRANCH  17  19
HETATM   19  C   UNL     1      25.022  46.712  50.616  1.00  0.00     0.114 C 
HETATM   20  C   UNL     1      24.737  45.471  49.765  1.00  0.00     0.037 C 
BRANCH  19  21
HETATM   21  C   UNL     1      25.507  47.887  49.786  1.00  0.00    -0.033 A 
HETATM   22  C   UNL     1      26.881  48.167  49.722  1.00  0.00     0.009 A 
HETATM   23  C   UNL     1      27.355  49.222  48.946  1.00  0.00     0.003 A 
HETATM   24  C   UNL     1      26.460  50.003  48.215  1.00  0.00     0.037 A 
HETATM   25  C   UNL     1      25.091  49.739  48.251  1.00  0.00     0.068 A 
HETATM   26  C   UNL     1      24.617  48.686  49.041  1.00  0.00     0.046 A 
BRANCH  25  27
HETATM   27  O   UNL     1      24.329  50.570  47.477  1.00  0.00    -0.356 OA
HETATM   28  C   UNL     1      22.920  50.503  47.648  1.00  0.00     0.210 C 
ENDBRANCH  25  27
ENDBRANCH  19  21
ENDBRANCH  17  19
ENDBRANCH  12  15
BRANCH   1  29
HETATM   29  C   UNL     1      28.958  42.656  54.412  1.00  0.00     0.244 C 
HETATM   30  C   UNL     1      29.277  41.977  53.082  1.00  0.00     0.035 C 
ENDBRANCH   1  29
TORSDOF 5
ENDMDL
MODEL 2
REMARK VINA RESULT:      -9.7      4.169      7.108
REMARK  5 active torsions:
REMARK  status: ('A' for Active; 'I' for Inactive)
REMARK    1  A    between atoms: C_2  and  N_3 
REMARK    2  A    between atoms: C_14  and  C_17 
REMARK       I    between atoms: C_17  and  N_19 
REMARK    3  A    between atoms: N_19  and  C_20 
REMARK    4  A    between atoms: C_20  and  C_22 
REMARK    5  A    between atoms: C_26  and  O_27 
ROOT
HETATM    1  N   UNL     1      28.301  45.680  55.490  1.00  0.00    -0.008 N 
HETATM    2  H   UNL     1      27.390  45.468  55.880  1.00  0.00     0.293 HD
HETATM    3  C   UNL     1      29.276  45.475  56.476  1.00  0.00     0.169 A 
HETATM    4  C   UNL     1      29.469  46.101  57.734  1.00  0.00     0.154 A 
HETATM    5  N   UNL     1      30.483  45.778  58.580  1.00  0.00    -0.271 NA
HETATM    6  C   UNL     1      31.344  44.807  58.221  1.00  0.00     0.117 A 
HETATM    7  C   UNL     1      31.257  44.114  57.038  1.00  0.00     0.034 A 
HETATM    8  C   UNL     1      30.214  44.444  56.157  1.00  0.00     0.014 A 
HETATM    9  C   UNL     1      29.789  43.950  54.861  1.00  0.00     0.012 A 
HETATM   10  C   UNL     1      30.264  42.950  53.990  1.00  0.00     0.016 A 
HETATM   11  C   UNL     1      29.605  42.710  52.793  1.00  0.00     0.018 A 
HETATM   12  C   UNL     1      28.465  43.451  52.465  1.00  0.00     0.034 A 
HETATM   13  C   UNL     1      27.961  44.426  53.336  1.00  0.00     0.055 A 
HETATM   14  C   UNL     1      28.634  44.726  54.537  1.00  0.00     0.152 A 
ENDROOT
BRANCH  12  15
HETATM   15  C   UNL     1      27.799  43.150  51.162  1.00  0.00     0.252 C 
HETATM   16  O   UNL     1      27.327  44.061  50.490  1.00  0.00    -0.268 OA
HETATM   17  N   UNL     1      27.724  41.826  50.788  1.00  0.00    -0.349 N 
HETATM   18  H   UNL     1      27.990  41.100  51.434  1.00  0.00     0.163 HD
BRANCH  17  19
HETATM   19  C   UNL     1      27.050  41.408  49.569  1.00  0.00     0.114 C 
HETATM   20  C   UNL     1      25.551  41.216  49.810  1.00  0.00     0.037 C 
BRANCH  19  21
HETATM   21  C   UNL     1      27.716  40.154  49.028  1.00  0.00    -0.033 A 
HETATM   22  C   UNL     1      27.427  39.729  47.721  1.00  0.00     0.009 A 
HETATM   23  C   UNL     1      28.044  38.598  47.191  1.00  0.00     0.003 A 
HETATM   24  C   UNL     1      28.967  37.887  47.957  1.00  0.00     0.037 A 
HETATM   25  C   UNL     1      29.281  38.295  49.253  1.00  0.00     0.068 A 
HETATM   26  C   UNL     1      28.651  39.423  49.787  1.00  0.00     0.046 A 
BRANCH  25  27
HETATM   27  O   UNL     1      30.212  37.518  49.886  1.00  0.00    -0.356 OA
HETATM   28  C   UNL     1      29.914  37.103  51.212  1.00  0.00     0.210 C 
ENDBRANCH  25  27
ENDBRANCH  19  21
ENDBRANCH  17  19
ENDBRANCH  12  15
BRANCH   1  29
HETATM   29  C   UNL     1      28.215  47.077  54.996  1.00  0.00     0.244 C 
HETATM   30  C   UNL     1      26.799  47.644  54.908  1.00  0.00     0.035 C 
ENDBRANCH   1  29
TORSDOF 5
ENDMDL
MODEL 3
REMARK VINA RESULT:      -9.4      2.814      9.166
REMARK  5 active torsions:
REMARK  status: ('A' for Active; 'I' for Inactive)
REMARK    1  A    between atoms: C_2  and  N_3 
REMARK    2  A    between atoms: C_14  and  C_17 
REMARK       I    between atoms: C_17  and  N_19 
REMARK    3  A    between atoms: N_19  and  C_20 
REMARK    4  A    between atoms: C_20  and  C_22 
REMARK    5  A    between atoms: C_26  and  O_27 
ROOT
HETATM    1  N   UNL     1      22.590  46.977  49.248  1.00  0.00    -0.008 N 
HETATM    2  H   UNL     1      22.082  46.727  50.088  1.00  0.00     0.293 HD
HETATM    3  C   UNL     1      22.397  48.340  48.988  1.00  0.00     0.169 A 
HETATM    4  C   UNL     1      21.215  49.073  48.707  1.00  0.00     0.154 A 
HETATM    5  N   UNL     1      21.205  50.412  48.474  1.00  0.00    -0.271 NA
HETATM    6  C   UNL     1      22.368  51.089  48.524  1.00  0.00     0.117 A 
HETATM    7  C   UNL     1      23.578  50.499  48.801  1.00  0.00     0.034 A 
HETATM    8  C   UNL     1      23.597  49.115  49.040  1.00  0.00     0.014 A 
HETATM    9  C   UNL     1      24.637  48.159  49.369  1.00  0.00     0.012 A 
HETATM   10  C   UNL     1      26.028  48.255  49.573  1.00  0.00     0.016 A 
HETATM   11  C   UNL     1      26.756  47.120  49.896  1.00  0.00     0.018 A 
HETATM   12  C   UNL     1      26.104  45.889  50.032  1.00  0.00     0.034 A 
HETATM   13  C   UNL     1      24.717  45.784  49.866  1.00  0.00     0.055 A 
HETATM   14  C   UNL     1      23.956  46.910  49.491  1.00  0.00     0.152 A 
ENDROOT
BRANCH  12  15
HETATM   15  C   UNL     1      26.941  44.701  50.379  1.00  0.00     0.252 C 
HETATM   16  O   UNL     1      27.253  43.897  49.507  1.00  0.00    -0.268 OA
HETATM   17  N   UNL     1      27.304  44.554  51.700  1.00  0.00    -0.349 N 
HETATM   18  H   UNL     1      26.906  45.153  52.405  1.00  0.00     0.163 HD
BRANCH  17  19
HETATM   19  C   UNL     1      28.070  43.408  52.164  1.00  0.00     0.114 C 
HETATM   20  C   UNL     1      27.171  42.180  52.332  1.00  0.00     0.037 C 
BRANCH  19  21
HETATM   21  C   UNL     1      28.799  43.774  53.445  1.00  0.00    -0.033 A 
HETATM   22  C   UNL     1      29.860  42.968  53.889  1.00  0.00     0.009 A 
HETATM   23  C   UNL     1      30.563  43.294  55.046  1.00  0.00     0.003 A 
HETATM   24  C   UNL     1      30.221  44.438  55.767  1.00  0.00     0.037 A 
HETATM   25  C   UNL     1      29.180  45.263  55.341  1.00  0.00     0.068 A 
HETATM   26  C   UNL     1      28.468  44.926  54.186  1.00  0.00     0.046 A 
BRANCH  25  27
HETATM   27  O   UNL     1      28.961  46.358  56.130  1.00  0.00    -0.356 OA
HETATM   28  C   UNL     1      28.863  46.138  57.530  1.00  0.00     0.210 C 
ENDBRANCH  25  27
ENDBRANCH  19  21
ENDBRANCH  17  19
ENDBRANCH  12  15
BRANCH   1  29
HETATM   29  C   UNL     1      22.083  46.074  48.184  1.00  0.00     0.244 C 
HETATM   30  C   UNL     1      20.924  45.171  48.603  1.00  0.00     0.035 C 
ENDBRANCH   1  29
TORSDOF 5
ENDMDL
MODEL 4
REMARK VINA RESULT:      -9.1      1.864      3.235
REMARK  5 active torsions:
REMARK  status: ('A' for Active; 'I' for Inactive)
REMARK    1  A    between atoms: C_2  and  N_3 
REMARK    2  A    between atoms: C_14  and  C_17 
REMARK       I    between atoms: C_17  and  N_19 
REMARK    3  A    between atoms: N_19  and  C_20 
REMARK    4  A    between atoms: C_20  and  C_22 
REMARK    5  A    between atoms: C_26  and  O_27 
ROOT
HETATM    1  N   UNL     1      27.576  46.097  55.103  1.00  0.00    -0.008 N 
HETATM    2  H   UNL     1      26.899  46.017  55.852  1.00  0.00     0.293 HD
HETATM    3  C   UNL     1      28.748  45.425  55.475  1.00  0.00     0.169 A 
HETATM    4  C   UNL     1      29.644  45.649  56.552  1.00  0.00     0.154 A 
HETATM    5  N   UNL     1      30.751  44.892  56.771  1.00  0.00    -0.271 NA
HETATM    6  C   UNL     1      31.013  43.867  55.937  1.00  0.00     0.117 A 
HETATM    7  C   UNL     1      30.216  43.537  54.867  1.00  0.00     0.034 A 
HETATM    8  C   UNL     1      29.072  44.316  54.633  1.00  0.00     0.014 A 
HETATM    9  C   UNL     1      28.007  44.280  53.648  1.00  0.00     0.012 A 
HETATM   10  C   UNL     1      27.717  43.449  52.549  1.00  0.00     0.016 A 
HETATM   11  C   UNL     1      26.578  43.682  51.791  1.00  0.00     0.018 A 
HETATM   12  C   UNL     1      25.718  44.731  52.133  1.00  0.00     0.034 A 
HETATM   13  C   UNL     1      25.975  45.545  53.243  1.00  0.00     0.055 A 
HETATM   14  C   UNL     1      27.147  45.364  54.004  1.00  0.00     0.152 A 
ENDROOT
BRANCH  12  15
HETATM   15  C   UNL     1      24.509  44.935  51.278  1.00  0.00     0.252 C 
HETATM   16  O   UNL     1      23.556  44.169  51.372  1.00  0.00    -0.268 OA
HETATM   17  N   UNL     1      24.542  45.985  50.386  1.00  0.00    -0.349 N 
HETATM   18  H   UNL     1      25.396  46.498  50.237  1.00  0.00     0.163 HD
BRANCH  17  19
HETATM   19  C   UNL     1      23.447  46.248  49.465  1.00  0.00     0.114 C 
HETATM   20  C   UNL     1      23.486  45.280  48.279  1.00  0.00     0.037 C 
BRANCH  19  21
HETATM   21  C   UNL     1      23.490  47.702  49.030  1.00  0.00    -0.033 A 
HETATM   22  C   UNL     1      24.697  48.413  49.121  1.00  0.00     0.009 A 
HETATM   23  C   UNL     1      24.771  49.741  48.704  1.00  0.00     0.003 A 
HETATM   24  C   UNL     1      23.641  50.368  48.180  1.00  0.00     0.037 A 
HETATM   25  C   UNL     1      22.433  49.680  48.068  1.00  0.00     0.068 A 
HETATM   26  C   UNL     1      22.358  48.352  48.499  1.00  0.00     0.046 A 
BRANCH  25  27
HETATM   27  O   UNL     1      21.410  50.408  47.525  1.00  0.00    -0.356 OA
HETATM   28  C   UNL     1      20.688  51.263  48.400  1.00  0.00     0.210 C 
ENDBRANCH  25  27
ENDBRANCH  19  21
ENDBRANCH  17  19
ENDBRANCH  12  15
BRANCH   1  29
HETATM   29  C   UNL     1      27.753  47.553  54.873  1.00  0.00     0.244 C 
HETATM   30  C   UNL     1      26.664  48.438  55.475  1.00  0.00     0.035 C 
ENDBRANCH   1  29
TORSDOF 5
ENDMDL
MODEL 5
REMARK VINA RESULT:      -9.1      1.626      2.157
REMARK  5 active torsions:
REMARK  status: ('A' for Active; 'I' for Inactive)
REMARK    1  A    between atoms: C_2  and  N_3 
REMARK    2  A    between atoms: C_14  and  C_17 
REMARK       I    between atoms: C_17  and  N_19 
REMARK    3  A    between atoms: N_19  and  C_20 
REMARK    4  A    between atoms: C_20  and  C_22 
REMARK    5  A    between atoms: C_26  and  O_27 
ROOT
HETATM    1  N   UNL     1      28.792  43.372  53.644  1.00  0.00    -0.008 N 
HETATM    2  H   UNL     1      29.386  43.385  52.823  1.00  0.00     0.293 HD
HETATM    3  C   UNL     1      29.505  43.898  54.730  1.00  0.00     0.169 A 
HETATM    4  C   UNL     1      30.694  43.452  55.362  1.00  0.00     0.154 A 
HETATM    5  N   UNL     1      31.260  44.090  56.422  1.00  0.00    -0.271 NA
HETATM    6  C   UNL     1      30.676  45.208  56.894  1.00  0.00     0.117 A 
HETATM    7  C   UNL     1      29.532  45.750  56.361  1.00  0.00     0.034 A 
HETATM    8  C   UNL     1      28.940  45.096  55.268  1.00  0.00     0.014 A 
HETATM    9  C   UNL     1      27.774  45.354  54.444  1.00  0.00     0.012 A 
HETATM   10  C   UNL     1      26.788  46.359  54.429  1.00  0.00     0.016 A 
HETATM   11  C   UNL     1      25.782  46.322  53.475  1.00  0.00     0.018 A 
HETATM   12  C   UNL     1      25.761  45.296  52.524  1.00  0.00     0.034 A 
HETATM   13  C   UNL     1      26.754  44.308  52.505  1.00  0.00     0.055 A 
HETATM   14  C   UNL     1      27.762  44.291  53.490  1.00  0.00     0.152 A 
ENDROOT
BRANCH  12  15
HETATM   15  C   UNL     1      24.652  45.307  51.523  1.00  0.00     0.252 C 
HETATM   16  O   UNL     1      23.844  44.385  51.493  1.00  0.00    -0.268 OA
HETATM   17  N   UNL     1      24.610  46.368  50.645  1.00  0.00    -0.349 N 
HETATM   18  H   UNL     1      25.373  47.025  50.607  1.00  0.00     0.163 HD
BRANCH  17  19
HETATM   19  C   UNL     1      23.610  46.458  49.593  1.00  0.00     0.114 C 
HETATM   20  C   UNL     1      23.893  45.444  48.481  1.00  0.00     0.037 C 
BRANCH  19  21
HETATM   21  C   UNL     1      23.547  47.885  49.076  1.00  0.00    -0.033 A 
HETATM   22  C   UNL     1      24.721  48.652  49.026  1.00  0.00     0.009 A 
HETATM   23  C   UNL     1      24.697  49.955  48.532  1.00  0.00     0.003 A 
HETATM   24  C   UNL     1      23.499  50.500  48.070  1.00  0.00     0.037 A 
HETATM   25  C   UNL     1      22.321  49.754  48.097  1.00  0.00     0.068 A 
HETATM   26  C   UNL     1      22.346  48.451  48.606  1.00  0.00     0.046 A 
BRANCH  25  27
HETATM   27  O   UNL     1      21.224  50.403  47.601  1.00  0.00    -0.356 OA
HETATM   28  C   UNL     1      20.607  51.367  48.443  1.00  0.00     0.210 C 
ENDBRANCH  25  27
ENDBRANCH  19  21
ENDBRANCH  17  19
ENDBRANCH  12  15
BRANCH   1  29
HETATM   29  C   UNL     1      28.371  41.959  53.815  1.00  0.00     0.244 C 
HETATM   30  C   UNL     1      28.695  41.042  52.638  1.00  0.00     0.035 C 
ENDBRANCH   1  29
TORSDOF 5
ENDMDL
MODEL 6
REMARK VINA RESULT:      -8.9      3.706     10.344
REMARK  5 active torsions:
REMARK  status: ('A' for Active; 'I' for Inactive)
REMARK    1  A    between atoms: C_2  and  N_3 
REMARK    2  A    between atoms: C_14  and  C_17 
REMARK       I    between atoms: C_17  and  N_19 
REMARK    3  A    between atoms: N_19  and  C_20 
REMARK    4  A    between atoms: C_20  and  C_22 
REMARK    5  A    between atoms: C_26  and  O_27 
ROOT
HETATM    1  N   UNL     1      19.814  48.672  49.064  1.00  0.00    -0.008 N 
HETATM    2  H   UNL     1      19.601  48.337  49.996  1.00  0.00     0.293 HD
HETATM    3  C   UNL     1      19.066  49.831  48.816  1.00  0.00     0.169 A 
HETATM    4  C   UNL     1      17.664  50.037  48.765  1.00  0.00     0.154 A 
HETATM    5  N   UNL     1      17.097  51.245  48.505  1.00  0.00    -0.271 NA
HETATM    6  C   UNL     1      17.897  52.308  48.299  1.00  0.00     0.117 A 
HETATM    7  C   UNL     1      19.269  52.244  48.337  1.00  0.00     0.034 A 
HETATM    8  C   UNL     1      19.863  50.999  48.601  1.00  0.00     0.014 A 
HETATM    9  C   UNL     1      21.233  50.538  48.734  1.00  0.00     0.012 A 
HETATM   10  C   UNL     1      22.490  51.166  48.646  1.00  0.00     0.016 A 
HETATM   11  C   UNL     1      23.645  50.424  48.842  1.00  0.00     0.018 A 
HETATM   12  C   UNL     1      23.554  49.059  49.140  1.00  0.00     0.034 A 
HETATM   13  C   UNL     1      22.310  48.428  49.264  1.00  0.00     0.055 A 
HETATM   14  C   UNL     1      21.120  49.144  49.025  1.00  0.00     0.152 A 
ENDROOT
BRANCH  12  15
HETATM   15  C   UNL     1      24.832  48.311  49.337  1.00  0.00     0.252 C 
HETATM   16  O   UNL     1      25.892  48.796  48.954  1.00  0.00    -0.268 OA
HETATM   17  N   UNL     1      24.747  47.070  49.929  1.00  0.00    -0.349 N 
HETATM   18  H   UNL     1      23.847  46.647  50.093  1.00  0.00     0.163 HD
BRANCH  17  19
HETATM   19  C   UNL     1      25.916  46.227  50.121  1.00  0.00     0.114 C 
HETATM   20  C   UNL     1      25.758  44.895  49.383  1.00  0.00     0.037 C 
BRANCH  19  21
HETATM   21  C   UNL     1      26.166  46.041  51.608  1.00  0.00    -0.033 A 
HETATM   22  C   UNL     1      26.844  44.895  52.055  1.00  0.00     0.009 A 
HETATM   23  C   UNL     1      27.110  44.713  53.410  1.00  0.00     0.003 A 
HETATM   24  C   UNL     1      26.712  45.679  54.333  1.00  0.00     0.037 A 
HETATM   25  C   UNL     1      26.047  46.832  53.913  1.00  0.00     0.068 A 
HETATM   26  C   UNL     1      25.771  47.007  52.554  1.00  0.00     0.046 A 
BRANCH  25  27
HETATM   27  O   UNL     1      25.727  47.703  54.918  1.00  0.00    -0.356 OA
HETATM   28  C   UNL     1      26.806  48.304  55.622  1.00  0.00     0.210 C 
ENDBRANCH  25  27
ENDBRANCH  19  21
ENDBRANCH  17  19
ENDBRANCH  12  15
BRANCH   1  29
HETATM   29  C   UNL     1      19.513  47.542  48.150  1.00  0.00     0.244 C 
HETATM   30  C   UNL     1      19.681  47.852  46.664  1.00  0.00     0.035 C 
ENDBRANCH   1  29
TORSDOF 5
ENDMDL
MODEL 7
REMARK VINA RESULT:      -8.7      2.207      3.467
REMARK  5 active torsions:
REMARK  status: ('A' for Active; 'I' for Inactive)
REMARK    1  A    between atoms: C_2  and  N_3 
REMARK    2  A    between atoms: C_14  and  C_17 
REMARK       I    between atoms: C_17  and  N_19 
REMARK    3  A    between atoms: N_19  and  C_20 
REMARK    4  A    between atoms: C_20  and  C_22 
REMARK    5  A    between atoms: C_26  and  O_27 
ROOT
HETATM    1  N   UNL     1      28.392  45.608  55.403  1.00  0.00    -0.008 N 
HETATM    2  H   UNL     1      27.532  45.477  55.922  1.00  0.00     0.293 HD
HETATM    3  C   UNL     1      29.465  45.147  56.178  1.00  0.00     0.169 A 
HETATM    4  C   UNL     1      29.950  45.575  57.440  1.00  0.00     0.154 A 
HETATM    5  N   UNL     1      31.021  45.010  58.059  1.00  0.00    -0.271 NA
HETATM    6  C   UNL     1      31.650  43.983  57.458  1.00  0.00     0.117 A 
HETATM    7  C   UNL     1      31.270  43.465  56.244  1.00  0.00     0.034 A 
HETATM    8  C   UNL     1      30.167  44.045  55.597  1.00  0.00     0.014 A 
HETATM    9  C   UNL     1      29.471  43.783  54.351  1.00  0.00     0.012 A 
HETATM   10  C   UNL     1      29.639  42.845  53.313  1.00  0.00     0.016 A 
HETATM   11  C   UNL     1      28.770  42.852  52.232  1.00  0.00     0.018 A 
HETATM   12  C   UNL     1      27.724  43.780  52.186  1.00  0.00     0.034 A 
HETATM   13  C   UNL     1      27.524  44.697  53.225  1.00  0.00     0.055 A 
HETATM   14  C   UNL     1      28.417  44.746  54.315  1.00  0.00     0.152 A 
ENDROOT
BRANCH  12  15
HETATM   15  C   UNL     1      26.823  43.742  50.995  1.00  0.00     0.252 C 
HETATM   16  O   UNL     1      27.298  43.776  49.864  1.00  0.00    -0.268 OA
HETATM   17  N   UNL     1      25.467  43.697  51.235  1.00  0.00    -0.349 N 
HETATM   18  H   UNL     1      25.113  43.819  52.171  1.00  0.00     0.163 HD
BRANCH  17  19
HETATM   19  C   UNL     1      24.492  43.712  50.156  1.00  0.00     0.114 C 
HETATM   20  C   UNL     1      25.018  42.956  48.933  1.00  0.00     0.037 C 
BRANCH  19  21
HETATM   21  C   UNL     1      24.117  45.148  49.834  1.00  0.00    -0.033 A 
HETATM   22  C   UNL     1      24.662  46.192  50.599  1.00  0.00     0.009 A 
HETATM   23  C   UNL     1      24.356  47.519  50.309  1.00  0.00     0.003 A 
HETATM   24  C   UNL     1      23.511  47.819  49.241  1.00  0.00     0.037 A 
HETATM   25  C   UNL     1      22.966  46.802  48.457  1.00  0.00     0.068 A 
HETATM   26  C   UNL     1      23.265  45.470  48.759  1.00  0.00     0.046 A 
BRANCH  25  27
HETATM   27  O   UNL     1      22.167  47.236  47.435  1.00  0.00    -0.356 OA
HETATM   28  C   UNL     1      21.500  48.477  47.617  1.00  0.00     0.210 C 
ENDBRANCH  25  27
ENDBRANCH  19  21
ENDBRANCH  17  19
ENDBRANCH  12  15
BRANCH   1  29
HETATM   29  C   UNL     1      28.451  47.055  55.077  1.00  0.00     0.244 C 
HETATM   30  C   UNL     1      27.138  47.813  55.264  1.00  0.00     0.035 C 
ENDBRANCH   1  29
TORSDOF 5
ENDMDL
MODEL 8
REMARK VINA RESULT:      -8.3      2.307      3.294
REMARK  5 active torsions:
REMARK  status: ('A' for Active; 'I' for Inactive)
REMARK    1  A    between atoms: C_2  and  N_3 
REMARK    2  A    between atoms: C_14  and  C_17 
REMARK       I    between atoms: C_17  and  N_19 
REMARK    3  A    between atoms: N_19  and  C_20 
REMARK    4  A    between atoms: C_20  and  C_22 
REMARK    5  A    between atoms: C_26  and  O_27 
ROOT
HETATM    1  N   UNL     1      28.511  43.084  53.293  1.00  0.00    -0.008 N 
HETATM    2  H   UNL     1      29.099  43.044  52.469  1.00  0.00     0.293 HD
HETATM    3  C   UNL     1      29.167  43.826  54.284  1.00  0.00     0.169 A 
HETATM    4  C   UNL     1      30.397  43.598  54.952  1.00  0.00     0.154 A 
HETATM    5  N   UNL     1      30.895  44.431  55.905  1.00  0.00    -0.271 NA
HETATM    6  C   UNL     1      30.199  45.538  56.226  1.00  0.00     0.117 A 
HETATM    7  C   UNL     1      29.004  45.881  55.642  1.00  0.00     0.034 A 
HETATM    8  C   UNL     1      28.482  45.023  54.660  1.00  0.00     0.014 A 
HETATM    9  C   UNL     1      27.294  45.043  53.827  1.00  0.00     0.012 A 
HETATM   10  C   UNL     1      26.208  45.930  53.689  1.00  0.00     0.016 A 
HETATM   11  C   UNL     1      25.210  45.657  52.765  1.00  0.00     0.018 A 
HETATM   12  C   UNL     1      25.295  44.512  51.966  1.00  0.00     0.034 A 
HETATM   13  C   UNL     1      26.384  43.638  52.069  1.00  0.00     0.055 A 
HETATM   14  C   UNL     1      27.391  43.861  53.029  1.00  0.00     0.152 A 
ENDROOT
BRANCH  12  15
HETATM   15  C   UNL     1      24.188  44.269  50.992  1.00  0.00     0.252 C 
HETATM   16  O   UNL     1      23.459  43.291  51.122  1.00  0.00    -0.268 OA
HETATM   17  N   UNL     1      24.060  45.166  49.954  1.00  0.00    -0.349 N 
HETATM   18  H   UNL     1      24.766  45.868  49.799  1.00  0.00     0.163 HD
BRANCH  17  19
HETATM   19  C   UNL     1      23.056  45.002  48.914  1.00  0.00     0.114 C 
HETATM   20  C   UNL     1      23.636  44.262  47.705  1.00  0.00     0.037 C 
BRANCH  19  21
HETATM   21  C   UNL     1      22.484  46.359  48.545  1.00  0.00    -0.033 A 
HETATM   22  C   UNL     1      21.486  46.442  47.560  1.00  0.00     0.009 A 
HETATM   23  C   UNL     1      20.925  47.671  47.221  1.00  0.00     0.003 A 
HETATM   24  C   UNL     1      21.346  48.830  47.871  1.00  0.00     0.037 A 
HETATM   25  C   UNL     1      22.327  48.774  48.862  1.00  0.00     0.068 A 
HETATM   26  C   UNL     1      22.897  47.540  49.192  1.00  0.00     0.046 A 
BRANCH  25  27
HETATM   27  O   UNL     1      22.635  49.980  49.429  1.00  0.00    -0.356 OA
HETATM   28  C   UNL     1      23.289  50.934  48.604  1.00  0.00     0.210 C 
ENDBRANCH  25  27
ENDBRANCH  19  21
ENDBRANCH  17  19
ENDBRANCH  12  15
BRANCH   1  29
HETATM   29  C   UNL     1      28.239  41.673  53.665  1.00  0.00     0.244 C 
HETATM   30  C   UNL     1      28.854  40.630  52.734  1.00  0.00     0.035 C 
ENDBRANCH   1  29
TORSDOF 5
ENDMDL
MODEL 9
REMARK VINA RESULT:      -8.2      3.123      4.946
REMARK  5 active torsions:
REMARK  status: ('A' for Active; 'I' for Inactive)
REMARK    1  A    between atoms: C_2  and  N_3 
REMARK    2  A    between atoms: C_14  and  C_17 
REMARK       I    between atoms: C_17  and  N_19 
REMARK    3  A    between atoms: N_19  and  C_20 
REMARK    4  A    between atoms: C_20  and  C_22 
REMARK    5  A    between atoms: C_26  and  O_27 
ROOT
HETATM    1  N   UNL     1      29.331  44.131  54.302  1.00  0.00    -0.008 N 
HETATM    2  H   UNL     1      30.066  44.377  53.650  1.00  0.00     0.293 HD
HETATM    3  C   UNL     1      29.632  44.684  55.554  1.00  0.00     0.169 A 
HETATM    4  C   UNL     1      30.728  44.463  56.427  1.00  0.00     0.154 A 
HETATM    5  N   UNL     1      30.867  45.091  57.625  1.00  0.00    -0.271 NA
HETATM    6  C   UNL     1      29.929  45.980  58.004  1.00  0.00     0.117 A 
HETATM    7  C   UNL     1      28.829  46.294  57.244  1.00  0.00     0.034 A 
HETATM    8  C   UNL     1      28.677  45.647  56.007  1.00  0.00     0.014 A 
HETATM    9  C   UNL     1      27.692  45.714  54.943  1.00  0.00     0.012 A 
HETATM   10  C   UNL     1      26.510  46.455  54.748  1.00  0.00     0.016 A 
HETATM   11  C   UNL     1      25.780  46.290  53.580  1.00  0.00     0.018 A 
HETATM   12  C   UNL     1      26.229  45.402  52.597  1.00  0.00     0.034 A 
HETATM   13  C   UNL     1      27.421  44.683  52.762  1.00  0.00     0.055 A 
HETATM   14  C   UNL     1      28.160  44.793  53.957  1.00  0.00     0.152 A 
ENDROOT
BRANCH  12  15
HETATM   15  C   UNL     1      25.400  45.264  51.362  1.00  0.00     0.252 C 
HETATM   16  O   UNL     1      24.942  46.263  50.817  1.00  0.00    -0.268 OA
HETATM   17  N   UNL     1      25.163  43.986  50.905  1.00  0.00    -0.349 N 
HETATM   18  H   UNL     1      25.431  43.190  51.461  1.00  0.00     0.163 HD
BRANCH  17  19
HETATM   19  C   UNL     1      24.324  43.727  49.746  1.00  0.00     0.114 C 
HETATM   20  C   UNL     1      22.890  43.396  50.170  1.00  0.00     0.037 C 
BRANCH  19  21
HETATM   21  C   UNL     1      24.949  42.627  48.905  1.00  0.00    -0.033 A 
HETATM   22  C   UNL     1      24.125  41.815  48.109  1.00  0.00     0.009 A 
HETATM   23  C   UNL     1      24.675  40.816  47.308  1.00  0.00     0.003 A 
HETATM   24  C   UNL     1      26.056  40.626  47.286  1.00  0.00     0.037 A 
HETATM   25  C   UNL     1      26.897  41.427  48.058  1.00  0.00     0.068 A 
HETATM   26  C   UNL     1      26.342  42.420  48.870  1.00  0.00     0.046 A 
BRANCH  25  27
HETATM   27  O   UNL     1      28.229  41.143  47.930  1.00  0.00    -0.356 OA
HETATM   28  C   UNL     1      28.726  40.025  48.652  1.00  0.00     0.210 C 
ENDBRANCH  25  27
ENDBRANCH  19  21
ENDBRANCH  17  19
ENDBRANCH  12  15
BRANCH   1  29
HETATM   29  C   UNL     1      29.258  42.649  54.289  1.00  0.00     0.244 C 
HETATM   30  C   UNL     1      29.710  41.992  52.987  1.00  0.00     0.035 C 
ENDBRANCH   1  29
TORSDOF 5
ENDMDL
MODEL 10
REMARK VINA RESULT:      -8.1      2.990      5.043
REMARK  5 active torsions:
REMARK  status: ('A' for Active; 'I' for Inactive)
REMARK    1  A    between atoms: C_2  and  N_3 
REMARK    2  A    between atoms: C_14  and  C_17 
REMARK       I    between atoms: C_17  and  N_19 
REMARK    3  A    between atoms: N_19  and  C_20 
REMARK    4  A    between atoms: C_20  and  C_22 
REMARK    5  A    between atoms: C_26  and  O_27 
ROOT
HETATM    1  N   UNL     1      26.552  43.211  50.919  1.00  0.00    -0.008 N 
HETATM    2  H   UNL     1      27.150  43.102  50.109  1.00  0.00     0.293 HD
HETATM    3  C   UNL     1      27.340  43.151  52.077  1.00  0.00     0.169 A 
HETATM    4  C   UNL     1      28.152  42.109  52.593  1.00  0.00     0.154 A 
HETATM    5  N   UNL     1      28.860  42.217  53.749  1.00  0.00    -0.271 NA
HETATM    6  C   UNL     1      28.804  43.372  54.439  1.00  0.00     0.117 A 
HETATM    7  C   UNL     1      28.067  44.461  54.038  1.00  0.00     0.034 A 
HETATM    8  C   UNL     1      27.331  44.356  52.847  1.00  0.00     0.014 A 
HETATM    9  C   UNL     1      26.470  45.258  52.106  1.00  0.00     0.012 A 
HETATM   10  C   UNL     1      26.042  46.586  52.302  1.00  0.00     0.016 A 
HETATM   11  C   UNL     1      25.202  47.182  51.373  1.00  0.00     0.018 A 
HETATM   12  C   UNL     1      24.797  46.467  50.241  1.00  0.00     0.034 A 
HETATM   13  C   UNL     1      25.241  45.158  50.015  1.00  0.00     0.055 A 
HETATM   14  C   UNL     1      26.057  44.508  50.962  1.00  0.00     0.152 A 
ENDROOT
BRANCH  12  15
HETATM   15  C   UNL     1      23.890  47.161  49.277  1.00  0.00     0.252 C 
HETATM   16  O   UNL     1      23.108  46.509  48.593  1.00  0.00    -0.268 OA
HETATM   17  N   UNL     1      24.002  48.531  49.186  1.00  0.00    -0.349 N 
HETATM   18  H   UNL     1      24.754  49.011  49.654  1.00  0.00     0.163 HD
BRANCH  17  19
HETATM   19  C   UNL     1      23.211  49.308  48.244  1.00  0.00     0.114 C 
HETATM   20  C   UNL     1      23.983  50.541  47.768  1.00  0.00     0.037 C 
BRANCH  19  21
HETATM   21  C   UNL     1      21.878  49.666  48.878  1.00  0.00    -0.033 A 
HETATM   22  C   UNL     1      21.823  50.691  49.835  1.00  0.00     0.009 A 
HETATM   23  C   UNL     1      20.609  51.058  50.413  1.00  0.00     0.003 A 
HETATM   24  C   UNL     1      19.435  50.411  50.030  1.00  0.00     0.037 A 
HETATM   25  C   UNL     1      19.460  49.398  49.072  1.00  0.00     0.068 A 
HETATM   26  C   UNL     1      20.681  49.024  48.503  1.00  0.00     0.046 A 
BRANCH  25  27
HETATM   27  O   UNL     1      18.237  48.860  48.778  1.00  0.00    -0.356 OA
HETATM   28  C   UNL     1      17.127  49.747  48.761  1.00  0.00     0.210 C 
ENDBRANCH  25  27
ENDBRANCH  19  21
ENDBRANCH  17  19
ENDBRANCH  12  15
BRANCH   1  29
HETATM   29  C   UNL     1      25.532  42.138  50.816  1.00  0.00     0.244 C 
HETATM   30  C   UNL     1      25.777  41.120  49.705  1.00  0.00     0.035 C 
ENDBRANCH   1  29
TORSDOF 5
ENDMDL
