MODEL 1
REMARK VINA RESULT:      -8.7      0.000      0.000
REMARK  8 active torsions:
REMARK  status: ('A' for Active; 'I' for Inactive)
REMARK    1  A    between atoms: N_4  and  C_5 
REMARK    2  A    between atoms: C_5  and  C_6 
REMARK    3  A    between atoms: C_6  and  C_7 
REMARK    4  A    between atoms: C_7  and  N_8 
REMARK       I    between atoms: N_8  and  C_9 
REMARK       I    between atoms: C_9  and  N_10 
REMARK    5  A    between atoms: N_10  and  N_11 
REMARK       I    between atoms: N_11  and  C_12 
REMARK    6  A    between atoms: C_12  and  C_13 
REMARK    7  A    between atoms: C_13  and  O_14 
REMARK    8  A    between atoms: O_14  and  C_15 
ROOT
HETATM    1  N   UNL     1      23.971  45.737  50.111  1.00  0.00    -0.341 N 
HETATM    2  C   UNL     1      24.107  44.668  50.964  1.00  0.00     0.334 C 
HETATM    3  N   UNL     1      24.773  45.028  52.120  1.00  0.00    -0.249 N 
HETATM    4  O   UNL     1      23.650  43.554  50.749  1.00  0.00    -0.246 OA
HETATM    5  H   UNL     1      24.680  46.455  50.147  1.00  0.00     0.164 HD
HETATM    6  H   UNL     1      24.805  46.008  52.376  1.00  0.00     0.192 HD
ENDROOT
BRANCH   1   7
HETATM    7  C   UNL     1      23.123  45.692  48.936  1.00  0.00     0.130 C 
BRANCH   7   8
HETATM    8  C   UNL     1      22.610  47.064  48.467  1.00  0.00     0.019 C 
HETATM    9  C   UNL     1      21.084  47.104  48.354  1.00  0.00     0.013 C 
BRANCH   8  10
HETATM   10  C   UNL     1      23.067  48.160  49.449  1.00  0.00     0.156 C 
BRANCH  10  11
HETATM   11  N   UNL     1      24.260  48.864  49.004  1.00  0.00    -0.274 N 
HETATM   12  N   UNL     1      25.452  48.442  49.467  1.00  0.00    -0.177 NA
HETATM   13  C   UNL     1      26.344  49.228  48.857  1.00  0.00     0.053 A 
HETATM   14  C   UNL     1      27.796  49.036  49.084  1.00  0.00     0.072 C 
HETATM   15  C   UNL     1      25.712  50.172  48.020  1.00  0.00     0.055 A 
HETATM   16  C   UNL     1      24.359  49.918  48.132  1.00  0.00     0.028 A 
HETATM   17  C   UNL     1      23.208  50.576  47.470  1.00  0.00     0.070 C 
ENDBRANCH  10  11
ENDBRANCH   8  10
ENDBRANCH   7   8
ENDBRANCH   1   7
BRANCH   3  18
HETATM   18  N   UNL     1      24.917  44.101  53.156  1.00  0.00    -0.264 N 
HETATM   19  C   UNL     1      25.604  44.321  54.328  1.00  0.00     0.260 C 
HETATM   20  O   UNL     1      25.582  43.448  55.201  1.00  0.00    -0.269 OA
HETATM   21  H   UNL     1      24.290  43.302  53.155  1.00  0.00     0.190 HD
BRANCH  19  22
HETATM   22  C   UNL     1      26.394  45.614  54.509  1.00  0.00     0.280 C 
BRANCH  22  23
HETATM   23  O   UNL     1      27.618  45.489  53.786  1.00  0.00    -0.342 OA
BRANCH  23  24
HETATM   24  C   UNL     1      28.644  44.970  54.521  1.00  0.00     0.069 A 
HETATM   25  C   UNL     1      29.029  45.695  55.649  1.00  0.00     0.038 A 
HETATM   26  C   UNL     1      30.061  45.229  56.464  1.00  0.00     0.022 A 
HETATM   27  C   UNL     1      30.688  44.024  56.155  1.00  0.00     0.011 A 
HETATM   28 BR   UNL     1      32.094  43.394  57.249  1.00  0.00    -0.051 Br
HETATM   29  C   UNL     1      30.284  43.279  55.046  1.00  0.00     0.022 A 
HETATM   30  C   UNL     1      29.254  43.751  54.228  1.00  0.00     0.038 A 
ENDBRANCH  23  24
ENDBRANCH  22  23
ENDBRANCH  19  22
ENDBRANCH   3  18
TORSDOF 8
ENDMDL
MODEL 2
REMARK VINA RESULT:      -8.5      2.380      3.481
REMARK  8 active torsions:
REMARK  status: ('A' for Active; 'I' for Inactive)
REMARK    1  A    between atoms: N_4  and  C_5 
REMARK    2  A    between atoms: C_5  and  C_6 
REMARK    3  A    between atoms: C_6  and  C_7 
REMARK    4  A    between atoms: C_7  and  N_8 
REMARK       I    between atoms: N_8  and  C_9 
REMARK       I    between atoms: C_9  and  N_10 
REMARK    5  A    between atoms: N_10  and  N_11 
REMARK       I    between atoms: N_11  and  C_12 
REMARK    6  A    between atoms: C_12  and  C_13 
REMARK    7  A    between atoms: C_13  and  O_14 
REMARK    8  A    between atoms: O_14  and  C_15 
ROOT
HETATM    1  N   UNL     1      25.274  44.218  51.237  1.00  0.00    -0.341 N 
HETATM    2  C   UNL     1      26.234  43.408  50.680  1.00  0.00     0.334 C 
HETATM    3  N   UNL     1      26.379  42.234  51.394  1.00  0.00    -0.249 N 
HETATM    4  O   UNL     1      26.846  43.671  49.654  1.00  0.00    -0.246 OA
HETATM    5  H   UNL     1      25.125  44.147  52.233  1.00  0.00     0.164 HD
HETATM    6  H   UNL     1      25.621  41.938  51.999  1.00  0.00     0.192 HD
ENDROOT
BRANCH   1   7
HETATM    7  C   UNL     1      24.768  45.399  50.565  1.00  0.00     0.130 C 
BRANCH   7   8
HETATM    8  C   UNL     1      25.076  46.723  51.285  1.00  0.00     0.019 C 
HETATM    9  C   UNL     1      25.475  46.509  52.747  1.00  0.00     0.013 C 
BRANCH   8  10
HETATM   10  C   UNL     1      26.217  47.462  50.558  1.00  0.00     0.156 C 
BRANCH  10  11
HETATM   11  N   UNL     1      25.741  48.433  49.584  1.00  0.00    -0.274 N 
HETATM   12  N   UNL     1      24.415  48.494  49.351  1.00  0.00    -0.177 NA
HETATM   13  C   UNL     1      24.278  49.490  48.472  1.00  0.00     0.053 A 
HETATM   14  C   UNL     1      22.934  49.894  47.996  1.00  0.00     0.072 C 
HETATM   15  C   UNL     1      25.527  50.048  48.125  1.00  0.00     0.055 A 
HETATM   16  C   UNL     1      26.462  49.345  48.858  1.00  0.00     0.028 A 
HETATM   17  C   UNL     1      27.935  49.501  48.923  1.00  0.00     0.070 C 
ENDBRANCH  10  11
ENDBRANCH   8  10
ENDBRANCH   7   8
ENDBRANCH   1   7
BRANCH   3  18
HETATM   18  N   UNL     1      27.236  41.235  50.924  1.00  0.00    -0.264 N 
HETATM   19  C   UNL     1      28.333  40.749  51.598  1.00  0.00     0.260 C 
HETATM   20  O   UNL     1      28.958  39.803  51.108  1.00  0.00    -0.269 OA
HETATM   21  H   UNL     1      26.907  40.667  50.149  1.00  0.00     0.190 HD
BRANCH  19  22
HETATM   22  C   UNL     1      28.766  41.402  52.908  1.00  0.00     0.280 C 
BRANCH  22  23
HETATM   23  O   UNL     1      28.968  42.793  52.662  1.00  0.00    -0.342 OA
BRANCH  23  24
HETATM   24  C   UNL     1      29.206  43.526  53.788  1.00  0.00     0.069 A 
HETATM   25  C   UNL     1      30.326  43.165  54.538  1.00  0.00     0.038 A 
HETATM   26  C   UNL     1      30.651  43.869  55.698  1.00  0.00     0.022 A 
HETATM   27  C   UNL     1      29.862  44.949  56.088  1.00  0.00     0.011 A 
HETATM   28 BR   UNL     1      30.291  45.900  57.663  1.00  0.00    -0.051 Br
HETATM   29  C   UNL     1      28.760  45.335  55.323  1.00  0.00     0.022 A 
HETATM   30  C   UNL     1      28.433  44.623  54.165  1.00  0.00     0.038 A 
ENDBRANCH  23  24
ENDBRANCH  22  23
ENDBRANCH  19  22
ENDBRANCH   3  18
TORSDOF 8
ENDMDL
MODEL 3
REMARK VINA RESULT:      -8.3      5.026     10.045
REMARK  8 active torsions:
REMARK  status: ('A' for Active; 'I' for Inactive)
REMARK    1  A    between atoms: N_4  and  C_5 
REMARK    2  A    between atoms: C_5  and  C_6 
REMARK    3  A    between atoms: C_6  and  C_7 
REMARK    4  A    between atoms: C_7  and  N_8 
REMARK       I    between atoms: N_8  and  C_9 
REMARK       I    between atoms: C_9  and  N_10 
REMARK    5  A    between atoms: N_10  and  N_11 
REMARK       I    between atoms: N_11  and  C_12 
REMARK    6  A    between atoms: C_12  and  C_13 
REMARK    7  A    between atoms: C_13  and  O_14 
REMARK    8  A    between atoms: O_14  and  C_15 
ROOT
HETATM    1  N   UNL     1      24.953  46.558  51.665  1.00  0.00    -0.341 N 
HETATM    2  C   UNL     1      25.150  46.927  50.356  1.00  0.00     0.334 C 
HETATM    3  N   UNL     1      24.357  48.005  50.011  1.00  0.00    -0.249 N 
HETATM    4  O   UNL     1      25.961  46.400  49.607  1.00  0.00    -0.246 OA
HETATM    5  H   UNL     1      24.044  46.736  52.067  1.00  0.00     0.164 HD
HETATM    6  H   UNL     1      23.990  48.593  50.751  1.00  0.00     0.192 HD
ENDROOT
BRANCH   1   7
HETATM    7  C   UNL     1      25.813  45.609  52.343  1.00  0.00     0.130 C 
BRANCH   7   8
HETATM    8  C   UNL     1      26.637  46.204  53.497  1.00  0.00     0.019 C 
HETATM    9  C   UNL     1      26.022  47.496  54.042  1.00  0.00     0.013 C 
BRANCH   8  10
HETATM   10  C   UNL     1      26.749  45.181  54.645  1.00  0.00     0.156 C 
BRANCH  10  11
HETATM   11  N   UNL     1      28.097  45.071  55.181  1.00  0.00    -0.274 N 
HETATM   12  N   UNL     1      28.407  45.808  56.266  1.00  0.00    -0.177 NA
HETATM   13  C   UNL     1      29.666  45.465  56.553  1.00  0.00     0.053 A 
HETATM   14  C   UNL     1      30.355  46.045  57.730  1.00  0.00     0.072 C 
HETATM   15  C   UNL     1      30.167  44.522  55.630  1.00  0.00     0.055 A 
HETATM   16  C   UNL     1      29.132  44.282  54.748  1.00  0.00     0.028 A 
HETATM   17  C   UNL     1      29.066  43.369  53.582  1.00  0.00     0.070 C 
ENDBRANCH  10  11
ENDBRANCH   8  10
ENDBRANCH   7   8
ENDBRANCH   1   7
BRANCH   3  18
HETATM   18  N   UNL     1      24.491  48.592  48.750  1.00  0.00    -0.264 N 
HETATM   19  C   UNL     1      23.906  49.774  48.358  1.00  0.00     0.260 C 
HETATM   20  O   UNL     1      24.176  50.227  47.241  1.00  0.00    -0.269 OA
HETATM   21  H   UNL     1      25.246  48.256  48.159  1.00  0.00     0.190 HD
BRANCH  19  22
HETATM   22  C   UNL     1      22.924  50.477  49.291  1.00  0.00     0.280 C 
BRANCH  22  23
HETATM   23  O   UNL     1      21.745  49.677  49.374  1.00  0.00    -0.342 OA
BRANCH  23  24
HETATM   24  C   UNL     1      20.586  50.397  49.354  1.00  0.00     0.069 A 
HETATM   25  C   UNL     1      19.550  49.927  50.163  1.00  0.00     0.038 A 
HETATM   26  C   UNL     1      18.334  50.609  50.213  1.00  0.00     0.022 A 
HETATM   27  C   UNL     1      18.171  51.774  49.467  1.00  0.00     0.011 A 
HETATM   28 BR   UNL     1      16.522  52.696  49.523  1.00  0.00    -0.051 Br
HETATM   29  C   UNL     1      19.215  52.266  48.683  1.00  0.00     0.022 A 
HETATM   30  C   UNL     1      20.430  51.577  48.629  1.00  0.00     0.038 A 
ENDBRANCH  23  24
ENDBRANCH  22  23
ENDBRANCH  19  22
ENDBRANCH   3  18
TORSDOF 8
ENDMDL
MODEL 4
REMARK VINA RESULT:      -8.2      4.698      9.441
REMARK  8 active torsions:
REMARK  status: ('A' for Active; 'I' for Inactive)
REMARK    1  A    between atoms: N_4  and  C_5 
REMARK    2  A    between atoms: C_5  and  C_6 
REMARK    3  A    between atoms: C_6  and  C_7 
REMARK    4  A    between atoms: C_7  and  N_8 
REMARK       I    between atoms: N_8  and  C_9 
REMARK       I    between atoms: C_9  and  N_10 
REMARK    5  A    between atoms: N_10  and  N_11 
REMARK       I    between atoms: N_11  and  C_12 
REMARK    6  A    between atoms: C_12  and  C_13 
REMARK    7  A    between atoms: C_13  and  O_14 
REMARK    8  A    between atoms: O_14  and  C_15 
ROOT
HETATM    1  N   UNL     1      24.838  46.098  51.403  1.00  0.00    -0.341 N 
HETATM    2  C   UNL     1      25.573  46.596  50.354  1.00  0.00     0.334 C 
HETATM    3  N   UNL     1      25.204  47.893  50.052  1.00  0.00    -0.249 N 
HETATM    4  O   UNL     1      26.474  45.986  49.794  1.00  0.00    -0.246 OA
HETATM    5  H   UNL     1      23.903  46.457  51.529  1.00  0.00     0.164 HD
HETATM    6  H   UNL     1      24.721  48.437  50.758  1.00  0.00     0.192 HD
ENDROOT
BRANCH   1   7
HETATM    7  C   UNL     1      25.172  44.852  52.064  1.00  0.00     0.130 C 
BRANCH   7   8
HETATM    8  C   UNL     1      26.030  45.011  53.331  1.00  0.00     0.019 C 
HETATM    9  C   UNL     1      25.598  44.059  54.448  1.00  0.00     0.013 C 
BRANCH   8  10
HETATM   10  C   UNL     1      27.512  44.750  52.997  1.00  0.00     0.156 C 
BRANCH  10  11
HETATM   11  N   UNL     1      28.395  44.925  54.141  1.00  0.00    -0.274 N 
HETATM   12  N   UNL     1      29.206  43.903  54.475  1.00  0.00    -0.177 NA
HETATM   13  C   UNL     1      29.919  44.367  55.506  1.00  0.00     0.053 A 
HETATM   14  C   UNL     1      30.968  43.529  56.133  1.00  0.00     0.072 C 
HETATM   15  C   UNL     1      29.540  45.683  55.845  1.00  0.00     0.055 A 
HETATM   16  C   UNL     1      28.548  46.025  54.946  1.00  0.00     0.028 A 
HETATM   17  C   UNL     1      27.788  47.289  54.801  1.00  0.00     0.070 C 
ENDBRANCH  10  11
ENDBRANCH   8  10
ENDBRANCH   7   8
ENDBRANCH   1   7
BRANCH   3  18
HETATM   18  N   UNL     1      25.910  48.608  49.080  1.00  0.00    -0.264 N 
HETATM   19  C   UNL     1      25.366  49.549  48.236  1.00  0.00     0.260 C 
HETATM   20  O   UNL     1      26.118  50.172  47.480  1.00  0.00    -0.269 OA
HETATM   21  H   UNL     1      26.923  48.610  49.149  1.00  0.00     0.190 HD
BRANCH  19  22
HETATM   22  C   UNL     1      23.857  49.779  48.232  1.00  0.00     0.280 C 
BRANCH  22  23
HETATM   23  O   UNL     1      23.516  50.493  49.419  1.00  0.00    -0.342 OA
BRANCH  23  24
HETATM   24  C   UNL     1      22.202  50.851  49.492  1.00  0.00     0.069 A 
HETATM   25  C   UNL     1      21.595  51.231  48.294  1.00  0.00     0.038 A 
HETATM   26  C   UNL     1      20.250  51.600  48.275  1.00  0.00     0.022 A 
HETATM   27  C   UNL     1      19.512  51.563  49.456  1.00  0.00     0.011 A 
HETATM   28 BR   UNL     1      17.692  52.072  49.437  1.00  0.00    -0.051 Br
HETATM   29  C   UNL     1      20.105  51.151  50.650  1.00  0.00     0.022 A 
HETATM   30  C   UNL     1      21.455  50.789  50.668  1.00  0.00     0.038 A 
ENDBRANCH  23  24
ENDBRANCH  22  23
ENDBRANCH  19  22
ENDBRANCH   3  18
TORSDOF 8
ENDMDL
MODEL 5
REMARK VINA RESULT:      -8.0      1.988      3.061
REMARK  8 active torsions:
REMARK  status: ('A' for Active; 'I' for Inactive)
REMARK    1  A    between atoms: N_4  and  C_5 
REMARK    2  A    between atoms: C_5  and  C_6 
REMARK    3  A    between atoms: C_6  and  C_7 
REMARK    4  A    between atoms: C_7  and  N_8 
REMARK       I    between atoms: N_8  and  C_9 
REMARK       I    between atoms: C_9  and  N_10 
REMARK    5  A    between atoms: N_10  and  N_11 
REMARK       I    between atoms: N_11  and  C_12 
REMARK    6  A    between atoms: C_12  and  C_13 
REMARK    7  A    between atoms: C_13  and  O_14 
REMARK    8  A    between atoms: O_14  and  C_15 
ROOT
HETATM    1  N   UNL     1      25.113  44.651  50.256  1.00  0.00    -0.341 N 
HETATM    2  C   UNL     1      25.231  43.536  51.051  1.00  0.00     0.334 C 
HETATM    3  N   UNL     1      26.460  42.927  50.883  1.00  0.00    -0.249 N 
HETATM    4  O   UNL     1      24.377  43.161  51.842  1.00  0.00    -0.246 OA
HETATM    5  H   UNL     1      25.629  44.663  49.389  1.00  0.00     0.164 HD
HETATM    6  H   UNL     1      27.222  43.471  50.496  1.00  0.00     0.192 HD
ENDROOT
BRANCH   1   7
HETATM    7  C   UNL     1      24.023  45.596  50.400  1.00  0.00     0.130 C 
BRANCH   7   8
HETATM    8  C   UNL     1      24.410  47.061  50.137  1.00  0.00     0.019 C 
HETATM    9  C   UNL     1      25.926  47.265  50.115  1.00  0.00     0.013 C 
BRANCH   8  10
HETATM   10  C   UNL     1      23.823  47.525  48.789  1.00  0.00     0.156 C 
BRANCH  10  11
HETATM   11  N   UNL     1      23.340  48.898  48.819  1.00  0.00    -0.274 N 
HETATM   12  N   UNL     1      22.097  49.119  49.289  1.00  0.00    -0.177 NA
HETATM   13  C   UNL     1      21.956  50.447  49.245  1.00  0.00     0.053 A 
HETATM   14  C   UNL     1      20.710  51.088  49.730  1.00  0.00     0.072 C 
HETATM   15  C   UNL     1      23.107  51.071  48.720  1.00  0.00     0.055 A 
HETATM   16  C   UNL     1      23.992  50.046  48.450  1.00  0.00     0.028 A 
HETATM   17  C   UNL     1      25.370  50.096  47.906  1.00  0.00     0.070 C 
ENDBRANCH  10  11
ENDBRANCH   8  10
ENDBRANCH   7   8
ENDBRANCH   1   7
BRANCH   3  18
HETATM   18  N   UNL     1      26.809  41.835  51.682  1.00  0.00    -0.264 N 
HETATM   19  C   UNL     1      27.915  41.770  52.500  1.00  0.00     0.260 C 
HETATM   20  O   UNL     1      28.061  40.778  53.221  1.00  0.00    -0.269 OA
HETATM   21  H   UNL     1      26.091  41.137  51.855  1.00  0.00     0.190 HD
BRANCH  19  22
HETATM   22  C   UNL     1      28.940  42.900  52.474  1.00  0.00     0.280 C 
BRANCH  22  23
HETATM   23  O   UNL     1      28.304  44.085  52.951  1.00  0.00    -0.342 OA
BRANCH  23  24
HETATM   24  C   UNL     1      28.781  44.524  54.151  1.00  0.00     0.069 A 
HETATM   25  C   UNL     1      29.867  43.826  54.681  1.00  0.00     0.038 A 
HETATM   26  C   UNL     1      30.426  44.216  55.898  1.00  0.00     0.022 A 
HETATM   27  C   UNL     1      29.905  45.321  56.568  1.00  0.00     0.011 A 
HETATM   28 BR   UNL     1      30.652  45.847  58.223  1.00  0.00    -0.051 Br
HETATM   29  C   UNL     1      28.841  46.042  56.027  1.00  0.00     0.022 A 
HETATM   30  C   UNL     1      28.279  45.645  54.810  1.00  0.00     0.038 A 
ENDBRANCH  23  24
ENDBRANCH  22  23
ENDBRANCH  19  22
ENDBRANCH   3  18
TORSDOF 8
ENDMDL
MODEL 6
REMARK VINA RESULT:      -7.9      4.368      9.162
REMARK  8 active torsions:
REMARK  status: ('A' for Active; 'I' for Inactive)
REMARK    1  A    between atoms: N_4  and  C_5 
REMARK    2  A    between atoms: C_5  and  C_6 
REMARK    3  A    between atoms: C_6  and  C_7 
REMARK    4  A    between atoms: C_7  and  N_8 
REMARK       I    between atoms: N_8  and  C_9 
REMARK       I    between atoms: C_9  and  N_10 
REMARK    5  A    between atoms: N_10  and  N_11 
REMARK       I    between atoms: N_11  and  C_12 
REMARK    6  A    between atoms: C_12  and  C_13 
REMARK    7  A    between atoms: C_13  and  O_14 
REMARK    8  A    between atoms: O_14  and  C_15 
ROOT
HETATM    1  N   UNL     1      26.110  43.820  51.101  1.00  0.00    -0.341 N 
HETATM    2  C   UNL     1      26.455  44.950  50.401  1.00  0.00     0.334 C 
HETATM    3  N   UNL     1      25.665  46.026  50.759  1.00  0.00    -0.249 N 
HETATM    4  O   UNL     1      27.378  45.008  49.600  1.00  0.00    -0.246 OA
HETATM    5  H   UNL     1      25.150  43.733  51.403  1.00  0.00     0.164 HD
HETATM    6  H   UNL     1      25.180  45.996  51.649  1.00  0.00     0.192 HD
ENDROOT
BRANCH   1   7
HETATM    7  C   UNL     1      26.918  42.616  51.084  1.00  0.00     0.130 C 
BRANCH   7   8
HETATM    8  C   UNL     1      27.727  42.371  52.369  1.00  0.00     0.019 C 
HETATM    9  C   UNL     1      28.392  40.993  52.381  1.00  0.00     0.013 C 
BRANCH   8  10
HETATM   10  C   UNL     1      28.815  43.453  52.519  1.00  0.00     0.156 C 
BRANCH  10  11
HETATM   11  N   UNL     1      28.553  44.380  53.610  1.00  0.00    -0.274 N 
HETATM   12  N   UNL     1      27.556  45.272  53.454  1.00  0.00    -0.177 NA
HETATM   13  C   UNL     1      27.519  45.935  54.613  1.00  0.00     0.053 A 
HETATM   14  C   UNL     1      26.505  46.991  54.844  1.00  0.00     0.072 C 
HETATM   15  C   UNL     1      28.515  45.478  55.502  1.00  0.00     0.055 A 
HETATM   16  C   UNL     1      29.175  44.469  54.829  1.00  0.00     0.028 A 
HETATM   17  C   UNL     1      30.298  43.606  55.268  1.00  0.00     0.070 C 
ENDBRANCH  10  11
ENDBRANCH   8  10
ENDBRANCH   7   8
ENDBRANCH   1   7
BRANCH   3  18
HETATM   18  N   UNL     1      25.933  47.291  50.230  1.00  0.00    -0.264 N 
HETATM   19  C   UNL     1      25.030  48.072  49.544  1.00  0.00     0.260 C 
HETATM   20  O   UNL     1      25.368  49.210  49.203  1.00  0.00    -0.269 OA
HETATM   21  H   UNL     1      26.764  47.769  50.565  1.00  0.00     0.190 HD
BRANCH  19  22
HETATM   22  C   UNL     1      23.654  47.508  49.197  1.00  0.00     0.280 C 
BRANCH  22  23
HETATM   23  O   UNL     1      23.111  48.291  48.136  1.00  0.00    -0.342 OA
BRANCH  23  24
HETATM   24  C   UNL     1      22.054  49.071  48.508  1.00  0.00     0.069 A 
HETATM   25  C   UNL     1      22.148  50.429  48.202  1.00  0.00     0.038 A 
HETATM   26  C   UNL     1      21.107  51.296  48.535  1.00  0.00     0.022 A 
HETATM   27  C   UNL     1      19.965  50.791  49.154  1.00  0.00     0.011 A 
HETATM   28 BR   UNL     1      18.557  51.964  49.617  1.00  0.00    -0.051 Br
HETATM   29  C   UNL     1      19.853  49.428  49.431  1.00  0.00     0.022 A 
HETATM   30  C   UNL     1      20.900  48.563  49.103  1.00  0.00     0.038 A 
ENDBRANCH  23  24
ENDBRANCH  22  23
ENDBRANCH  19  22
ENDBRANCH   3  18
TORSDOF 8
ENDMDL
MODEL 7
REMARK VINA RESULT:      -7.8      2.798      3.955
REMARK  8 active torsions:
REMARK  status: ('A' for Active; 'I' for Inactive)
REMARK    1  A    between atoms: N_4  and  C_5 
REMARK    2  A    between atoms: C_5  and  C_6 
REMARK    3  A    between atoms: C_6  and  C_7 
REMARK    4  A    between atoms: C_7  and  N_8 
REMARK       I    between atoms: N_8  and  C_9 
REMARK       I    between atoms: C_9  and  N_10 
REMARK    5  A    between atoms: N_10  and  N_11 
REMARK       I    between atoms: N_11  and  C_12 
REMARK    6  A    between atoms: C_12  and  C_13 
REMARK    7  A    between atoms: C_13  and  O_14 
REMARK    8  A    between atoms: O_14  and  C_15 
ROOT
HETATM    1  N   UNL     1      25.874  44.322  50.718  1.00  0.00    -0.341 N 
HETATM    2  C   UNL     1      25.775  42.992  50.388  1.00  0.00     0.334 C 
HETATM    3  N   UNL     1      26.957  42.515  49.855  1.00  0.00    -0.249 N 
HETATM    4  O   UNL     1      24.782  42.305  50.590  1.00  0.00    -0.246 OA
HETATM    5  H   UNL     1      26.513  44.889  50.180  1.00  0.00     0.164 HD
HETATM    6  H   UNL     1      27.813  43.025  50.041  1.00  0.00     0.192 HD
ENDROOT
BRANCH   1   7
HETATM    7  C   UNL     1      24.861  45.009  51.495  1.00  0.00     0.130 C 
BRANCH   7   8
HETATM    8  C   UNL     1      24.969  46.543  51.470  1.00  0.00     0.019 C 
HETATM    9  C   UNL     1      26.083  47.061  52.382  1.00  0.00     0.013 C 
BRANCH   8  10
HETATM   10  C   UNL     1      25.235  47.027  50.031  1.00  0.00     0.156 C 
BRANCH  10  11
HETATM   11  N   UNL     1      24.127  47.787  49.471  1.00  0.00    -0.274 N 
HETATM   12  N   UNL     1      24.181  49.131  49.547  1.00  0.00    -0.177 NA
HETATM   13  C   UNL     1      23.078  49.544  48.916  1.00  0.00     0.053 A 
HETATM   14  C   UNL     1      22.801  50.991  48.754  1.00  0.00     0.072 C 
HETATM   15  C   UNL     1      22.307  48.455  48.458  1.00  0.00     0.055 A 
HETATM   16  C   UNL     1      23.006  47.324  48.830  1.00  0.00     0.028 A 
HETATM   17  C   UNL     1      22.696  45.893  48.601  1.00  0.00     0.070 C 
ENDBRANCH  10  11
ENDBRANCH   8  10
ENDBRANCH   7   8
ENDBRANCH   1   7
BRANCH   3  18
HETATM   18  N   UNL     1      27.086  41.157  49.554  1.00  0.00    -0.264 N 
HETATM   19  C   UNL     1      27.777  40.238  50.310  1.00  0.00     0.260 C 
HETATM   20  O   UNL     1      27.740  39.049  49.978  1.00  0.00    -0.269 OA
HETATM   21  H   UNL     1      26.445  40.770  48.866  1.00  0.00     0.190 HD
BRANCH  19  22
HETATM   22  C   UNL     1      28.588  40.708  51.514  1.00  0.00     0.280 C 
BRANCH  22  23
HETATM   23  O   UNL     1      27.677  41.185  52.503  1.00  0.00    -0.342 OA
BRANCH  23  24
HETATM   24  C   UNL     1      28.164  42.215  53.254  1.00  0.00     0.069 A 
HETATM   25  C   UNL     1      27.221  43.095  53.786  1.00  0.00     0.038 A 
HETATM   26  C   UNL     1      27.631  44.168  54.578  1.00  0.00     0.022 A 
HETATM   27  C   UNL     1      28.986  44.340  54.851  1.00  0.00     0.011 A 
HETATM   28 BR   UNL     1      29.548  45.798  55.914  1.00  0.00    -0.051 Br
HETATM   29  C   UNL     1      29.930  43.442  54.350  1.00  0.00     0.022 A 
HETATM   30  C   UNL     1      29.517  42.372  53.551  1.00  0.00     0.038 A 
ENDBRANCH  23  24
ENDBRANCH  22  23
ENDBRANCH  19  22
ENDBRANCH   3  18
TORSDOF 8
ENDMDL
MODEL 8
REMARK VINA RESULT:      -7.6      2.834      4.338
REMARK  8 active torsions:
REMARK  status: ('A' for Active; 'I' for Inactive)
REMARK    1  A    between atoms: N_4  and  C_5 
REMARK    2  A    between atoms: C_5  and  C_6 
REMARK    3  A    between atoms: C_6  and  C_7 
REMARK    4  A    between atoms: C_7  and  N_8 
REMARK       I    between atoms: N_8  and  C_9 
REMARK       I    between atoms: C_9  and  N_10 
REMARK    5  A    between atoms: N_10  and  N_11 
REMARK       I    between atoms: N_11  and  C_12 
REMARK    6  A    between atoms: C_12  and  C_13 
REMARK    7  A    between atoms: C_13  and  O_14 
REMARK    8  A    between atoms: O_14  and  C_15 
ROOT
HETATM    1  N   UNL     1      20.914  45.955  49.174  1.00  0.00    -0.341 N 
HETATM    2  C   UNL     1      22.135  45.771  48.571  1.00  0.00     0.334 C 
HETATM    3  N   UNL     1      23.140  45.613  49.506  1.00  0.00    -0.249 N 
HETATM    4  O   UNL     1      22.301  45.706  47.361  1.00  0.00    -0.246 OA
HETATM    5  H   UNL     1      20.904  46.391  50.084  1.00  0.00     0.164 HD
HETATM    6  H   UNL     1      22.887  45.332  50.446  1.00  0.00     0.192 HD
ENDROOT
BRANCH   1   7
HETATM    7  C   UNL     1      19.668  45.922  48.434  1.00  0.00     0.130 C 
BRANCH   7   8
HETATM    8  C   UNL     1      18.871  47.238  48.467  1.00  0.00     0.019 C 
HETATM    9  C   UNL     1      17.359  47.000  48.430  1.00  0.00     0.013 C 
BRANCH   8  10
HETATM   10  C   UNL     1      19.221  48.032  49.741  1.00  0.00     0.156 C 
BRANCH  10  11
HETATM   11  N   UNL     1      19.897  49.290  49.462  1.00  0.00    -0.274 N 
HETATM   12  N   UNL     1      21.185  49.242  49.072  1.00  0.00    -0.177 NA
HETATM   13  C   UNL     1      21.511  50.517  48.843  1.00  0.00     0.053 A 
HETATM   14  C   UNL     1      22.863  50.871  48.349  1.00  0.00     0.072 C 
HETATM   15  C   UNL     1      20.431  51.383  49.113  1.00  0.00     0.055 A 
HETATM   16  C   UNL     1      19.393  50.564  49.515  1.00  0.00     0.028 A 
HETATM   17  C   UNL     1      18.005  50.908  49.906  1.00  0.00     0.070 C 
ENDBRANCH  10  11
ENDBRANCH   8  10
ENDBRANCH   7   8
ENDBRANCH   1   7
BRANCH   3  18
HETATM   18  N   UNL     1      24.438  45.311  49.086  1.00  0.00    -0.264 N 
HETATM   19  C   UNL     1      25.591  45.807  49.652  1.00  0.00     0.260 C 
HETATM   20  O   UNL     1      26.679  45.392  49.241  1.00  0.00    -0.269 OA
HETATM   21  H   UNL     1      24.555  44.503  48.482  1.00  0.00     0.190 HD
BRANCH  19  22
HETATM   22  C   UNL     1      25.499  46.869  50.745  1.00  0.00     0.280 C 
BRANCH  22  23
HETATM   23  O   UNL     1      25.035  46.237  51.937  1.00  0.00    -0.342 OA
BRANCH  23  24
HETATM   24  C   UNL     1      25.952  46.221  52.948  1.00  0.00     0.069 A 
HETATM   25  C   UNL     1      26.735  45.071  53.057  1.00  0.00     0.038 A 
HETATM   26  C   UNL     1      27.706  44.975  54.054  1.00  0.00     0.022 A 
HETATM   27  C   UNL     1      27.903  46.045  54.924  1.00  0.00     0.011 A 
HETATM   28 BR   UNL     1      29.209  45.916  56.284  1.00  0.00    -0.051 Br
HETATM   29  C   UNL     1      27.145  47.210  54.798  1.00  0.00     0.022 A 
HETATM   30  C   UNL     1      26.169  47.301  53.803  1.00  0.00     0.038 A 
ENDBRANCH  23  24
ENDBRANCH  22  23
ENDBRANCH  19  22
ENDBRANCH   3  18
TORSDOF 8
ENDMDL
MODEL 9
REMARK VINA RESULT:      -7.6      2.184      3.526
REMARK  8 active torsions:
REMARK  status: ('A' for Active; 'I' for Inactive)
REMARK    1  A    between atoms: N_4  and  C_5 
REMARK    2  A    between atoms: C_5  and  C_6 
REMARK    3  A    between atoms: C_6  and  C_7 
REMARK    4  A    between atoms: C_7  and  N_8 
REMARK       I    between atoms: N_8  and  C_9 
REMARK       I    between atoms: C_9  and  N_10 
REMARK    5  A    between atoms: N_10  and  N_11 
REMARK       I    between atoms: N_11  and  C_12 
REMARK    6  A    between atoms: C_12  and  C_13 
REMARK    7  A    between atoms: C_13  and  O_14 
REMARK    8  A    between atoms: O_14  and  C_15 
ROOT
HETATM    1  N   UNL     1      25.013  47.476  50.390  1.00  0.00    -0.341 N 
HETATM    2  C   UNL     1      25.350  46.160  50.185  1.00  0.00     0.334 C 
HETATM    3  N   UNL     1      25.001  45.377  51.269  1.00  0.00    -0.249 N 
HETATM    4  O   UNL     1      25.848  45.730  49.154  1.00  0.00    -0.246 OA
HETATM    5  H   UNL     1      25.002  47.812  51.342  1.00  0.00     0.164 HD
HETATM    6  H   UNL     1      24.298  45.723  51.911  1.00  0.00     0.192 HD
ENDROOT
BRANCH   1   7
HETATM    7  C   UNL     1      25.062  48.466  49.332  1.00  0.00     0.130 C 
BRANCH   7   8
HETATM    8  C   UNL     1      23.749  49.238  49.118  1.00  0.00     0.019 C 
HETATM    9  C   UNL     1      23.775  50.083  47.843  1.00  0.00     0.013 C 
BRANCH   8  10
HETATM   10  C   UNL     1      22.567  48.253  49.041  1.00  0.00     0.156 C 
BRANCH  10  11
HETATM   11  N   UNL     1      21.282  48.914  48.867  1.00  0.00    -0.274 N 
HETATM   12  N   UNL     1      20.993  49.954  49.673  1.00  0.00    -0.177 NA
HETATM   13  C   UNL     1      19.799  50.380  49.251  1.00  0.00     0.053 A 
HETATM   14  C   UNL     1      19.156  51.558  49.879  1.00  0.00     0.072 C 
HETATM   15  C   UNL     1      19.316  49.591  48.187  1.00  0.00     0.055 A 
HETATM   16  C   UNL     1      20.295  48.644  47.954  1.00  0.00     0.028 A 
HETATM   17  C   UNL     1      20.352  47.561  46.944  1.00  0.00     0.070 C 
ENDBRANCH  10  11
ENDBRANCH   8  10
ENDBRANCH   7   8
ENDBRANCH   1   7
BRANCH   3  18
HETATM   18  N   UNL     1      25.170  43.991  51.207  1.00  0.00    -0.264 N 
HETATM   19  C   UNL     1      26.340  43.320  51.481  1.00  0.00     0.260 C 
HETATM   20  O   UNL     1      26.332  42.085  51.473  1.00  0.00    -0.269 OA
HETATM   21  H   UNL     1      24.329  43.421  51.187  1.00  0.00     0.190 HD
BRANCH  19  22
HETATM   22  C   UNL     1      27.617  44.111  51.755  1.00  0.00     0.280 C 
BRANCH  22  23
HETATM   23  O   UNL     1      27.488  44.727  53.035  1.00  0.00    -0.342 OA
BRANCH  23  24
HETATM   24  C   UNL     1      28.485  44.403  53.909  1.00  0.00     0.069 A 
HETATM   25  C   UNL     1      28.733  45.318  54.934  1.00  0.00     0.038 A 
HETATM   26  C   UNL     1      29.726  45.059  55.879  1.00  0.00     0.022 A 
HETATM   27  C   UNL     1      30.451  43.872  55.805  1.00  0.00     0.011 A 
HETATM   28 BR   UNL     1      31.804  43.522  57.076  1.00  0.00    -0.051 Br
HETATM   29  C   UNL     1      30.183  42.940  54.802  1.00  0.00     0.022 A 
HETATM   30  C   UNL     1      29.193  43.204  53.852  1.00  0.00     0.038 A 
ENDBRANCH  23  24
ENDBRANCH  22  23
ENDBRANCH  19  22
ENDBRANCH   3  18
TORSDOF 8
ENDMDL
MODEL 10
REMARK VINA RESULT:      -7.5      3.321      7.803
REMARK  8 active torsions:
REMARK  status: ('A' for Active; 'I' for Inactive)
REMARK    1  A    between atoms: N_4  and  C_5 
REMARK    2  A    between atoms: C_5  and  C_6 
REMARK    3  A    between atoms: C_6  and  C_7 
REMARK    4  A    between atoms: C_7  and  N_8 
REMARK       I    between atoms: N_8  and  C_9 
REMARK       I    between atoms: C_9  and  N_10 
REMARK    5  A    between atoms: N_10  and  N_11 
REMARK       I    between atoms: N_11  and  C_12 
REMARK    6  A    between atoms: C_12  and  C_13 
REMARK    7  A    between atoms: C_13  and  O_14 
REMARK    8  A    between atoms: O_14  and  C_15 
ROOT
HETATM    1  N   UNL     1      24.447  43.972  50.043  1.00  0.00    -0.341 N 
HETATM    2  C   UNL     1      23.076  43.920  50.126  1.00  0.00     0.334 C 
HETATM    3  N   UNL     1      22.488  44.913  49.366  1.00  0.00    -0.249 N 
HETATM    4  O   UNL     1      22.456  43.071  50.751  1.00  0.00    -0.246 OA
HETATM    5  H   UNL     1      24.870  44.873  49.876  1.00  0.00     0.164 HD
HETATM    6  H   UNL     1      23.028  45.339  48.622  1.00  0.00     0.192 HD
ENDROOT
BRANCH   1   7
HETATM    7  C   UNL     1      25.298  42.917  50.557  1.00  0.00     0.130 C 
BRANCH   7   8
HETATM    8  C   UNL     1      26.520  43.412  51.349  1.00  0.00     0.019 C 
HETATM    9  C   UNL     1      27.276  44.522  50.614  1.00  0.00     0.013 C 
BRANCH   8  10
HETATM   10  C   UNL     1      26.075  43.939  52.727  1.00  0.00     0.156 C 
BRANCH  10  11
HETATM   11  N   UNL     1      27.191  44.306  53.586  1.00  0.00    -0.274 N 
HETATM   12  N   UNL     1      28.140  43.378  53.818  1.00  0.00    -0.177 NA
HETATM   13  C   UNL     1      29.040  44.007  54.579  1.00  0.00     0.053 A 
HETATM   14  C   UNL     1      30.275  43.311  55.012  1.00  0.00     0.072 C 
HETATM   15  C   UNL     1      28.649  45.334  54.853  1.00  0.00     0.055 A 
HETATM   16  C   UNL     1      27.444  45.506  54.199  1.00  0.00     0.028 A 
HETATM   17  C   UNL     1      26.571  46.701  54.109  1.00  0.00     0.070 C 
ENDBRANCH  10  11
ENDBRANCH   8  10
ENDBRANCH   7   8
ENDBRANCH   1   7
BRANCH   3  18
HETATM   18  N   UNL     1      21.096  44.960  49.241  1.00  0.00    -0.264 N 
HETATM   19  C   UNL     1      20.394  45.907  48.531  1.00  0.00     0.260 C 
HETATM   20  O   UNL     1      19.170  45.784  48.428  1.00  0.00    -0.269 OA
HETATM   21  H   UNL     1      20.579  44.122  49.489  1.00  0.00     0.190 HD
BRANCH  19  22
HETATM   22  C   UNL     1      21.135  47.093  47.918  1.00  0.00     0.280 C 
BRANCH  22  23
HETATM   23  O   UNL     1      21.514  47.972  48.976  1.00  0.00    -0.342 OA
BRANCH  23  24
HETATM   24  C   UNL     1      22.825  48.346  48.942  1.00  0.00     0.069 A 
HETATM   25  C   UNL     1      23.134  49.453  48.149  1.00  0.00     0.038 A 
HETATM   26  C   UNL     1      24.449  49.912  48.067  1.00  0.00     0.022 A 
HETATM   27  C   UNL     1      25.446  49.271  48.800  1.00  0.00     0.011 A 
HETATM   28 BR   UNL     1      27.230  49.882  48.684  1.00  0.00    -0.051 Br
HETATM   29  C   UNL     1      25.136  48.185  49.620  1.00  0.00     0.022 A 
HETATM   30  C   UNL     1      23.819  47.723  49.695  1.00  0.00     0.038 A 
ENDBRANCH  23  24
ENDBRANCH  22  23
ENDBRANCH  19  22
ENDBRANCH   3  18
TORSDOF 8
ENDMDL
