MODEL 1
REMARK VINA RESULT:     -10.3      0.000      0.000
REMARK  4 active torsions:
REMARK  status: ('A' for Active; 'I' for Inactive)
REMARK    1  A    between atoms: N_7  and  C_8 
REMARK    2  A    between atoms: C_14  and  C_15 
REMARK    3  A    between atoms: C_15  and  N_16 
REMARK       I    between atoms: N_16  and  C_17 
REMARK       I    between atoms: C_17  and  N_18 
REMARK    4  A    between atoms: N_18  and  C_19 
ROOT
HETATM    1  C   UNL     1      29.789  42.613  53.694  1.00  0.00     0.186 C 
ENDROOT
BRANCH   1   2
HETATM    2  C   UNL     1      29.125  43.802  54.382  1.00  0.00     0.084 C 
HETATM    3  C   UNL     1      29.739  44.314  55.626  1.00  0.00     0.008 A 
HETATM    4  C   UNL     1      30.851  43.716  56.235  1.00  0.00     0.014 A 
HETATM    5  C   UNL     1      29.167  45.444  56.196  1.00  0.00     0.046 A 
HETATM    6  C   UNL     1      31.388  44.264  57.404  1.00  0.00     0.001 A 
HETATM    7  C   UNL     1      30.820  45.404  57.967  1.00  0.00     0.001 A 
HETATM    8  C   UNL     1      29.709  45.995  57.366  1.00  0.00     0.018 A 
HETATM    9  C   UNL     1      27.977  46.049  55.575  1.00  0.00     0.275 C 
HETATM   10  O   UNL     1      27.517  47.084  56.052  1.00  0.00    -0.266 OA
HETATM   11  N   UNL     1      27.434  45.377  54.479  1.00  0.00    -0.229 N 
HETATM   12  N   UNL     1      28.040  44.302  53.866  1.00  0.00    -0.171 NA
BRANCH  11  13
HETATM   13  C   UNL     1      26.271  45.955  53.807  1.00  0.00     0.114 C 
HETATM   14  C   UNL     1      26.658  46.969  52.729  1.00  0.00     0.027 C 
HETATM   15  C   UNL     1      25.404  47.053  51.878  1.00  0.00     0.002 C 
HETATM   16  C   UNL     1      24.949  45.605  51.773  1.00  0.00     0.002 C 
HETATM   17  C   UNL     1      25.353  44.947  53.095  1.00  0.00     0.027 C 
ENDBRANCH  11  13
ENDBRANCH   1   2
BRANCH   1  18
HETATM   18  N   UNL     1      29.374  42.458  52.317  1.00  0.00    -0.337 N 
HETATM   19  C   UNL     1      28.989  41.218  51.880  1.00  0.00     0.317 C 
HETATM   20  N   UNL     1      28.536  41.258  50.589  1.00  0.00    -0.334 N 
HETATM   21  O   UNL     1      29.064  40.216  52.577  1.00  0.00    -0.247 OA
HETATM   22  H   UNL     1      28.927  42.021  50.056  1.00  0.00     0.165 HD
HETATM   23  H   UNL     1      28.942  43.266  51.888  1.00  0.00     0.164 HD
BRANCH  20  24
HETATM   24  C   UNL     1      28.160  40.060  49.823  1.00  0.00     0.035 C 
HETATM   25  C   UNL     1      26.680  39.658  50.052  1.00  0.00     0.035 C 
HETATM   26  C   UNL     1      26.314  38.426  49.203  1.00  0.00    -0.012 C 
HETATM   27  C   UNL     1      27.235  37.256  49.587  1.00  0.00     0.009 C 
HETATM   28  C   UNL     1      26.508  38.759  47.716  1.00  0.00     0.009 C 
HETATM   29  C   UNL     1      28.704  37.630  49.325  1.00  0.00    -0.012 C 
HETATM   30  C   UNL     1      29.072  38.859  50.175  1.00  0.00     0.035 C 
HETATM   31  C   UNL     1      28.884  37.971  47.837  1.00  0.00     0.009 C 
HETATM   32  C   UNL     1      27.971  39.146  47.452  1.00  0.00    -0.012 C 
HETATM   33  C   UNL     1      28.333  40.370  48.312  1.00  0.00     0.035 C 
ENDBRANCH  20  24
ENDBRANCH   1  18
TORSDOF 4
ENDMDL
MODEL 2
REMARK VINA RESULT:     -10.1      5.720     10.624
REMARK  4 active torsions:
REMARK  status: ('A' for Active; 'I' for Inactive)
REMARK    1  A    between atoms: N_7  and  C_8 
REMARK    2  A    between atoms: C_14  and  C_15 
REMARK    3  A    between atoms: C_15  and  N_16 
REMARK       I    between atoms: N_16  and  C_17 
REMARK       I    between atoms: C_17  and  N_18 
REMARK    4  A    between atoms: N_18  and  C_19 
ROOT
HETATM    1  C   UNL     1      24.710  47.865  49.571  1.00  0.00     0.186 C 
ENDROOT
BRANCH   1   2
HETATM    2  C   UNL     1      24.770  46.727  50.585  1.00  0.00     0.084 C 
HETATM    3  C   UNL     1      24.249  45.405  50.176  1.00  0.00     0.008 A 
HETATM    4  C   UNL     1      23.640  45.171  48.935  1.00  0.00     0.014 A 
HETATM    5  C   UNL     1      24.383  44.362  51.084  1.00  0.00     0.046 A 
HETATM    6  C   UNL     1      23.183  43.891  48.609  1.00  0.00     0.001 A 
HETATM    7  C   UNL     1      23.330  42.845  49.516  1.00  0.00     0.001 A 
HETATM    8  C   UNL     1      23.927  43.077  50.754  1.00  0.00     0.018 A 
HETATM    9  C   UNL     1      24.990  44.618  52.400  1.00  0.00     0.275 C 
HETATM   10  O   UNL     1      25.160  43.675  53.171  1.00  0.00    -0.266 OA
HETATM   11  N   UNL     1      25.314  45.943  52.693  1.00  0.00    -0.229 N 
HETATM   12  N   UNL     1      25.254  46.965  51.770  1.00  0.00    -0.171 NA
BRANCH  11  13
HETATM   13  C   UNL     1      25.949  46.244  53.975  1.00  0.00     0.114 C 
HETATM   14  C   UNL     1      27.396  45.752  54.045  1.00  0.00     0.027 C 
HETATM   15  C   UNL     1      27.973  46.565  55.190  1.00  0.00     0.002 C 
HETATM   16  C   UNL     1      27.398  47.955  54.963  1.00  0.00     0.002 C 
HETATM   17  C   UNL     1      26.016  47.736  54.343  1.00  0.00     0.027 C 
ENDBRANCH  11  13
ENDBRANCH   1   2
BRANCH   1  18
HETATM   18  N   UNL     1      23.780  48.905  49.950  1.00  0.00    -0.337 N 
HETATM   19  C   UNL     1      22.562  48.962  49.324  1.00  0.00     0.317 C 
HETATM   20  N   UNL     1      21.766  49.938  49.860  1.00  0.00    -0.334 N 
HETATM   21  O   UNL     1      22.259  48.227  48.395  1.00  0.00    -0.247 OA
HETATM   22  H   UNL     1      22.291  50.687  50.287  1.00  0.00     0.165 HD
HETATM   23  H   UNL     1      23.834  49.224  50.909  1.00  0.00     0.164 HD
BRANCH  20  24
HETATM   24  C   UNL     1      20.448  50.300  49.317  1.00  0.00     0.035 C 
HETATM   25  C   UNL     1      19.402  49.171  49.513  1.00  0.00     0.035 C 
HETATM   26  C   UNL     1      18.028  49.603  48.969  1.00  0.00    -0.012 C 
HETATM   27  C   UNL     1      18.158  49.937  47.473  1.00  0.00     0.009 C 
HETATM   28  C   UNL     1      17.551  50.850  49.728  1.00  0.00     0.009 C 
HETATM   29  C   UNL     1      19.163  51.083  47.271  1.00  0.00    -0.012 C 
HETATM   30  C   UNL     1      20.538  50.652  47.811  1.00  0.00     0.035 C 
HETATM   31  C   UNL     1      18.681  52.323  48.044  1.00  0.00     0.009 C 
HETATM   32  C   UNL     1      18.559  51.995  49.540  1.00  0.00    -0.012 C 
HETATM   33  C   UNL     1      19.932  51.552  50.075  1.00  0.00     0.035 C 
ENDBRANCH  20  24
ENDBRANCH   1  18
TORSDOF 4
ENDMDL
MODEL 3
REMARK VINA RESULT:      -9.8      1.363      2.158
REMARK  4 active torsions:
REMARK  status: ('A' for Active; 'I' for Inactive)
REMARK    1  A    between atoms: N_7  and  C_8 
REMARK    2  A    between atoms: C_14  and  C_15 
REMARK    3  A    between atoms: C_15  and  N_16 
REMARK       I    between atoms: N_16  and  C_17 
REMARK       I    between atoms: C_17  and  N_18 
REMARK    4  A    between atoms: N_18  and  C_19 
ROOT
HETATM    1  C   UNL     1      28.708  41.491  53.189  1.00  0.00     0.186 C 
ENDROOT
BRANCH   1   2
HETATM    2  C   UNL     1      28.336  42.911  53.606  1.00  0.00     0.084 C 
HETATM    3  C   UNL     1      29.189  43.585  54.608  1.00  0.00     0.008 A 
HETATM    4  C   UNL     1      30.271  42.957  55.240  1.00  0.00     0.014 A 
HETATM    5  C   UNL     1      28.882  44.904  54.917  1.00  0.00     0.046 A 
HETATM    6  C   UNL     1      31.045  43.661  56.168  1.00  0.00     0.001 A 
HETATM    7  C   UNL     1      30.742  44.988  56.467  1.00  0.00     0.001 A 
HETATM    8  C   UNL     1      29.661  45.611  55.845  1.00  0.00     0.018 A 
HETATM    9  C   UNL     1      27.723  45.549  54.278  1.00  0.00     0.275 C 
HETATM   10  O   UNL     1      27.498  46.735  54.512  1.00  0.00    -0.266 OA
HETATM   11  N   UNL     1      26.935  44.745  53.454  1.00  0.00    -0.229 N 
HETATM   12  N   UNL     1      27.278  43.463  53.085  1.00  0.00    -0.171 NA
BRANCH  11  13
HETATM   13  C   UNL     1      25.791  45.348  52.771  1.00  0.00     0.114 C 
HETATM   14  C   UNL     1      26.204  46.188  51.561  1.00  0.00     0.027 C 
HETATM   15  C   UNL     1      24.915  46.290  50.765  1.00  0.00     0.002 C 
HETATM   16  C   UNL     1      24.330  44.889  50.858  1.00  0.00     0.002 C 
HETATM   17  C   UNL     1      24.749  44.355  52.230  1.00  0.00     0.027 C 
ENDBRANCH  11  13
ENDBRANCH   1   2
BRANCH   1  18
HETATM   18  N   UNL     1      29.059  41.391  51.790  1.00  0.00    -0.337 N 
HETATM   19  C   UNL     1      28.154  40.838  50.921  1.00  0.00     0.317 C 
HETATM   20  N   UNL     1      28.595  40.903  49.627  1.00  0.00    -0.334 N 
HETATM   21  O   UNL     1      27.098  40.344  51.288  1.00  0.00    -0.247 OA
HETATM   22  H   UNL     1      29.602  40.936  49.553  1.00  0.00     0.165 HD
HETATM   23  H   UNL     1      29.682  42.104  51.434  1.00  0.00     0.164 HD
BRANCH  20  24
HETATM   24  C   UNL     1      27.884  40.292  48.495  1.00  0.00     0.035 C 
HETATM   25  C   UNL     1      28.317  40.896  47.134  1.00  0.00     0.035 C 
HETATM   26  C   UNL     1      27.580  40.202  45.972  1.00  0.00    -0.012 C 
HETATM   27  C   UNL     1      26.064  40.378  46.159  1.00  0.00     0.009 C 
HETATM   28  C   UNL     1      27.923  38.706  45.976  1.00  0.00     0.009 C 
HETATM   29  C   UNL     1      25.617  39.745  47.488  1.00  0.00    -0.012 C 
HETATM   30  C   UNL     1      26.349  40.439  48.650  1.00  0.00     0.035 C 
HETATM   31  C   UNL     1      25.974  38.250  47.484  1.00  0.00     0.009 C 
HETATM   32  C   UNL     1      27.491  38.072  47.307  1.00  0.00    -0.012 C 
HETATM   33  C   UNL     1      28.221  38.777  48.463  1.00  0.00     0.035 C 
ENDBRANCH  20  24
ENDBRANCH   1  18
TORSDOF 4
ENDMDL
MODEL 4
REMARK VINA RESULT:      -9.7      6.390     10.916
REMARK  4 active torsions:
REMARK  status: ('A' for Active; 'I' for Inactive)
REMARK    1  A    between atoms: N_7  and  C_8 
REMARK    2  A    between atoms: C_14  and  C_15 
REMARK    3  A    between atoms: C_15  and  N_16 
REMARK       I    between atoms: N_16  and  C_17 
REMARK       I    between atoms: C_17  and  N_18 
REMARK    4  A    between atoms: N_18  and  C_19 
ROOT
HETATM    1  C   UNL     1      24.243  47.948  49.376  1.00  0.00     0.186 C 
ENDROOT
BRANCH   1   2
HETATM    2  C   UNL     1      24.231  46.492  49.833  1.00  0.00     0.084 C 
HETATM    3  C   UNL     1      24.884  46.164  51.118  1.00  0.00     0.008 A 
HETATM    4  C   UNL     1      25.571  47.110  51.892  1.00  0.00     0.014 A 
HETATM    5  C   UNL     1      24.796  44.849  51.556  1.00  0.00     0.046 A 
HETATM    6  C   UNL     1      26.153  46.732  53.106  1.00  0.00     0.001 A 
HETATM    7  C   UNL     1      26.052  45.415  53.549  1.00  0.00     0.001 A 
HETATM    8  C   UNL     1      25.376  44.471  52.776  1.00  0.00     0.018 A 
HETATM    9  C   UNL     1      24.105  43.850  50.724  1.00  0.00     0.275 C 
HETATM   10  O   UNL     1      23.979  42.704  51.151  1.00  0.00    -0.266 OA
HETATM   11  N   UNL     1      23.653  44.281  49.476  1.00  0.00    -0.229 N 
HETATM   12  N   UNL     1      23.671  45.598  49.071  1.00  0.00    -0.171 NA
BRANCH  11  13
HETATM   13  C   UNL     1      22.933  43.335  48.625  1.00  0.00     0.114 C 
HETATM   14  C   UNL     1      21.921  44.023  47.707  1.00  0.00     0.027 C 
HETATM   15  C   UNL     1      21.674  42.978  46.633  1.00  0.00     0.002 C 
HETATM   16  C   UNL     1      23.063  42.422  46.355  1.00  0.00     0.002 C 
HETATM   17  C   UNL     1      23.811  42.490  47.689  1.00  0.00     0.027 C 
ENDBRANCH  11  13
ENDBRANCH   1   2
BRANCH   1  18
HETATM   18  N   UNL     1      23.164  48.724  49.946  1.00  0.00    -0.337 N 
HETATM   19  C   UNL     1      22.115  49.086  49.142  1.00  0.00     0.317 C 
HETATM   20  N   UNL     1      21.137  49.730  49.850  1.00  0.00    -0.334 N 
HETATM   21  O   UNL     1      22.091  48.859  47.941  1.00  0.00    -0.247 OA
HETATM   22  H   UNL     1      21.486  50.192  50.678  1.00  0.00     0.165 HD
HETATM   23  H   UNL     1      22.976  48.572  50.929  1.00  0.00     0.164 HD
BRANCH  20  24
HETATM   24  C   UNL     1      19.945  50.328  49.231  1.00  0.00     0.035 C 
HETATM   25  C   UNL     1      19.332  49.416  48.136  1.00  0.00     0.035 C 
HETATM   26  C   UNL     1      18.065  50.058  47.541  1.00  0.00    -0.012 C 
HETATM   27  C   UNL     1      18.428  51.424  46.934  1.00  0.00     0.009 C 
HETATM   28  C   UNL     1      17.025  50.255  48.653  1.00  0.00     0.009 C 
HETATM   29  C   UNL     1      19.000  52.351  48.020  1.00  0.00    -0.012 C 
HETATM   30  C   UNL     1      20.267  51.713  48.615  1.00  0.00     0.035 C 
HETATM   31  C   UNL     1      17.954  52.533  49.133  1.00  0.00     0.009 C 
HETATM   32  C   UNL     1      17.597  51.170  49.747  1.00  0.00    -0.012 C 
HETATM   33  C   UNL     1      18.868  50.529  50.330  1.00  0.00     0.035 C 
ENDBRANCH  20  24
ENDBRANCH   1  18
TORSDOF 4
ENDMDL
MODEL 5
REMARK VINA RESULT:      -9.6      5.261      9.838
REMARK  4 active torsions:
REMARK  status: ('A' for Active; 'I' for Inactive)
REMARK    1  A    between atoms: N_7  and  C_8 
REMARK    2  A    between atoms: C_14  and  C_15 
REMARK    3  A    between atoms: C_15  and  N_16 
REMARK       I    between atoms: N_16  and  C_17 
REMARK       I    between atoms: C_17  and  N_18 
REMARK    4  A    between atoms: N_18  and  C_19 
ROOT
HETATM    1  C   UNL     1      25.014  47.215  50.038  1.00  0.00     0.186 C 
ENDROOT
BRANCH   1   2
HETATM    2  C   UNL     1      25.567  45.961  50.710  1.00  0.00     0.084 C 
HETATM    3  C   UNL     1      26.127  46.095  52.072  1.00  0.00     0.008 A 
HETATM    4  C   UNL     1      26.238  47.324  52.738  1.00  0.00     0.014 A 
HETATM    5  C   UNL     1      26.554  44.932  52.700  1.00  0.00     0.046 A 
HETATM    6  C   UNL     1      26.765  47.374  54.032  1.00  0.00     0.001 A 
HETATM    7  C   UNL     1      27.181  46.204  54.663  1.00  0.00     0.001 A 
HETATM    8  C   UNL     1      27.078  44.982  53.999  1.00  0.00     0.018 A 
HETATM    9  C   UNL     1      26.469  43.647  51.985  1.00  0.00     0.275 C 
HETATM   10  O   UNL     1      26.791  42.617  52.572  1.00  0.00    -0.266 OA
HETATM   11  N   UNL     1      26.041  43.698  50.658  1.00  0.00    -0.229 N 
HETATM   12  N   UNL     1      25.545  44.835  50.058  1.00  0.00    -0.171 NA
BRANCH  11  13
HETATM   13  C   UNL     1      25.909  42.445  49.914  1.00  0.00     0.114 C 
HETATM   14  C   UNL     1      24.868  42.532  48.796  1.00  0.00     0.027 C 
HETATM   15  C   UNL     1      25.240  41.365  47.898  1.00  0.00     0.002 C 
HETATM   16  C   UNL     1      26.760  41.419  47.858  1.00  0.00     0.002 C 
HETATM   17  C   UNL     1      27.192  41.948  49.228  1.00  0.00     0.027 C 
ENDBRANCH  11  13
ENDBRANCH   1   2
BRANCH   1  18
HETATM   18  N   UNL     1      23.572  47.207  49.937  1.00  0.00    -0.337 N 
HETATM   19  C   UNL     1      22.931  48.355  49.549  1.00  0.00     0.317 C 
HETATM   20  N   UNL     1      21.584  48.157  49.411  1.00  0.00    -0.334 N 
HETATM   21  O   UNL     1      23.517  49.413  49.369  1.00  0.00    -0.247 OA
HETATM   22  H   UNL     1      21.234  47.402  49.982  1.00  0.00     0.165 HD
HETATM   23  H   UNL     1      23.146  46.322  49.692  1.00  0.00     0.164 HD
BRANCH  20  24
HETATM   24  C   UNL     1      20.632  49.237  49.111  1.00  0.00     0.035 C 
HETATM   25  C   UNL     1      20.826  49.812  47.684  1.00  0.00     0.035 C 
HETATM   26  C   UNL     1      19.785  50.910  47.394  1.00  0.00    -0.012 C 
HETATM   27  C   UNL     1      19.936  52.035  48.432  1.00  0.00     0.009 C 
HETATM   28  C   UNL     1      18.375  50.311  47.494  1.00  0.00     0.009 C 
HETATM   29  C   UNL     1      19.704  51.483  49.849  1.00  0.00    -0.012 C 
HETATM   30  C   UNL     1      20.745  50.388  50.142  1.00  0.00     0.035 C 
HETATM   31  C   UNL     1      18.294  50.878  49.934  1.00  0.00     0.009 C 
HETATM   32  C   UNL     1      18.144  49.747  48.904  1.00  0.00    -0.012 C 
HETATM   33  C   UNL     1      19.193  48.659  49.191  1.00  0.00     0.035 C 
ENDBRANCH  20  24
ENDBRANCH   1  18
TORSDOF 4
ENDMDL
MODEL 6
REMARK VINA RESULT:      -9.4      6.118     11.139
REMARK  4 active torsions:
REMARK  status: ('A' for Active; 'I' for Inactive)
REMARK    1  A    between atoms: N_7  and  C_8 
REMARK    2  A    between atoms: C_14  and  C_15 
REMARK    3  A    between atoms: C_15  and  N_16 
REMARK       I    between atoms: N_16  and  C_17 
REMARK       I    between atoms: C_17  and  N_18 
REMARK    4  A    between atoms: N_18  and  C_19 
ROOT
HETATM    1  C   UNL     1      24.146  47.383  49.327  1.00  0.00     0.186 C 
ENDROOT
BRANCH   1   2
HETATM    2  C   UNL     1      24.291  45.944  49.812  1.00  0.00     0.084 C 
HETATM    3  C   UNL     1      23.661  44.875  49.008  1.00  0.00     0.008 A 
HETATM    4  C   UNL     1      22.882  45.129  47.871  1.00  0.00     0.014 A 
HETATM    5  C   UNL     1      23.868  43.565  49.421  1.00  0.00     0.046 A 
HETATM    6  C   UNL     1      22.328  44.068  47.149  1.00  0.00     0.001 A 
HETATM    7  C   UNL     1      22.548  42.754  47.559  1.00  0.00     0.001 A 
HETATM    8  C   UNL     1      23.316  42.500  48.694  1.00  0.00     0.018 A 
HETATM    9  C   UNL     1      24.657  43.302  50.636  1.00  0.00     0.275 C 
HETATM   10  O   UNL     1      24.887  42.138  50.957  1.00  0.00    -0.266 OA
HETATM   11  N   UNL     1      25.077  44.417  51.362  1.00  0.00    -0.229 N 
HETATM   12  N   UNL     1      24.939  45.714  50.917  1.00  0.00    -0.171 NA
BRANCH  11  13
HETATM   13  C   UNL     1      25.890  44.210  52.560  1.00  0.00     0.114 C 
HETATM   14  C   UNL     1      27.390  44.190  52.256  1.00  0.00     0.027 C 
HETATM   15  C   UNL     1      28.013  44.454  53.615  1.00  0.00     0.002 C 
HETATM   16  C   UNL     1      27.125  45.539  54.207  1.00  0.00     0.002 C 
HETATM   17  C   UNL     1      25.720  45.267  53.663  1.00  0.00     0.027 C 
ENDBRANCH  11  13
ENDBRANCH   1   2
BRANCH   1  18
HETATM   18  N   UNL     1      23.042  48.077  49.952  1.00  0.00    -0.337 N 
HETATM   19  C   UNL     1      22.100  48.671  49.154  1.00  0.00     0.317 C 
HETATM   20  N   UNL     1      21.076  49.200  49.893  1.00  0.00    -0.334 N 
HETATM   21  O   UNL     1      22.196  48.717  47.937  1.00  0.00    -0.247 OA
HETATM   22  H   UNL     1      21.352  49.444  50.833  1.00  0.00     0.165 HD
HETATM   23  H   UNL     1      22.745  47.723  50.853  1.00  0.00     0.164 HD
BRANCH  20  24
HETATM   24  C   UNL     1      19.981  49.991  49.313  1.00  0.00     0.035 C 
HETATM   25  C   UNL     1      20.487  51.302  48.658  1.00  0.00     0.035 C 
HETATM   26  C   UNL     1      19.317  52.081  48.027  1.00  0.00    -0.012 C 
HETATM   27  C   UNL     1      18.284  52.411  49.118  1.00  0.00     0.009 C 
HETATM   28  C   UNL     1      18.656  51.216  46.945  1.00  0.00     0.009 C 
HETATM   29  C   UNL     1      17.745  51.115  49.747  1.00  0.00    -0.012 C 
HETATM   30  C   UNL     1      18.912  50.337  50.380  1.00  0.00     0.035 C 
HETATM   31  C   UNL     1      17.094  50.253  48.653  1.00  0.00     0.009 C 
HETATM   32  C   UNL     1      18.128  49.914  47.566  1.00  0.00    -0.012 C 
HETATM   33  C   UNL     1      19.298  49.146  48.204  1.00  0.00     0.035 C 
ENDBRANCH  20  24
ENDBRANCH   1  18
TORSDOF 4
ENDMDL
MODEL 7
REMARK VINA RESULT:      -9.2      5.819     10.866
REMARK  4 active torsions:
REMARK  status: ('A' for Active; 'I' for Inactive)
REMARK    1  A    between atoms: N_7  and  C_8 
REMARK    2  A    between atoms: C_14  and  C_15 
REMARK    3  A    between atoms: C_15  and  N_16 
REMARK       I    between atoms: N_16  and  C_17 
REMARK       I    between atoms: C_17  and  N_18 
REMARK    4  A    between atoms: N_18  and  C_19 
ROOT
HETATM    1  C   UNL     1      24.154  46.351  48.909  1.00  0.00     0.186 C 
ENDROOT
BRANCH   1   2
HETATM    2  C   UNL     1      24.512  44.972  49.454  1.00  0.00     0.084 C 
HETATM    3  C   UNL     1      24.131  43.790  48.651  1.00  0.00     0.008 A 
HETATM    4  C   UNL     1      23.397  43.875  47.460  1.00  0.00     0.014 A 
HETATM    5  C   UNL     1      24.533  42.547  49.124  1.00  0.00     0.046 A 
HETATM    6  C   UNL     1      23.085  42.716  46.744  1.00  0.00     0.001 A 
HETATM    7  C   UNL     1      23.500  41.472  47.214  1.00  0.00     0.001 A 
HETATM    8  C   UNL     1      24.223  41.384  48.404  1.00  0.00     0.018 A 
HETATM    9  C   UNL     1      25.272  42.456  50.394  1.00  0.00     0.275 C 
HETATM   10  O   UNL     1      25.677  41.358  50.770  1.00  0.00    -0.266 OA
HETATM   11  N   UNL     1      25.443  43.645  51.104  1.00  0.00    -0.229 N 
HETATM   12  N   UNL     1      25.114  44.886  50.604  1.00  0.00    -0.171 NA
BRANCH  11  13
HETATM   13  C   UNL     1      26.198  43.613  52.356  1.00  0.00     0.114 C 
HETATM   14  C   UNL     1      27.665  44.007  52.169  1.00  0.00     0.027 C 
HETATM   15  C   UNL     1      28.099  44.371  53.578  1.00  0.00     0.002 C 
HETATM   16  C   UNL     1      26.913  45.153  54.122  1.00  0.00     0.002 C 
HETATM   17  C   UNL     1      25.674  44.539  53.465  1.00  0.00     0.027 C 
ENDBRANCH  11  13
ENDBRANCH   1   2
BRANCH   1  18
HETATM   18  N   UNL     1      23.008  46.935  49.570  1.00  0.00    -0.337 N 
HETATM   19  C   UNL     1      22.253  47.856  48.892  1.00  0.00     0.317 C 
HETATM   20  N   UNL     1      21.156  48.239  49.615  1.00  0.00    -0.334 N 
HETATM   21  O   UNL     1      22.556  48.274  47.783  1.00  0.00    -0.247 OA
HETATM   22  H   UNL     1      21.285  48.140  50.611  1.00  0.00     0.165 HD
HETATM   23  H   UNL     1      22.541  46.351  50.252  1.00  0.00     0.164 HD
BRANCH  20  24
HETATM   24  C   UNL     1      20.228  49.295  49.185  1.00  0.00     0.035 C 
HETATM   25  C   UNL     1      19.451  48.906  47.900  1.00  0.00     0.035 C 
HETATM   26  C   UNL     1      18.461  50.018  47.506  1.00  0.00    -0.012 C 
HETATM   27  C   UNL     1      19.238  51.324  47.267  1.00  0.00     0.009 C 
HETATM   28  C   UNL     1      17.453  50.227  48.644  1.00  0.00     0.009 C 
HETATM   29  C   UNL     1      19.980  51.741  48.548  1.00  0.00    -0.012 C 
HETATM   30  C   UNL     1      20.971  50.632  48.942  1.00  0.00     0.035 C 
HETATM   31  C   UNL     1      18.962  51.938  49.683  1.00  0.00     0.009 C 
HETATM   32  C   UNL     1      18.191  50.631  49.930  1.00  0.00    -0.012 C 
HETATM   33  C   UNL     1      19.185  49.521  50.312  1.00  0.00     0.035 C 
ENDBRANCH  20  24
ENDBRANCH   1  18
TORSDOF 4
ENDMDL
MODEL 8
REMARK VINA RESULT:      -8.8     13.892     16.437
REMARK  4 active torsions:
REMARK  status: ('A' for Active; 'I' for Inactive)
REMARK    1  A    between atoms: N_7  and  C_8 
REMARK    2  A    between atoms: C_14  and  C_15 
REMARK    3  A    between atoms: C_15  and  N_16 
REMARK       I    between atoms: N_16  and  C_17 
REMARK       I    between atoms: C_17  and  N_18 
REMARK    4  A    between atoms: N_18  and  C_19 
ROOT
HETATM    1  C   UNL     1      31.416  50.062  42.773  1.00  0.00     0.186 C 
ENDROOT
BRANCH   1   2
HETATM    2  C   UNL     1      30.540  50.096  41.524  1.00  0.00     0.084 C 
HETATM    3  C   UNL     1      30.208  51.415  40.946  1.00  0.00     0.008 A 
HETATM    4  C   UNL     1      30.597  52.629  41.530  1.00  0.00     0.014 A 
HETATM    5  C   UNL     1      29.475  51.424  39.766  1.00  0.00     0.046 A 
HETATM    6  C   UNL     1      30.261  53.840  40.920  1.00  0.00     0.001 A 
HETATM    7  C   UNL     1      29.536  53.846  39.730  1.00  0.00     0.001 A 
HETATM    8  C   UNL     1      29.141  52.640  39.152  1.00  0.00     0.018 A 
HETATM    9  C   UNL     1      29.037  50.150  39.173  1.00  0.00     0.275 C 
HETATM   10  O   UNL     1      28.443  50.167  38.097  1.00  0.00    -0.266 OA
HETATM   11  N   UNL     1      29.313  48.993  39.902  1.00  0.00    -0.229 N 
HETATM   12  N   UNL     1      30.103  48.973  41.031  1.00  0.00    -0.171 NA
BRANCH  11  13
HETATM   13  C   UNL     1      28.926  47.699  39.341  1.00  0.00     0.114 C 
HETATM   14  C   UNL     1      30.067  46.681  39.370  1.00  0.00     0.027 C 
HETATM   15  C   UNL     1      29.341  45.356  39.219  1.00  0.00     0.002 C 
HETATM   16  C   UNL     1      28.120  45.518  40.112  1.00  0.00     0.002 C 
HETATM   17  C   UNL     1      27.750  47.002  40.044  1.00  0.00     0.027 C 
ENDBRANCH  11  13
ENDBRANCH   1   2
BRANCH   1  18
HETATM   18  N   UNL     1      32.816  49.860  42.471  1.00  0.00    -0.337 N 
HETATM   19  C   UNL     1      33.701  50.872  42.736  1.00  0.00     0.317 C 
HETATM   20  N   UNL     1      34.991  50.491  42.485  1.00  0.00    -0.334 N 
HETATM   21  O   UNL     1      33.350  51.973  43.136  1.00  0.00    -0.247 OA
HETATM   22  H   UNL     1      35.060  49.758  41.793  1.00  0.00     0.165 HD
HETATM   23  H   UNL     1      33.153  48.908  42.534  1.00  0.00     0.164 HD
BRANCH  20  24
HETATM   24  C   UNL     1      36.140  51.404  42.575  1.00  0.00     0.035 C 
HETATM   25  C   UNL     1      36.079  52.301  43.839  1.00  0.00     0.035 C 
HETATM   26  C   UNL     1      37.318  53.213  43.919  1.00  0.00    -0.012 C 
HETATM   27  C   UNL     1      37.379  54.093  42.659  1.00  0.00     0.009 C 
HETATM   28  C   UNL     1      38.582  52.345  43.995  1.00  0.00     0.009 C 
HETATM   29  C   UNL     1      37.481  53.214  41.402  1.00  0.00    -0.012 C 
HETATM   30  C   UNL     1      36.243  52.304  41.319  1.00  0.00     0.035 C 
HETATM   31  C   UNL     1      38.745  52.342  41.494  1.00  0.00     0.009 C 
HETATM   32  C   UNL     1      38.682  51.454  42.747  1.00  0.00    -0.012 C 
HETATM   33  C   UNL     1      37.436  50.555  42.667  1.00  0.00     0.035 C 
ENDBRANCH  20  24
ENDBRANCH   1  18
TORSDOF 4
ENDMDL
MODEL 9
REMARK VINA RESULT:      -8.7     13.327     17.552
REMARK  4 active torsions:
REMARK  status: ('A' for Active; 'I' for Inactive)
REMARK    1  A    between atoms: N_7  and  C_8 
REMARK    2  A    between atoms: C_14  and  C_15 
REMARK    3  A    between atoms: C_15  and  N_16 
REMARK       I    between atoms: N_16  and  C_17 
REMARK       I    between atoms: C_17  and  N_18 
REMARK    4  A    between atoms: N_18  and  C_19 
ROOT
HETATM    1  C   UNL     1      14.564  53.547  50.596  1.00  0.00     0.186 C 
ENDROOT
BRANCH   1   2
HETATM    2  C   UNL     1      14.253  55.040  50.538  1.00  0.00     0.084 C 
HETATM    3  C   UNL     1      13.967  55.638  49.216  1.00  0.00     0.008 A 
HETATM    4  C   UNL     1      14.041  54.917  48.016  1.00  0.00     0.014 A 
HETATM    5  C   UNL     1      13.610  56.980  49.191  1.00  0.00     0.046 A 
HETATM    6  C   UNL     1      13.742  55.543  46.803  1.00  0.00     0.001 A 
HETATM    7  C   UNL     1      13.373  56.886  46.782  1.00  0.00     0.001 A 
HETATM    8  C   UNL     1      13.307  57.607  47.974  1.00  0.00     0.018 A 
HETATM    9  C   UNL     1      13.569  57.745  50.448  1.00  0.00     0.275 C 
HETATM   10  O   UNL     1      13.192  58.914  50.422  1.00  0.00    -0.266 OA
HETATM   11  N   UNL     1      13.991  57.079  51.600  1.00  0.00    -0.229 N 
HETATM   12  N   UNL     1      14.272  55.730  51.641  1.00  0.00    -0.171 NA
BRANCH  11  13
HETATM   13  C   UNL     1      13.939  57.785  52.879  1.00  0.00     0.114 C 
HETATM   14  C   UNL     1      13.370  56.920  54.005  1.00  0.00     0.027 C 
HETATM   15  C   UNL     1      13.850  57.635  55.256  1.00  0.00     0.002 C 
HETATM   16  C   UNL     1      15.281  58.021  54.915  1.00  0.00     0.002 C 
HETATM   17  C   UNL     1      15.291  58.290  53.408  1.00  0.00     0.027 C 
ENDBRANCH  11  13
ENDBRANCH   1   2
BRANCH   1  18
HETATM   18  N   UNL     1      15.982  53.272  50.655  1.00  0.00    -0.337 N 
HETATM   19  C   UNL     1      16.504  52.316  49.824  1.00  0.00     0.317 C 
HETATM   20  N   UNL     1      17.866  52.242  49.934  1.00  0.00    -0.334 N 
HETATM   21  O   UNL     1      15.811  51.621  49.095  1.00  0.00    -0.247 OA
HETATM   22  H   UNL     1      18.208  52.552  50.833  1.00  0.00     0.165 HD
HETATM   23  H   UNL     1      16.577  54.048  50.916  1.00  0.00     0.164 HD
BRANCH  20  24
HETATM   24  C   UNL     1      18.684  51.234  49.244  1.00  0.00     0.035 C 
HETATM   25  C   UNL     1      18.778  51.499  47.718  1.00  0.00     0.035 C 
HETATM   26  C   UNL     1      19.674  50.446  47.039  1.00  0.00    -0.012 C 
HETATM   27  C   UNL     1      19.088  49.047  47.287  1.00  0.00     0.009 C 
HETATM   28  C   UNL     1      21.086  50.520  47.637  1.00  0.00     0.009 C 
HETATM   29  C   UNL     1      19.027  48.758  48.797  1.00  0.00    -0.012 C 
HETATM   30  C   UNL     1      18.130  49.806  49.478  1.00  0.00     0.035 C 
HETATM   31  C   UNL     1      20.445  48.844  49.387  1.00  0.00     0.009 C 
HETATM   32  C   UNL     1      21.030  50.245  49.148  1.00  0.00    -0.012 C 
HETATM   33  C   UNL     1      20.124  51.292  49.819  1.00  0.00     0.035 C 
ENDBRANCH  20  24
ENDBRANCH   1  18
TORSDOF 4
ENDMDL
MODEL 10
REMARK VINA RESULT:      -8.4     15.195     16.864
REMARK  4 active torsions:
REMARK  status: ('A' for Active; 'I' for Inactive)
REMARK    1  A    between atoms: N_7  and  C_8 
REMARK    2  A    between atoms: C_14  and  C_15 
REMARK    3  A    between atoms: C_15  and  N_16 
REMARK       I    between atoms: N_16  and  C_17 
REMARK       I    between atoms: C_17  and  N_18 
REMARK    4  A    between atoms: N_18  and  C_19 
ROOT
HETATM    1  C   UNL     1      35.511  51.330  42.649  1.00  0.00     0.186 C 
ENDROOT
BRANCH   1   2
HETATM    2  C   UNL     1      36.554  52.444  42.634  1.00  0.00     0.084 C 
HETATM    3  C   UNL     1      36.826  53.120  41.348  1.00  0.00     0.008 A 
HETATM    4  C   UNL     1      36.229  52.738  40.138  1.00  0.00     0.014 A 
HETATM    5  C   UNL     1      37.721  54.183  41.367  1.00  0.00     0.046 A 
HETATM    6  C   UNL     1      36.522  53.433  38.962  1.00  0.00     0.001 A 
HETATM    7  C   UNL     1      37.410  54.506  38.987  1.00  0.00     0.001 A 
HETATM    8  C   UNL     1      38.012  54.883  40.187  1.00  0.00     0.018 A 
HETATM    9  C   UNL     1      38.374  54.560  42.632  1.00  0.00     0.275 C 
HETATM   10  O   UNL     1      39.115  55.540  42.650  1.00  0.00    -0.266 OA
HETATM   11  N   UNL     1      38.117  53.746  43.736  1.00  0.00    -0.229 N 
HETATM   12  N   UNL     1      37.175  52.740  43.739  1.00  0.00    -0.171 NA
BRANCH  11  13
HETATM   13  C   UNL     1      38.717  54.096  45.022  1.00  0.00     0.114 C 
HETATM   14  C   UNL     1      37.722  54.765  45.973  1.00  0.00     0.027 C 
HETATM   15  C   UNL     1      38.382  54.590  47.329  1.00  0.00     0.002 C 
HETATM   16  C   UNL     1      38.919  53.168  47.281  1.00  0.00     0.002 C 
HETATM   17  C   UNL     1      39.300  52.918  45.819  1.00  0.00     0.027 C 
ENDBRANCH  11  13
ENDBRANCH   1   2
BRANCH   1  18
HETATM   18  N   UNL     1      34.161  51.827  42.795  1.00  0.00    -0.337 N 
HETATM   19  C   UNL     1      33.190  51.356  41.951  1.00  0.00     0.317 C 
HETATM   20  N   UNL     1      31.956  51.850  42.278  1.00  0.00    -0.334 N 
HETATM   21  O   UNL     1      33.429  50.599  41.021  1.00  0.00    -0.247 OA
HETATM   22  H   UNL     1      31.999  52.738  42.757  1.00  0.00     0.165 HD
HETATM   23  H   UNL     1      33.884  52.100  43.729  1.00  0.00     0.164 HD
BRANCH  20  24
HETATM   24  C   UNL     1      30.745  51.603  41.482  1.00  0.00     0.035 C 
HETATM   25  C   UNL     1      30.232  50.147  41.630  1.00  0.00     0.035 C 
HETATM   26  C   UNL     1      28.942  49.940  40.814  1.00  0.00    -0.012 C 
HETATM   27  C   UNL     1      29.226  50.242  39.333  1.00  0.00     0.009 C 
HETATM   28  C   UNL     1      27.857  50.896  41.329  1.00  0.00     0.009 C 
HETATM   29  C   UNL     1      29.697  51.697  39.170  1.00  0.00    -0.012 C 
HETATM   30  C   UNL     1      30.987  51.905  39.982  1.00  0.00     0.035 C 
HETATM   31  C   UNL     1      28.607  52.645  39.698  1.00  0.00     0.009 C 
HETATM   32  C   UNL     1      28.328  52.351  41.181  1.00  0.00    -0.012 C 
HETATM   33  C   UNL     1      29.623  52.548  41.988  1.00  0.00     0.035 C 
ENDBRANCH  20  24
ENDBRANCH   1  18
TORSDOF 4
ENDMDL
