MODEL 1
REMARK VINA RESULT:      -9.4      0.000      0.000
REMARK  3 active torsions:
REMARK  status: ('A' for Active; 'I' for Inactive)
REMARK    1  A    between atoms: C_9  and  C_10 
REMARK    2  A    between atoms: C_10  and  C_11 
REMARK       I    between atoms: C_11  and  N_12 
REMARK    3  A    between atoms: N_12  and  C_13 
ROOT
HETATM    1  C   UNL     1      26.754  44.343  51.735  1.00  0.00     0.165 C 
ENDROOT
BRANCH   1   2
HETATM    2  C   UNL     1      27.237  44.857  53.081  1.00  0.00     0.074 A 
HETATM    3  C   UNL     1      28.466  44.276  53.693  1.00  0.00     0.006 A 
HETATM    4  C   UNL     1      29.206  43.233  53.118  1.00  0.00     0.014 A 
HETATM    5  C   UNL     1      28.879  44.800  54.917  1.00  0.00     0.046 A 
HETATM    6  C   UNL     1      30.355  42.752  53.753  1.00  0.00     0.001 A 
HETATM    7  C   UNL     1      30.771  43.298  54.966  1.00  0.00     0.001 A 
HETATM    8  C   UNL     1      30.031  44.321  55.554  1.00  0.00     0.018 A 
HETATM    9  C   UNL     1      28.074  45.852  55.556  1.00  0.00     0.272 A 
HETATM   10  O   UNL     1      28.398  46.349  56.628  1.00  0.00    -0.266 OA
HETATM   11  N   UNL     1      26.935  46.229  54.890  1.00  0.00    -0.243 N 
HETATM   12  N   UNL     1      26.516  45.758  53.687  1.00  0.00    -0.175 NA
HETATM   13  H   UNL     1      26.366  46.944  55.334  1.00  0.00     0.192 HD
ENDBRANCH   1   2
BRANCH   1  14
HETATM   14  C   UNL     1      26.661  45.312  50.570  1.00  0.00     0.227 C 
HETATM   15  N   UNL     1      26.190  46.569  50.879  1.00  0.00    -0.327 N 
HETATM   16  H   UNL     1      26.112  46.771  51.876  1.00  0.00     0.169 HD
HETATM   17  O   UNL     1      26.932  44.912  49.439  1.00  0.00    -0.273 OA
BRANCH  15  18
HETATM   18  C   UNL     1      25.905  47.632  49.998  1.00  0.00     0.036 A 
HETATM   19  C   UNL     1      24.616  47.981  49.583  1.00  0.00     0.056 A 
HETATM   20  C   UNL     1      24.425  49.062  48.717  1.00  0.00     0.074 A 
HETATM   21 CL   UNL     1      22.829  49.481  48.222  1.00  0.00    -0.081 Cl
HETATM   22  C   UNL     1      25.519  49.795  48.265  1.00  0.00     0.138 A 
HETATM   23  F   UNL     1      25.354  50.835  47.435  1.00  0.00    -0.204 F 
HETATM   24  C   UNL     1      26.805  49.461  48.670  1.00  0.00     0.046 A 
HETATM   25  C   UNL     1      26.997  48.383  49.537  1.00  0.00     0.032 A 
ENDBRANCH  15  18
ENDBRANCH   1  14
TORSDOF 3
ENDMDL
MODEL 2
REMARK VINA RESULT:      -9.4      1.918      2.702
REMARK  3 active torsions:
REMARK  status: ('A' for Active; 'I' for Inactive)
REMARK    1  A    between atoms: C_9  and  C_10 
REMARK    2  A    between atoms: C_10  and  C_11 
REMARK       I    between atoms: C_11  and  N_12 
REMARK    3  A    between atoms: N_12  and  C_13 
ROOT
HETATM    1  C   UNL     1      25.621  45.499  53.902  1.00  0.00     0.165 C 
ENDROOT
BRANCH   1   2
HETATM    2  C   UNL     1      26.528  44.349  53.497  1.00  0.00     0.074 A 
HETATM    3  C   UNL     1      27.869  44.210  54.136  1.00  0.00     0.006 A 
HETATM    4  C   UNL     1      28.382  45.112  55.078  1.00  0.00     0.014 A 
HETATM    5  C   UNL     1      28.652  43.124  53.746  1.00  0.00     0.046 A 
HETATM    6  C   UNL     1      29.647  44.903  55.638  1.00  0.00     0.001 A 
HETATM    7  C   UNL     1      30.412  43.802  55.256  1.00  0.00     0.001 A 
HETATM    8  C   UNL     1      29.918  42.912  54.306  1.00  0.00     0.018 A 
HETATM    9  C   UNL     1      28.146  42.209  52.712  1.00  0.00     0.272 A 
HETATM   10  O   UNL     1      28.793  41.237  52.340  1.00  0.00    -0.266 OA
HETATM   11  N   UNL     1      26.919  42.517  52.180  1.00  0.00    -0.243 N 
HETATM   12  N   UNL     1      26.120  43.551  52.552  1.00  0.00    -0.175 NA
HETATM   13  H   UNL     1      26.572  41.897  51.454  1.00  0.00     0.192 HD
ENDBRANCH   1   2
BRANCH   1  14
HETATM   14  C   UNL     1      25.552  46.727  53.011  1.00  0.00     0.227 C 
HETATM   15  N   UNL     1      25.398  46.477  51.665  1.00  0.00    -0.327 N 
HETATM   16  H   UNL     1      25.179  45.509  51.426  1.00  0.00     0.169 HD
HETATM   17  O   UNL     1      25.707  47.839  53.514  1.00  0.00    -0.273 OA
BRANCH  15  18
HETATM   18  C   UNL     1      25.404  47.401  50.601  1.00  0.00     0.036 A 
HETATM   19  C   UNL     1      24.252  47.867  49.962  1.00  0.00     0.056 A 
HETATM   20  C   UNL     1      24.352  48.797  48.923  1.00  0.00     0.074 A 
HETATM   21 CL   UNL     1      22.920  49.366  48.152  1.00  0.00    -0.081 Cl
HETATM   22  C   UNL     1      25.601  49.262  48.520  1.00  0.00     0.138 A 
HETATM   23  F   UNL     1      25.716  50.155  47.526  1.00  0.00    -0.204 F 
HETATM   24  C   UNL     1      26.755  48.808  49.147  1.00  0.00     0.046 A 
HETATM   25  C   UNL     1      26.657  47.881  50.187  1.00  0.00     0.032 A 
ENDBRANCH  15  18
ENDBRANCH   1  14
TORSDOF 3
ENDMDL
MODEL 3
REMARK VINA RESULT:      -9.0      5.418      6.288
REMARK  3 active torsions:
REMARK  status: ('A' for Active; 'I' for Inactive)
REMARK    1  A    between atoms: C_9  and  C_10 
REMARK    2  A    between atoms: C_10  and  C_11 
REMARK       I    between atoms: C_11  and  N_12 
REMARK    3  A    between atoms: N_12  and  C_13 
ROOT
HETATM    1  C   UNL     1      29.983  42.496  53.400  1.00  0.00     0.165 C 
ENDROOT
BRANCH   1   2
HETATM    2  C   UNL     1      29.467  43.703  54.165  1.00  0.00     0.074 A 
HETATM    3  C   UNL     1      30.065  44.046  55.487  1.00  0.00     0.006 A 
HETATM    4  C   UNL     1      31.067  43.290  56.110  1.00  0.00     0.014 A 
HETATM    5  C   UNL     1      29.572  45.178  56.136  1.00  0.00     0.046 A 
HETATM    6  C   UNL     1      31.581  43.687  57.349  1.00  0.00     0.001 A 
HETATM    7  C   UNL     1      31.096  44.832  57.979  1.00  0.00     0.001 A 
HETATM    8  C   UNL     1      30.086  45.578  57.376  1.00  0.00     0.018 A 
HETATM    9  C   UNL     1      28.477  45.940  55.518  1.00  0.00     0.272 A 
HETATM   10  O   UNL     1      28.014  46.944  56.045  1.00  0.00    -0.266 OA
HETATM   11  N   UNL     1      27.997  45.451  54.328  1.00  0.00    -0.243 N 
HETATM   12  N   UNL     1      28.469  44.369  53.657  1.00  0.00    -0.175 NA
HETATM   13  H   UNL     1      27.230  45.965  53.904  1.00  0.00     0.192 HD
ENDBRANCH   1   2
BRANCH   1  14
HETATM   14  C   UNL     1      28.981  41.531  52.789  1.00  0.00     0.227 C 
HETATM   15  N   UNL     1      29.012  41.432  51.416  1.00  0.00    -0.327 N 
HETATM   16  H   UNL     1      29.809  41.884  50.966  1.00  0.00     0.169 HD
HETATM   17  O   UNL     1      28.172  40.967  53.525  1.00  0.00    -0.273 OA
BRANCH  15  18
HETATM   18  C   UNL     1      28.145  40.705  50.576  1.00  0.00     0.036 A 
HETATM   19  C   UNL     1      26.913  41.184  50.118  1.00  0.00     0.056 A 
HETATM   20  C   UNL     1      26.124  40.397  49.275  1.00  0.00     0.074 A 
HETATM   21 CL   UNL     1      24.612  41.007  48.715  1.00  0.00    -0.081 Cl
HETATM   22  C   UNL     1      26.561  39.134  48.886  1.00  0.00     0.138 A 
HETATM   23  F   UNL     1      25.817  38.366  48.077  1.00  0.00    -0.204 F 
HETATM   24  C   UNL     1      27.783  38.646  49.333  1.00  0.00     0.046 A 
HETATM   25  C   UNL     1      28.575  39.431  50.173  1.00  0.00     0.032 A 
ENDBRANCH  15  18
ENDBRANCH   1  14
TORSDOF 3
ENDMDL
MODEL 4
REMARK VINA RESULT:      -8.9      2.314      3.271
REMARK  3 active torsions:
REMARK  status: ('A' for Active; 'I' for Inactive)
REMARK    1  A    between atoms: C_9  and  C_10 
REMARK    2  A    between atoms: C_10  and  C_11 
REMARK       I    between atoms: C_11  and  N_12 
REMARK    3  A    between atoms: N_12  and  C_13 
ROOT
HETATM    1  C   UNL     1      25.311  44.990  53.447  1.00  0.00     0.165 C 
ENDROOT
BRANCH   1   2
HETATM    2  C   UNL     1      26.192  43.869  52.919  1.00  0.00     0.074 A 
HETATM    3  C   UNL     1      27.561  43.685  53.479  1.00  0.00     0.006 A 
HETATM    4  C   UNL     1      28.125  44.518  54.455  1.00  0.00     0.014 A 
HETATM    5  C   UNL     1      28.319  42.627  52.977  1.00  0.00     0.046 A 
HETATM    6  C   UNL     1      29.415  44.269  54.935  1.00  0.00     0.001 A 
HETATM    7  C   UNL     1      30.155  43.196  54.441  1.00  0.00     0.001 A 
HETATM    8  C   UNL     1      29.610  42.375  53.458  1.00  0.00     0.018 A 
HETATM    9  C   UNL     1      27.758  41.786  51.909  1.00  0.00     0.272 A 
HETATM   10  O   UNL     1      28.381  40.841  51.440  1.00  0.00    -0.266 OA
HETATM   11  N   UNL     1      26.507  42.132  51.462  1.00  0.00    -0.243 N 
HETATM   12  N   UNL     1      25.733  43.139  51.943  1.00  0.00    -0.175 NA
HETATM   13  H   UNL     1      26.122  41.564  50.713  1.00  0.00     0.192 HD
ENDBRANCH   1   2
BRANCH   1  14
HETATM   14  C   UNL     1      25.316  46.327  52.726  1.00  0.00     0.227 C 
HETATM   15  N   UNL     1      25.107  46.270  51.366  1.00  0.00    -0.327 N 
HETATM   16  H   UNL     1      24.806  45.361  51.011  1.00  0.00     0.169 HD
HETATM   17  O   UNL     1      25.572  47.347  53.364  1.00  0.00    -0.273 OA
BRANCH  15  18
HETATM   18  C   UNL     1      25.158  47.324  50.432  1.00  0.00     0.036 A 
HETATM   19  C   UNL     1      26.327  48.011  50.089  1.00  0.00     0.056 A 
HETATM   20  C   UNL     1      26.285  49.036  49.140  1.00  0.00     0.074 A 
HETATM   21 CL   UNL     1      27.737  49.867  48.724  1.00  0.00    -0.081 Cl
HETATM   22  C   UNL     1      25.080  49.378  48.532  1.00  0.00     0.138 A 
HETATM   23  F   UNL     1      25.022  50.358  47.619  1.00  0.00    -0.204 F 
HETATM   24  C   UNL     1      23.911  48.703  48.863  1.00  0.00     0.046 A 
HETATM   25  C   UNL     1      23.951  47.676  49.809  1.00  0.00     0.032 A 
ENDBRANCH  15  18
ENDBRANCH   1  14
TORSDOF 3
ENDMDL
MODEL 5
REMARK VINA RESULT:      -8.8      5.951      8.225
REMARK  3 active torsions:
REMARK  status: ('A' for Active; 'I' for Inactive)
REMARK    1  A    between atoms: C_9  and  C_10 
REMARK    2  A    between atoms: C_10  and  C_11 
REMARK       I    between atoms: C_11  and  N_12 
REMARK    3  A    between atoms: N_12  and  C_13 
ROOT
HETATM    1  C   UNL     1      27.534  42.265  51.096  1.00  0.00     0.165 C 
ENDROOT
BRANCH   1   2
HETATM    2  C   UNL     1      28.227  40.927  50.901  1.00  0.00     0.074 A 
HETATM    3  C   UNL     1      28.186  40.266  49.565  1.00  0.00     0.006 A 
HETATM    4  C   UNL     1      27.503  40.785  48.458  1.00  0.00     0.014 A 
HETATM    5  C   UNL     1      28.859  39.051  49.434  1.00  0.00     0.046 A 
HETATM    6  C   UNL     1      27.523  40.105  47.235  1.00  0.00     0.001 A 
HETATM    7  C   UNL     1      28.216  38.902  47.109  1.00  0.00     0.001 A 
HETATM    8  C   UNL     1      28.882  38.370  48.210  1.00  0.00     0.018 A 
HETATM    9  C   UNL     1      29.526  38.469  50.608  1.00  0.00     0.272 A 
HETATM   10  O   UNL     1      30.135  37.408  50.543  1.00  0.00    -0.266 OA
HETATM   11  N   UNL     1      29.412  39.176  51.780  1.00  0.00    -0.243 N 
HETATM   12  N   UNL     1      28.788  40.371  51.938  1.00  0.00    -0.175 NA
HETATM   13  H   UNL     1      29.858  38.771  52.597  1.00  0.00     0.192 HD
ENDBRANCH   1   2
BRANCH   1  14
HETATM   14  C   UNL     1      27.655  42.965  52.439  1.00  0.00     0.227 C 
HETATM   15  N   UNL     1      28.935  43.305  52.818  1.00  0.00    -0.327 N 
HETATM   16  H   UNL     1      29.644  43.206  52.091  1.00  0.00     0.169 HD
HETATM   17  O   UNL     1      26.645  43.117  53.126  1.00  0.00    -0.273 OA
BRANCH  15  18
HETATM   18  C   UNL     1      29.361  43.864  54.040  1.00  0.00     0.036 A 
HETATM   19  C   UNL     1      30.360  43.313  54.847  1.00  0.00     0.056 A 
HETATM   20  C   UNL     1      30.729  43.945  56.038  1.00  0.00     0.074 A 
HETATM   21 CL   UNL     1      31.968  43.255  57.017  1.00  0.00    -0.081 Cl
HETATM   22  C   UNL     1      30.102  45.126  56.425  1.00  0.00     0.138 A 
HETATM   23  F   UNL     1      30.444  45.747  57.563  1.00  0.00    -0.204 F 
HETATM   24  C   UNL     1      29.108  45.686  55.632  1.00  0.00     0.046 A 
HETATM   25  C   UNL     1      28.740  45.058  54.440  1.00  0.00     0.032 A 
ENDBRANCH  15  18
ENDBRANCH   1  14
TORSDOF 3
ENDMDL
MODEL 6
REMARK VINA RESULT:      -8.5      2.180      2.901
REMARK  3 active torsions:
REMARK  status: ('A' for Active; 'I' for Inactive)
REMARK    1  A    between atoms: C_9  and  C_10 
REMARK    2  A    between atoms: C_10  and  C_11 
REMARK       I    between atoms: C_11  and  N_12 
REMARK    3  A    between atoms: N_12  and  C_13 
ROOT
HETATM    1  C   UNL     1      25.288  44.041  51.523  1.00  0.00     0.165 C 
ENDROOT
BRANCH   1   2
HETATM    2  C   UNL     1      26.370  43.026  51.850  1.00  0.00     0.074 A 
HETATM    3  C   UNL     1      27.427  43.372  52.844  1.00  0.00     0.006 A 
HETATM    4  C   UNL     1      27.518  44.614  53.485  1.00  0.00     0.014 A 
HETATM    5  C   UNL     1      28.382  42.395  53.125  1.00  0.00     0.046 A 
HETATM    6  C   UNL     1      28.536  44.854  54.414  1.00  0.00     0.001 A 
HETATM    7  C   UNL     1      29.473  43.864  54.704  1.00  0.00     0.001 A 
HETATM    8  C   UNL     1      29.401  42.633  54.056  1.00  0.00     0.018 A 
HETATM    9  C   UNL     1      28.329  41.112  52.410  1.00  0.00     0.272 A 
HETATM   10  O   UNL     1      29.141  40.220  52.626  1.00  0.00    -0.266 OA
HETATM   11  N   UNL     1      27.329  40.980  51.479  1.00  0.00    -0.243 N 
HETATM   12  N   UNL     1      26.369  41.898  51.197  1.00  0.00    -0.175 NA
HETATM   13  H   UNL     1      27.297  40.101  50.971  1.00  0.00     0.192 HD
ENDBRANCH   1   2
BRANCH   1  14
HETATM   14  C   UNL     1      25.535  45.044  50.409  1.00  0.00     0.227 C 
HETATM   15  N   UNL     1      25.529  46.368  50.789  1.00  0.00    -0.327 N 
HETATM   16  H   UNL     1      25.527  46.530  51.797  1.00  0.00     0.169 HD
HETATM   17  O   UNL     1      25.648  44.636  49.254  1.00  0.00    -0.273 OA
BRANCH  15  18
HETATM   18  C   UNL     1      25.627  47.509  49.969  1.00  0.00     0.036 A 
HETATM   19  C   UNL     1      24.527  48.189  49.436  1.00  0.00     0.056 A 
HETATM   20  C   UNL     1      24.720  49.323  48.643  1.00  0.00     0.074 A 
HETATM   21 CL   UNL     1      23.352  50.152  48.001  1.00  0.00    -0.081 Cl
HETATM   22  C   UNL     1      26.008  49.781  48.379  1.00  0.00     0.138 A 
HETATM   23  F   UNL     1      26.211  50.868  47.621  1.00  0.00    -0.204 F 
HETATM   24  C   UNL     1      27.110  49.116  48.902  1.00  0.00     0.046 A 
HETATM   25  C   UNL     1      26.920  47.984  49.698  1.00  0.00     0.032 A 
ENDBRANCH  15  18
ENDBRANCH   1  14
TORSDOF 3
ENDMDL
MODEL 7
REMARK VINA RESULT:      -8.4      1.560      1.974
REMARK  3 active torsions:
REMARK  status: ('A' for Active; 'I' for Inactive)
REMARK    1  A    between atoms: C_9  and  C_10 
REMARK    2  A    between atoms: C_10  and  C_11 
REMARK       I    between atoms: C_11  and  N_12 
REMARK    3  A    between atoms: N_12  and  C_13 
ROOT
HETATM    1  C   UNL     1      26.801  44.269  51.411  1.00  0.00     0.165 C 
ENDROOT
BRANCH   1   2
HETATM    2  C   UNL     1      27.213  44.828  52.763  1.00  0.00     0.074 A 
HETATM    3  C   UNL     1      28.411  44.271  53.454  1.00  0.00     0.006 A 
HETATM    4  C   UNL     1      29.181  43.213  52.952  1.00  0.00     0.014 A 
HETATM    5  C   UNL     1      28.760  44.836  54.681  1.00  0.00     0.046 A 
HETATM    6  C   UNL     1      30.298  42.757  53.660  1.00  0.00     0.001 A 
HETATM    7  C   UNL     1      30.650  43.343  54.875  1.00  0.00     0.001 A 
HETATM    8  C   UNL     1      29.879  44.381  55.391  1.00  0.00     0.018 A 
HETATM    9  C   UNL     1      27.921  45.904  55.244  1.00  0.00     0.272 A 
HETATM   10  O   UNL     1      28.189  46.437  56.314  1.00  0.00    -0.266 OA
HETATM   11  N   UNL     1      26.816  46.256  54.508  1.00  0.00    -0.243 N 
HETATM   12  N   UNL     1      26.461  45.745  53.301  1.00  0.00    -0.175 NA
HETATM   13  H   UNL     1      26.225  46.982  54.900  1.00  0.00     0.192 HD
ENDBRANCH   1   2
BRANCH   1  14
HETATM   14  C   UNL     1      26.215  45.213  50.375  1.00  0.00     0.227 C 
HETATM   15  N   UNL     1      24.978  45.735  50.680  1.00  0.00    -0.327 N 
HETATM   16  H   UNL     1      24.661  45.571  51.636  1.00  0.00     0.169 HD
HETATM   17  O   UNL     1      26.823  45.393  49.321  1.00  0.00    -0.273 OA
BRANCH  15  18
HETATM   18  C   UNL     1      24.153  46.548  49.876  1.00  0.00     0.036 A 
HETATM   19  C   UNL     1      24.120  47.944  49.947  1.00  0.00     0.056 A 
HETATM   20  C   UNL     1      23.280  48.670  49.098  1.00  0.00     0.074 A 
HETATM   21 CL   UNL     1      23.258  50.390  49.194  1.00  0.00    -0.081 Cl
HETATM   22  C   UNL     1      22.473  48.006  48.179  1.00  0.00     0.138 A 
HETATM   23  F   UNL     1      21.662  48.687  47.356  1.00  0.00    -0.204 F 
HETATM   24  C   UNL     1      22.495  46.619  48.097  1.00  0.00     0.046 A 
HETATM   25  C   UNL     1      23.336  45.891  48.942  1.00  0.00     0.032 A 
ENDBRANCH  15  18
ENDBRANCH   1  14
TORSDOF 3
ENDMDL
MODEL 8
REMARK VINA RESULT:      -8.4      4.524      7.943
REMARK  3 active torsions:
REMARK  status: ('A' for Active; 'I' for Inactive)
REMARK    1  A    between atoms: C_9  and  C_10 
REMARK    2  A    between atoms: C_10  and  C_11 
REMARK       I    between atoms: C_11  and  N_12 
REMARK    3  A    between atoms: N_12  and  C_13 
ROOT
HETATM    1  C   UNL     1      26.360  43.631  52.466  1.00  0.00     0.165 C 
ENDROOT
BRANCH   1   2
HETATM    2  C   UNL     1      25.816  44.887  51.805  1.00  0.00     0.074 A 
HETATM    3  C   UNL     1      24.781  44.767  50.739  1.00  0.00     0.006 A 
HETATM    4  C   UNL     1      24.290  43.544  50.261  1.00  0.00     0.014 A 
HETATM    5  C   UNL     1      24.298  45.951  50.182  1.00  0.00     0.046 A 
HETATM    6  C   UNL     1      23.310  43.520  49.263  1.00  0.00     0.001 A 
HETATM    7  C   UNL     1      22.819  44.710  48.729  1.00  0.00     0.001 A 
HETATM    8  C   UNL     1      23.316  45.929  49.184  1.00  0.00     0.018 A 
HETATM    9  C   UNL     1      24.853  47.235  50.634  1.00  0.00     0.272 A 
HETATM   10  O   UNL     1      24.458  48.303  50.181  1.00  0.00    -0.266 OA
HETATM   11  N   UNL     1      25.847  47.165  51.579  1.00  0.00    -0.243 N 
HETATM   12  N   UNL     1      26.323  46.033  52.159  1.00  0.00    -0.175 NA
HETATM   13  H   UNL     1      26.245  48.049  51.883  1.00  0.00     0.192 HD
ENDBRANCH   1   2
BRANCH   1  14
HETATM   14  C   UNL     1      27.047  43.751  53.816  1.00  0.00     0.227 C 
HETATM   15  N   UNL     1      28.380  44.093  53.775  1.00  0.00    -0.327 N 
HETATM   16  H   UNL     1      28.724  44.392  52.863  1.00  0.00     0.169 HD
HETATM   17  O   UNL     1      26.414  43.472  54.833  1.00  0.00    -0.273 OA
BRANCH  15  18
HETATM   18  C   UNL     1      29.290  44.177  54.849  1.00  0.00     0.036 A 
HETATM   19  C   UNL     1      29.261  45.179  55.824  1.00  0.00     0.056 A 
HETATM   20  C   UNL     1      30.196  45.175  56.862  1.00  0.00     0.074 A 
HETATM   21 CL   UNL     1      30.140  46.413  58.060  1.00  0.00    -0.081 Cl
HETATM   22  C   UNL     1      31.162  44.174  56.929  1.00  0.00     0.138 A 
HETATM   23  F   UNL     1      32.066  44.155  57.919  1.00  0.00    -0.204 F 
HETATM   24  C   UNL     1      31.203  43.172  55.968  1.00  0.00     0.046 A 
HETATM   25  C   UNL     1      30.267  43.172  54.930  1.00  0.00     0.032 A 
ENDBRANCH  15  18
ENDBRANCH   1  14
TORSDOF 3
ENDMDL
MODEL 9
REMARK VINA RESULT:      -8.2      4.670      7.903
REMARK  3 active torsions:
REMARK  status: ('A' for Active; 'I' for Inactive)
REMARK    1  A    between atoms: C_9  and  C_10 
REMARK    2  A    between atoms: C_10  and  C_11 
REMARK       I    between atoms: C_11  and  N_12 
REMARK    3  A    between atoms: N_12  and  C_13 
ROOT
HETATM    1  C   UNL     1      27.113  43.287  51.673  1.00  0.00     0.165 C 
ENDROOT
BRANCH   1   2
HETATM    2  C   UNL     1      25.755  43.610  51.073  1.00  0.00     0.074 A 
HETATM    3  C   UNL     1      25.443  45.013  50.674  1.00  0.00     0.006 A 
HETATM    4  C   UNL     1      26.321  46.090  50.855  1.00  0.00     0.014 A 
HETATM    5  C   UNL     1      24.191  45.251  50.106  1.00  0.00     0.046 A 
HETATM    6  C   UNL     1      25.953  47.375  50.443  1.00  0.00     0.001 A 
HETATM    7  C   UNL     1      24.708  47.598  49.857  1.00  0.00     0.001 A 
HETATM    8  C   UNL     1      23.822  46.537  49.691  1.00  0.00     0.018 A 
HETATM    9  C   UNL     1      23.241  44.137  49.970  1.00  0.00     0.272 A 
HETATM   10  O   UNL     1      22.133  44.294  49.472  1.00  0.00    -0.266 OA
HETATM   11  N   UNL     1      23.663  42.921  50.447  1.00  0.00    -0.243 N 
HETATM   12  N   UNL     1      24.881  42.648  50.982  1.00  0.00    -0.175 NA
HETATM   13  H   UNL     1      23.005  42.151  50.370  1.00  0.00     0.192 HD
ENDBRANCH   1   2
BRANCH   1  14
HETATM   14  C   UNL     1      27.393  43.685  53.112  1.00  0.00     0.227 C 
HETATM   15  N   UNL     1      28.670  44.134  53.366  1.00  0.00    -0.327 N 
HETATM   16  H   UNL     1      29.240  44.312  52.539  1.00  0.00     0.169 HD
HETATM   17  O   UNL     1      26.515  43.518  53.958  1.00  0.00    -0.273 OA
BRANCH  15  18
HETATM   18  C   UNL     1      29.242  44.473  54.609  1.00  0.00     0.036 A 
HETATM   19  C   UNL     1      30.262  43.743  55.227  1.00  0.00     0.056 A 
HETATM   20  C   UNL     1      30.780  44.162  56.456  1.00  0.00     0.074 A 
HETATM   21 CL   UNL     1      32.043  43.254  57.198  1.00  0.00    -0.081 Cl
HETATM   22  C   UNL     1      30.281  45.307  57.070  1.00  0.00     0.138 A 
HETATM   23  F   UNL     1      30.767  45.724  58.248  1.00  0.00    -0.204 F 
HETATM   24  C   UNL     1      29.268  46.042  56.468  1.00  0.00     0.046 A 
HETATM   25  C   UNL     1      28.751  45.627  55.238  1.00  0.00     0.032 A 
ENDBRANCH  15  18
ENDBRANCH   1  14
TORSDOF 3
ENDMDL
MODEL 10
REMARK VINA RESULT:      -8.1      6.200     10.638
REMARK  3 active torsions:
REMARK  status: ('A' for Active; 'I' for Inactive)
REMARK    1  A    between atoms: C_9  and  C_10 
REMARK    2  A    between atoms: C_10  and  C_11 
REMARK       I    between atoms: C_11  and  N_12 
REMARK    3  A    between atoms: N_12  and  C_13 
ROOT
HETATM    1  C   UNL     1      20.906  51.392  48.566  1.00  0.00     0.165 C 
ENDROOT
BRANCH   1   2
HETATM    2  C   UNL     1      19.643  50.577  48.346  1.00  0.00     0.074 A 
HETATM    3  C   UNL     1      18.324  51.141  48.753  1.00  0.00     0.006 A 
HETATM    4  C   UNL     1      18.166  52.385  49.378  1.00  0.00     0.014 A 
HETATM    5  C   UNL     1      17.194  50.362  48.506  1.00  0.00     0.046 A 
HETATM    6  C   UNL     1      16.890  52.845  49.719  1.00  0.00     0.001 A 
HETATM    7  C   UNL     1      15.765  52.067  49.449  1.00  0.00     0.001 A 
HETATM    8  C   UNL     1      15.915  50.821  48.846  1.00  0.00     0.018 A 
HETATM    9  C   UNL     1      17.357  49.029  47.908  1.00  0.00     0.272 A 
HETATM   10  O   UNL     1      16.396  48.309  47.666  1.00  0.00    -0.266 OA
HETATM   11  N   UNL     1      18.647  48.635  47.652  1.00  0.00    -0.243 N 
HETATM   12  N   UNL     1      19.767  49.376  47.857  1.00  0.00    -0.175 NA
HETATM   13  H   UNL     1      18.767  47.709  47.253  1.00  0.00     0.192 HD
ENDBRANCH   1   2
BRANCH   1  14
HETATM   14  C   UNL     1      22.078  50.748  49.287  1.00  0.00     0.227 C 
HETATM   15  N   UNL     1      22.837  49.882  48.532  1.00  0.00    -0.327 N 
HETATM   16  H   UNL     1      22.639  49.892  47.531  1.00  0.00     0.169 HD
HETATM   17  O   UNL     1      22.234  50.970  50.487  1.00  0.00    -0.273 OA
BRANCH  15  18
HETATM   18  C   UNL     1      23.911  49.072  48.953  1.00  0.00     0.036 A 
HETATM   19  C   UNL     1      25.257  49.427  48.826  1.00  0.00     0.056 A 
HETATM   20  C   UNL     1      26.257  48.564  49.286  1.00  0.00     0.074 A 
HETATM   21 CL   UNL     1      27.910  49.022  49.128  1.00  0.00    -0.081 Cl
HETATM   22  C   UNL     1      25.915  47.348  49.871  1.00  0.00     0.138 A 
HETATM   23  F   UNL     1      26.861  46.509  50.318  1.00  0.00    -0.204 F 
HETATM   24  C   UNL     1      24.581  46.982  50.003  1.00  0.00     0.046 A 
HETATM   25  C   UNL     1      23.581  47.844  49.548  1.00  0.00     0.032 A 
ENDBRANCH  15  18
ENDBRANCH   1  14
TORSDOF 3
ENDMDL
