MODEL 1
REMARK VINA RESULT:      -8.6      0.000      0.000
REMARK  3 active torsions:
REMARK  status: ('A' for Active; 'I' for Inactive)
REMARK    1  A    between atoms: C_9  and  C_10 
REMARK    2  A    between atoms: C_16  and  C_17 
REMARK       I    between atoms: C_17  and  N_18 
REMARK    3  A    between atoms: N_18  and  C_19 
ROOT
HETATM    1  C   UNL     1      28.690  40.992  52.285  1.00  0.00     0.070 C 
HETATM    2  C   UNL     1      27.493  41.728  51.733  1.00  0.00     0.037 C 
HETATM    3  N   UNL     1      26.963  41.212  50.553  1.00  0.00    -0.191 N 
HETATM    4  C   UNL     1      25.759  41.582  50.070  1.00  0.00     0.735 A 
HETATM    5  N   UNL     1      25.093  42.618  50.661  1.00  0.00    -0.092 N 
HETATM    6  N   UNL     1      23.894  42.791  50.085  1.00  0.00     0.012 NA
HETATM    7  N   UNL     1      23.856  41.877  49.120  1.00  0.00     0.033 NA
HETATM    8  N   UNL     1      25.011  41.117  49.100  1.00  0.00     0.030 NA
HETATM    9  C   UNL     1      25.606  43.403  51.781  1.00  0.00     0.199 C 
HETATM   10  C   UNL     1      26.883  42.778  52.338  1.00  0.00     0.062 C 
HETATM   11  H   UNL     1      27.394  40.371  50.173  1.00  0.00     0.184 HD
ENDROOT
BRANCH  10  12
HETATM   12  C   UNL     1      27.304  43.341  53.648  1.00  0.00     0.256 C 
HETATM   13  N   UNL     1      28.574  43.871  53.645  1.00  0.00    -0.322 N 
HETATM   14  H   UNL     1      29.079  43.877  52.767  1.00  0.00     0.169 HD
HETATM   15  O   UNL     1      26.502  43.344  54.572  1.00  0.00    -0.267 OA
BRANCH  13  16
HETATM   16  C   UNL     1      29.258  44.405  54.758  1.00  0.00     0.052 A 
HETATM   17  C   UNL     1      28.939  45.599  55.401  1.00  0.00     0.145 A 
HETATM   18  N   UNL     1      29.597  46.079  56.487  1.00  0.00    -0.271 NA
HETATM   19  C   UNL     1      30.620  45.340  56.959  1.00  0.00     0.116 A 
HETATM   20  C   UNL     1      31.019  44.141  56.394  1.00  0.00     0.021 A 
HETATM   21  C   UNL     1      30.328  43.672  55.278  1.00  0.00     0.032 A 
ENDBRANCH  13  16
ENDBRANCH  10  12
BRANCH   9  22
HETATM   22  C   UNL     1      25.823  44.851  51.373  1.00  0.00    -0.011 A 
HETATM   23  C   UNL     1      25.262  45.917  52.076  1.00  0.00     0.125 A 
HETATM   24  N   UNL     1      25.388  47.214  51.716  1.00  0.00    -0.272 NA
HETATM   25  C   UNL     1      26.122  47.475  50.614  1.00  0.00     0.116 A 
HETATM   26  C   UNL     1      26.717  46.493  49.840  1.00  0.00     0.020 A 
HETATM   27  C   UNL     1      26.558  45.164  50.223  1.00  0.00     0.012 A 
ENDBRANCH   9  22
TORSDOF 3
ENDMDL
MODEL 2
REMARK VINA RESULT:      -8.3      2.279      3.142
REMARK  3 active torsions:
REMARK  status: ('A' for Active; 'I' for Inactive)
REMARK    1  A    between atoms: C_9  and  C_10 
REMARK    2  A    between atoms: C_16  and  C_17 
REMARK       I    between atoms: C_17  and  N_18 
REMARK    3  A    between atoms: N_18  and  C_19 
ROOT
HETATM    1  C   UNL     1      29.970  42.788  53.330  1.00  0.00     0.070 C 
HETATM    2  C   UNL     1      28.817  42.313  52.480  1.00  0.00     0.037 C 
HETATM    3  N   UNL     1      29.119  41.304  51.569  1.00  0.00    -0.191 N 
HETATM    4  C   UNL     1      28.171  40.594  50.924  1.00  0.00     0.735 A 
HETATM    5  N   UNL     1      26.863  40.975  51.033  1.00  0.00    -0.092 N 
HETATM    6  N   UNL     1      26.070  40.112  50.380  1.00  0.00     0.012 NA
HETATM    7  N   UNL     1      26.910  39.231  49.844  1.00  0.00     0.033 NA
HETATM    8  N   UNL     1      28.221  39.519  50.176  1.00  0.00     0.030 NA
HETATM    9  C   UNL     1      26.397  42.138  51.783  1.00  0.00     0.199 C 
HETATM   10  C   UNL     1      27.536  42.745  52.600  1.00  0.00     0.062 C 
HETATM   11  H   UNL     1      30.072  40.943  51.566  1.00  0.00     0.184 HD
ENDROOT
BRANCH  10  12
HETATM   12  C   UNL     1      27.087  43.742  53.606  1.00  0.00     0.256 C 
HETATM   13  N   UNL     1      27.239  45.049  53.204  1.00  0.00    -0.322 N 
HETATM   14  H   UNL     1      27.587  45.215  52.266  1.00  0.00     0.169 HD
HETATM   15  O   UNL     1      26.582  43.342  54.646  1.00  0.00    -0.267 OA
BRANCH  13  16
HETATM   16  C   UNL     1      26.967  46.199  53.976  1.00  0.00     0.052 A 
HETATM   17  C   UNL     1      25.882  47.052  53.791  1.00  0.00     0.145 A 
HETATM   18  N   UNL     1      25.627  48.139  54.565  1.00  0.00    -0.271 NA
HETATM   19  C   UNL     1      26.488  48.390  55.570  1.00  0.00     0.116 A 
HETATM   20  C   UNL     1      27.596  47.606  55.839  1.00  0.00     0.021 A 
HETATM   21  C   UNL     1      27.837  46.497  55.028  1.00  0.00     0.032 A 
ENDBRANCH  13  16
ENDBRANCH  10  12
BRANCH   9  22
HETATM   22  C   UNL     1      25.765  43.163  50.856  1.00  0.00    -0.011 A 
HETATM   23  C   UNL     1      26.514  43.908  49.945  1.00  0.00     0.125 A 
HETATM   24  N   UNL     1      25.998  44.865  49.142  1.00  0.00    -0.272 NA
HETATM   25  C   UNL     1      24.670  45.086  49.228  1.00  0.00     0.116 A 
HETATM   26  C   UNL     1      23.836  44.410  50.101  1.00  0.00     0.020 A 
HETATM   27  C   UNL     1      24.395  43.441  50.930  1.00  0.00     0.012 A 
ENDBRANCH   9  22
TORSDOF 3
ENDMDL
MODEL 3
REMARK VINA RESULT:      -7.8      1.754      4.166
REMARK  3 active torsions:
REMARK  status: ('A' for Active; 'I' for Inactive)
REMARK    1  A    between atoms: C_9  and  C_10 
REMARK    2  A    between atoms: C_16  and  C_17 
REMARK       I    between atoms: C_17  and  N_18 
REMARK    3  A    between atoms: N_18  and  C_19 
ROOT
HETATM    1  C   UNL     1      25.792  47.188  54.846  1.00  0.00     0.070 C 
HETATM    2  C   UNL     1      26.089  46.665  53.462  1.00  0.00     0.037 C 
HETATM    3  N   UNL     1      25.534  47.393  52.412  1.00  0.00    -0.191 N 
HETATM    4  C   UNL     1      25.906  47.221  51.127  1.00  0.00     0.735 A 
HETATM    5  N   UNL     1      26.737  46.185  50.807  1.00  0.00    -0.092 N 
HETATM    6  N   UNL     1      27.043  46.220  49.501  1.00  0.00     0.012 NA
HETATM    7  N   UNL     1      26.361  47.259  49.029  1.00  0.00     0.033 NA
HETATM    8  N   UNL     1      25.649  47.892  50.031  1.00  0.00     0.030 NA
HETATM    9  C   UNL     1      27.244  45.202  51.760  1.00  0.00     0.199 C 
HETATM   10  C   UNL     1      26.896  45.608  53.191  1.00  0.00     0.062 C 
HETATM   11  H   UNL     1      25.005  48.231  52.650  1.00  0.00     0.184 HD
ENDROOT
BRANCH  10  12
HETATM   12  C   UNL     1      27.617  44.826  54.228  1.00  0.00     0.256 C 
HETATM   13  N   UNL     1      28.767  45.428  54.682  1.00  0.00    -0.322 N 
HETATM   14  H   UNL     1      28.992  46.346  54.319  1.00  0.00     0.169 HD
HETATM   15  O   UNL     1      27.122  43.780  54.626  1.00  0.00    -0.267 OA
BRANCH  13  16
HETATM   16  C   UNL     1      29.685  44.885  55.607  1.00  0.00     0.052 A 
HETATM   17  C   UNL     1      29.971  45.419  56.862  1.00  0.00     0.145 A 
HETATM   18  N   UNL     1      30.840  44.864  57.745  1.00  0.00    -0.271 NA
HETATM   19  C   UNL     1      31.454  43.725  57.367  1.00  0.00     0.116 A 
HETATM   20  C   UNL     1      31.241  43.114  56.144  1.00  0.00     0.021 A 
HETATM   21  C   UNL     1      30.346  43.706  55.254  1.00  0.00     0.032 A 
ENDBRANCH  13  16
ENDBRANCH  10  12
BRANCH   9  22
HETATM   22  C   UNL     1      26.726  43.812  51.431  1.00  0.00    -0.011 A 
HETATM   23  C   UNL     1      27.575  42.714  51.285  1.00  0.00     0.125 A 
HETATM   24  N   UNL     1      27.160  41.474  50.941  1.00  0.00    -0.272 NA
HETATM   25  C   UNL     1      25.835  41.303  50.750  1.00  0.00     0.116 A 
HETATM   26  C   UNL     1      24.907  42.324  50.862  1.00  0.00     0.020 A 
HETATM   27  C   UNL     1      25.362  43.595  51.201  1.00  0.00     0.012 A 
ENDBRANCH   9  22
TORSDOF 3
ENDMDL
MODEL 4
REMARK VINA RESULT:      -7.7     12.839     15.625
REMARK  3 active torsions:
REMARK  status: ('A' for Active; 'I' for Inactive)
REMARK    1  A    between atoms: C_9  and  C_10 
REMARK    2  A    between atoms: C_16  and  C_17 
REMARK       I    between atoms: C_17  and  N_18 
REMARK    3  A    between atoms: N_18  and  C_19 
ROOT
HETATM    1  C   UNL     1      31.985  48.337  42.408  1.00  0.00     0.070 C 
HETATM    2  C   UNL     1      32.218  49.481  41.453  1.00  0.00     0.037 C 
HETATM    3  N   UNL     1      33.173  50.413  41.854  1.00  0.00    -0.191 N 
HETATM    4  C   UNL     1      33.684  51.340  41.018  1.00  0.00     0.735 A 
HETATM    5  N   UNL     1      33.138  51.491  39.775  1.00  0.00    -0.092 N 
HETATM    6  N   UNL     1      33.820  52.409  39.074  1.00  0.00     0.012 NA
HETATM    7  N   UNL     1      34.756  52.838  39.915  1.00  0.00     0.033 NA
HETATM    8  N   UNL     1      34.683  52.180  41.129  1.00  0.00     0.030 NA
HETATM    9  C   UNL     1      31.994  50.734  39.273  1.00  0.00     0.199 C 
HETATM   10  C   UNL     1      31.625  49.609  40.238  1.00  0.00     0.062 C 
HETATM   11  H   UNL     1      33.659  50.238  42.731  1.00  0.00     0.184 HD
ENDROOT
BRANCH  10  12
HETATM   12  C   UNL     1      30.671  48.622  39.672  1.00  0.00     0.256 C 
HETATM   13  N   UNL     1      29.390  48.740  40.159  1.00  0.00    -0.322 N 
HETATM   14  H   UNL     1      29.201  49.498  40.805  1.00  0.00     0.169 HD
HETATM   15  O   UNL     1      31.066  47.851  38.808  1.00  0.00    -0.267 OA
BRANCH  13  16
HETATM   16  C   UNL     1      28.299  47.897  39.856  1.00  0.00     0.052 A 
HETATM   17  C   UNL     1      27.315  48.165  38.907  1.00  0.00     0.145 A 
HETATM   18  N   UNL     1      26.288  47.326  38.616  1.00  0.00    -0.271 NA
HETATM   19  C   UNL     1      26.237  46.164  39.296  1.00  0.00     0.116 A 
HETATM   20  C   UNL     1      27.163  45.801  40.257  1.00  0.00     0.021 A 
HETATM   21  C   UNL     1      28.205  46.682  40.540  1.00  0.00     0.032 A 
ENDBRANCH  13  16
ENDBRANCH  10  12
BRANCH   9  22
HETATM   22  C   UNL     1      30.812  51.652  39.007  1.00  0.00    -0.011 A 
HETATM   23  C   UNL     1      30.196  51.732  37.757  1.00  0.00     0.125 A 
HETATM   24  N   UNL     1      29.179  52.573  37.466  1.00  0.00    -0.272 NA
HETATM   25  C   UNL     1      28.732  53.363  38.465  1.00  0.00     0.116 A 
HETATM   26  C   UNL     1      29.274  53.368  39.738  1.00  0.00     0.020 A 
HETATM   27  C   UNL     1      30.333  52.505  40.008  1.00  0.00     0.012 A 
ENDBRANCH   9  22
TORSDOF 3
ENDMDL
MODEL 5
REMARK VINA RESULT:      -7.7      4.758      8.451
REMARK  3 active torsions:
REMARK  status: ('A' for Active; 'I' for Inactive)
REMARK    1  A    between atoms: C_9  and  C_10 
REMARK    2  A    between atoms: C_16  and  C_17 
REMARK       I    between atoms: C_17  and  N_18 
REMARK    3  A    between atoms: N_18  and  C_19 
ROOT
HETATM    1  C   UNL     1      25.763  49.039  49.029  1.00  0.00     0.070 C 
HETATM    2  C   UNL     1      25.248  47.711  49.528  1.00  0.00     0.037 C 
HETATM    3  N   UNL     1      26.172  46.929  50.217  1.00  0.00    -0.191 N 
HETATM    4  C   UNL     1      25.818  45.849  50.943  1.00  0.00     0.735 A 
HETATM    5  N   UNL     1      24.531  45.395  50.878  1.00  0.00    -0.092 N 
HETATM    6  N   UNL     1      24.359  44.360  51.714  1.00  0.00     0.012 NA
HETATM    7  N   UNL     1      25.558  44.169  52.255  1.00  0.00     0.033 NA
HETATM    8  N   UNL     1      26.476  45.089  51.783  1.00  0.00     0.030 NA
HETATM    9  C   UNL     1      23.487  45.977  50.040  1.00  0.00     0.199 C 
HETATM   10  C   UNL     1      23.965  47.284  49.411  1.00  0.00     0.062 C 
HETATM   11  H   UNL     1      27.102  47.319  50.360  1.00  0.00     0.184 HD
ENDROOT
BRANCH  10  12
HETATM   12  C   UNL     1      22.879  48.082  48.785  1.00  0.00     0.256 C 
HETATM   13  N   UNL     1      22.159  48.842  49.678  1.00  0.00    -0.322 N 
HETATM   14  H   UNL     1      22.454  48.833  50.648  1.00  0.00     0.169 HD
HETATM   15  O   UNL     1      22.751  48.050  47.569  1.00  0.00    -0.267 OA
BRANCH  13  16
HETATM   16  C   UNL     1      21.031  49.637  49.380  1.00  0.00     0.052 A 
HETATM   17  C   UNL     1      19.706  49.255  49.572  1.00  0.00     0.145 A 
HETATM   18  N   UNL     1      18.637  50.048  49.301  1.00  0.00    -0.271 NA
HETATM   19  C   UNL     1      18.896  51.280  48.819  1.00  0.00     0.116 A 
HETATM   20  C   UNL     1      20.175  51.756  48.591  1.00  0.00     0.021 A 
HETATM   21  C   UNL     1      21.255  50.920  48.875  1.00  0.00     0.032 A 
ENDBRANCH  13  16
ENDBRANCH  10  12
BRANCH   9  22
HETATM   22  C   UNL     1      23.023  44.986  48.985  1.00  0.00    -0.011 A 
HETATM   23  C   UNL     1      21.678  44.662  48.805  1.00  0.00     0.125 A 
HETATM   24  N   UNL     1      21.230  43.747  47.916  1.00  0.00    -0.272 NA
HETATM   25  C   UNL     1      22.156  43.134  47.149  1.00  0.00     0.116 A 
HETATM   26  C   UNL     1      23.516  43.376  47.249  1.00  0.00     0.020 A 
HETATM   27  C   UNL     1      23.952  44.310  48.185  1.00  0.00     0.012 A 
ENDBRANCH   9  22
TORSDOF 3
ENDMDL
MODEL 6
REMARK VINA RESULT:      -7.4     13.189     15.647
REMARK  3 active torsions:
REMARK  status: ('A' for Active; 'I' for Inactive)
REMARK    1  A    between atoms: C_9  and  C_10 
REMARK    2  A    between atoms: C_16  and  C_17 
REMARK       I    between atoms: C_17  and  N_18 
REMARK    3  A    between atoms: N_18  and  C_19 
ROOT
HETATM    1  C   UNL     1      28.789  53.220  38.172  1.00  0.00     0.070 C 
HETATM    2  C   UNL     1      28.731  51.758  38.545  1.00  0.00     0.037 C 
HETATM    3  N   UNL     1      27.457  51.251  38.789  1.00  0.00    -0.191 N 
HETATM    4  C   UNL     1      27.203  49.929  38.878  1.00  0.00     0.735 A 
HETATM    5  N   UNL     1      28.247  49.049  38.896  1.00  0.00    -0.092 N 
HETATM    6  N   UNL     1      27.792  47.787  38.923  1.00  0.00     0.012 NA
HETATM    7  N   UNL     1      26.470  47.913  38.959  1.00  0.00     0.033 NA
HETATM    8  N   UNL     1      26.089  49.241  38.931  1.00  0.00     0.030 NA
HETATM    9  C   UNL     1      29.656  49.431  38.859  1.00  0.00     0.199 C 
HETATM   10  C   UNL     1      29.803  50.926  38.584  1.00  0.00     0.062 C 
HETATM   11  H   UNL     1      26.669  51.884  38.666  1.00  0.00     0.184 HD
ENDROOT
BRANCH  10  12
HETATM   12  C   UNL     1      31.189  51.340  38.245  1.00  0.00     0.256 C 
HETATM   13  N   UNL     1      31.939  51.726  39.331  1.00  0.00    -0.322 N 
HETATM   14  H   UNL     1      31.512  51.651  40.247  1.00  0.00     0.169 HD
HETATM   15  O   UNL     1      31.560  51.253  37.082  1.00  0.00    -0.267 OA
BRANCH  13  16
HETATM   16  C   UNL     1      33.256  52.234  39.300  1.00  0.00     0.052 A 
HETATM   17  C   UNL     1      33.597  53.584  39.300  1.00  0.00     0.145 A 
HETATM   18  N   UNL     1      34.873  54.048  39.296  1.00  0.00    -0.271 NA
HETATM   19  C   UNL     1      35.858  53.128  39.293  1.00  0.00     0.116 A 
HETATM   20  C   UNL     1      35.627  51.764  39.293  1.00  0.00     0.021 A 
HETATM   21  C   UNL     1      34.307  51.315  39.294  1.00  0.00     0.032 A 
ENDBRANCH  13  16
ENDBRANCH  10  12
BRANCH   9  22
HETATM   22  C   UNL     1      30.361  49.027  40.144  1.00  0.00    -0.011 A 
HETATM   23  C   UNL     1      29.946  49.478  41.397  1.00  0.00     0.125 A 
HETATM   24  N   UNL     1      30.577  49.185  42.556  1.00  0.00    -0.272 NA
HETATM   25  C   UNL     1      31.664  48.389  42.477  1.00  0.00     0.116 A 
HETATM   26  C   UNL     1      32.165  47.892  41.286  1.00  0.00     0.020 A 
HETATM   27  C   UNL     1      31.506  48.223  40.105  1.00  0.00     0.012 A 
ENDBRANCH   9  22
TORSDOF 3
ENDMDL
MODEL 7
REMARK VINA RESULT:      -7.3      2.424      6.627
REMARK  3 active torsions:
REMARK  status: ('A' for Active; 'I' for Inactive)
REMARK    1  A    between atoms: C_9  and  C_10 
REMARK    2  A    between atoms: C_16  and  C_17 
REMARK       I    between atoms: C_17  and  N_18 
REMARK    3  A    between atoms: N_18  and  C_19 
ROOT
HETATM    1  C   UNL     1      24.566  45.714  49.362  1.00  0.00     0.070 C 
HETATM    2  C   UNL     1      25.106  45.594  50.766  1.00  0.00     0.037 C 
HETATM    3  N   UNL     1      25.335  46.799  51.426  1.00  0.00    -0.191 N 
HETATM    4  C   UNL     1      25.566  46.873  52.753  1.00  0.00     0.735 A 
HETATM    5  N   UNL     1      25.747  45.720  53.463  1.00  0.00    -0.092 N 
HETATM    6  N   UNL     1      25.896  45.995  54.767  1.00  0.00     0.012 NA
HETATM    7  N   UNL     1      25.843  47.322  54.834  1.00  0.00     0.033 NA
HETATM    8  N   UNL     1      25.637  47.881  53.587  1.00  0.00     0.030 NA
HETATM    9  C   UNL     1      25.744  44.379  52.884  1.00  0.00     0.199 C 
HETATM   10  C   UNL     1      25.303  44.423  51.423  1.00  0.00     0.062 C 
HETATM   11  H   UNL     1      25.094  47.657  50.933  1.00  0.00     0.184 HD
ENDROOT
BRANCH  10  12
HETATM   12  C   UNL     1      24.995  43.087  50.849  1.00  0.00     0.256 C 
HETATM   13  N   UNL     1      26.037  42.527  50.146  1.00  0.00    -0.322 N 
HETATM   14  H   UNL     1      26.914  43.035  50.123  1.00  0.00     0.169 HD
HETATM   15  O   UNL     1      23.907  42.582  51.086  1.00  0.00    -0.267 OA
BRANCH  13  16
HETATM   16  C   UNL     1      26.007  41.307  49.437  1.00  0.00     0.052 A 
HETATM   17  C   UNL     1      25.363  41.102  48.219  1.00  0.00     0.145 A 
HETATM   18  N   UNL     1      25.369  39.924  47.543  1.00  0.00    -0.271 NA
HETATM   19  C   UNL     1      26.049  38.902  48.100  1.00  0.00     0.116 A 
HETATM   20  C   UNL     1      26.722  39.001  49.305  1.00  0.00     0.021 A 
HETATM   21  C   UNL     1      26.696  40.221  49.981  1.00  0.00     0.032 A 
ENDBRANCH  13  16
ENDBRANCH  10  12
BRANCH   9  22
HETATM   22  C   UNL     1      27.105  43.720  53.038  1.00  0.00    -0.011 A 
HETATM   23  C   UNL     1      28.218  44.124  52.301  1.00  0.00     0.125 A 
HETATM   24  N   UNL     1      29.431  43.530  52.370  1.00  0.00    -0.272 NA
HETATM   25  C   UNL     1      29.557  42.494  53.225  1.00  0.00     0.116 A 
HETATM   26  C   UNL     1      28.517  42.009  53.999  1.00  0.00     0.020 A 
HETATM   27  C   UNL     1      27.274  42.627  53.897  1.00  0.00     0.012 A 
ENDBRANCH   9  22
TORSDOF 3
ENDMDL
MODEL 8
REMARK VINA RESULT:      -7.3     12.835     13.553
REMARK  3 active torsions:
REMARK  status: ('A' for Active; 'I' for Inactive)
REMARK    1  A    between atoms: C_9  and  C_10 
REMARK    2  A    between atoms: C_16  and  C_17 
REMARK       I    between atoms: C_17  and  N_18 
REMARK    3  A    between atoms: N_18  and  C_19 
ROOT
HETATM    1  C   UNL     1      31.246  46.983  39.868  1.00  0.00     0.070 C 
HETATM    2  C   UNL     1      30.020  47.862  39.862  1.00  0.00     0.037 C 
HETATM    3  N   UNL     1      29.046  47.528  38.924  1.00  0.00    -0.191 N 
HETATM    4  C   UNL     1      27.797  48.037  38.955  1.00  0.00     0.735 A 
HETATM    5  N   UNL     1      27.509  49.042  39.834  1.00  0.00    -0.092 N 
HETATM    6  N   UNL     1      26.209  49.366  39.760  1.00  0.00     0.012 NA
HETATM    7  N   UNL     1      25.725  48.578  38.806  1.00  0.00     0.033 NA
HETATM    8  N   UNL     1      26.703  47.745  38.296  1.00  0.00     0.030 NA
HETATM    9  C   UNL     1      28.474  49.651  40.745  1.00  0.00     0.199 C 
HETATM   10  C   UNL     1      29.789  48.875  40.735  1.00  0.00     0.062 C 
HETATM   11  H   UNL     1      29.216  46.709  38.343  1.00  0.00     0.184 HD
ENDROOT
BRANCH  10  12
HETATM   12  C   UNL     1      30.714  49.249  41.837  1.00  0.00     0.256 C 
HETATM   13  N   UNL     1      31.528  50.319  41.545  1.00  0.00    -0.322 N 
HETATM   14  H   UNL     1      31.397  50.778  40.651  1.00  0.00     0.169 HD
HETATM   15  O   UNL     1      30.642  48.641  42.896  1.00  0.00    -0.267 OA
BRANCH  13  16
HETATM   16  C   UNL     1      32.547  50.843  42.369  1.00  0.00     0.052 A 
HETATM   17  C   UNL     1      33.902  50.874  42.049  1.00  0.00     0.145 A 
HETATM   18  N   UNL     1      34.861  51.408  42.848  1.00  0.00    -0.271 NA
HETATM   19  C   UNL     1      34.457  51.938  44.019  1.00  0.00     0.116 A 
HETATM   20  C   UNL     1      33.136  51.958  44.431  1.00  0.00     0.021 A 
HETATM   21  C   UNL     1      32.171  51.401  43.593  1.00  0.00     0.032 A 
ENDBRANCH  13  16
ENDBRANCH  10  12
BRANCH   9  22
HETATM   22  C   UNL     1      28.687  51.117  40.407  1.00  0.00    -0.011 A 
HETATM   23  C   UNL     1      28.476  52.136  41.337  1.00  0.00     0.125 A 
HETATM   24  N   UNL     1      28.603  53.453  41.061  1.00  0.00    -0.272 NA
HETATM   25  C   UNL     1      28.977  53.783  39.807  1.00  0.00     0.116 A 
HETATM   26  C   UNL     1      29.206  52.854  38.806  1.00  0.00     0.020 A 
HETATM   27  C   UNL     1      29.051  51.504  39.112  1.00  0.00     0.012 A 
ENDBRANCH   9  22
TORSDOF 3
ENDMDL
MODEL 9
REMARK VINA RESULT:      -7.2      6.262      9.086
REMARK  3 active torsions:
REMARK  status: ('A' for Active; 'I' for Inactive)
REMARK    1  A    between atoms: C_9  and  C_10 
REMARK    2  A    between atoms: C_16  and  C_17 
REMARK       I    between atoms: C_17  and  N_18 
REMARK    3  A    between atoms: N_18  and  C_19 
ROOT
HETATM    1  C   UNL     1      20.915  50.960  50.235  1.00  0.00     0.070 C 
HETATM    2  C   UNL     1      20.313  49.942  49.296  1.00  0.00     0.037 C 
HETATM    3  N   UNL     1      18.936  49.767  49.404  1.00  0.00    -0.191 N 
HETATM    4  C   UNL     1      18.210  49.100  48.483  1.00  0.00     0.735 A 
HETATM    5  N   UNL     1      18.856  48.426  47.486  1.00  0.00    -0.092 N 
HETATM    6  N   UNL     1      17.969  47.885  46.638  1.00  0.00     0.012 NA
HETATM    7  N   UNL     1      16.784  48.205  47.150  1.00  0.00     0.033 NA
HETATM    8  N   UNL     1      16.920  48.962  48.299  1.00  0.00     0.030 NA
HETATM    9  C   UNL     1      20.307  48.336  47.349  1.00  0.00     0.199 C 
HETATM   10  C   UNL     1      21.002  49.268  48.341  1.00  0.00     0.062 C 
HETATM   11  H   UNL     1      18.439  50.352  50.074  1.00  0.00     0.184 HD
ENDROOT
BRANCH  10  12
HETATM   12  C   UNL     1      22.451  49.455  48.074  1.00  0.00     0.256 C 
HETATM   13  N   UNL     1      23.272  48.792  48.957  1.00  0.00    -0.322 N 
HETATM   14  H   UNL     1      22.832  48.211  49.661  1.00  0.00     0.169 HD
HETATM   15  O   UNL     1      22.790  50.107  47.096  1.00  0.00    -0.267 OA
BRANCH  13  16
HETATM   16  C   UNL     1      24.682  48.846  48.990  1.00  0.00     0.052 A 
HETATM   17  C   UNL     1      25.462  49.830  48.387  1.00  0.00     0.145 A 
HETATM   18  N   UNL     1      26.818  49.875  48.454  1.00  0.00    -0.271 NA
HETATM   19  C   UNL     1      27.428  48.899  49.154  1.00  0.00     0.116 A 
HETATM   20  C   UNL     1      26.747  47.876  49.790  1.00  0.00     0.021 A 
HETATM   21  C   UNL     1      25.356  47.852  49.702  1.00  0.00     0.032 A 
ENDBRANCH  13  16
ENDBRANCH  10  12
BRANCH   9  22
HETATM   22  C   UNL     1      20.779  46.900  47.508  1.00  0.00    -0.011 A 
HETATM   23  C   UNL     1      20.428  46.115  48.606  1.00  0.00     0.125 A 
HETATM   24  N   UNL     1      20.869  44.854  48.809  1.00  0.00    -0.272 NA
HETATM   25  C   UNL     1      21.685  44.331  47.870  1.00  0.00     0.116 A 
HETATM   26  C   UNL     1      22.101  45.024  46.746  1.00  0.00     0.020 A 
HETATM   27  C   UNL     1      21.646  46.328  46.569  1.00  0.00     0.012 A 
ENDBRANCH   9  22
TORSDOF 3
ENDMDL
MODEL 10
REMARK VINA RESULT:      -7.1      8.775     12.436
REMARK  3 active torsions:
REMARK  status: ('A' for Active; 'I' for Inactive)
REMARK    1  A    between atoms: C_9  and  C_10 
REMARK    2  A    between atoms: C_16  and  C_17 
REMARK       I    between atoms: C_17  and  N_18 
REMARK    3  A    between atoms: N_18  and  C_19 
ROOT
HETATM    1  C   UNL     1      20.027  45.919  47.707  1.00  0.00     0.070 C 
HETATM    2  C   UNL     1      20.472  47.323  48.036  1.00  0.00     0.037 C 
HETATM    3  N   UNL     1      21.573  47.422  48.882  1.00  0.00    -0.191 N 
HETATM    4  C   UNL     1      22.251  48.573  49.069  1.00  0.00     0.735 A 
HETATM    5  N   UNL     1      21.754  49.732  48.542  1.00  0.00    -0.092 N 
HETATM    6  N   UNL     1      22.597  50.749  48.776  1.00  0.00     0.012 NA
HETATM    7  N   UNL     1      23.585  50.205  49.478  1.00  0.00     0.033 NA
HETATM    8  N   UNL     1      23.383  48.850  49.667  1.00  0.00     0.030 NA
HETATM    9  C   UNL     1      20.499  49.836  47.803  1.00  0.00     0.199 C 
HETATM   10  C   UNL     1      19.925  48.451  47.514  1.00  0.00     0.062 C 
HETATM   11  H   UNL     1      22.011  46.553  49.185  1.00  0.00     0.184 HD
ENDROOT
BRANCH  10  12
HETATM   12  C   UNL     1      18.815  48.455  46.526  1.00  0.00     0.256 C 
HETATM   13  N   UNL     1      17.599  48.081  47.050  1.00  0.00    -0.322 N 
HETATM   14  H   UNL     1      17.555  47.889  48.044  1.00  0.00     0.169 HD
HETATM   15  O   UNL     1      19.045  48.832  45.385  1.00  0.00    -0.267 OA
BRANCH  13  16
HETATM   16  C   UNL     1      16.393  47.926  46.334  1.00  0.00     0.052 A 
HETATM   17  C   UNL     1      16.192  47.035  45.282  1.00  0.00     0.145 A 
HETATM   18  N   UNL     1      15.014  46.886  44.624  1.00  0.00    -0.271 NA
HETATM   19  C   UNL     1      13.984  47.656  45.030  1.00  0.00     0.116 A 
HETATM   20  C   UNL     1      14.079  48.572  46.064  1.00  0.00     0.021 A 
HETATM   21  C   UNL     1      15.301  48.707  46.720  1.00  0.00     0.032 A 
ENDBRANCH  13  16
ENDBRANCH  10  12
BRANCH   9  22
HETATM   22  C   UNL     1      19.503  50.710  48.548  1.00  0.00    -0.011 A 
HETATM   23  C   UNL     1      18.826  50.269  49.685  1.00  0.00     0.125 A 
HETATM   24  N   UNL     1      17.895  50.995  50.344  1.00  0.00    -0.272 NA
HETATM   25  C   UNL     1      17.631  52.229  49.867  1.00  0.00     0.116 A 
HETATM   26  C   UNL     1      18.238  52.762  48.743  1.00  0.00     0.020 A 
HETATM   27  C   UNL     1      19.181  51.987  48.073  1.00  0.00     0.012 A 
ENDBRANCH   9  22
TORSDOF 3
ENDMDL
