MODEL 1
REMARK VINA RESULT:      -9.5      0.000      0.000
REMARK  5 active torsions:
REMARK  status: ('A' for Active; 'I' for Inactive)
REMARK    1  A    between atoms: C_6  and  C_7 
REMARK    2  A    between atoms: C_7  and  N_8 
REMARK       I    between atoms: N_8  and  C_9 
REMARK       I    between atoms: C_9  and  N_10 
REMARK    3  A    between atoms: N_10  and  C_11 
REMARK    4  A    between atoms: C_13  and  C_14 
REMARK       I    between atoms: C_14  and  N_15 
REMARK    5  A    between atoms: N_15  and  C_16 
ROOT
HETATM    1  C   UNL     1      20.923  49.771  49.368  1.00  0.00     0.036 A 
HETATM    2  C   UNL     1      19.885  48.858  49.169  1.00  0.00     0.052 A 
HETATM    3  C   UNL     1      18.559  49.301  49.074  1.00  0.00     0.046 A 
HETATM    4  C   UNL     1      17.499  48.358  48.873  1.00  0.00     0.099 C 
HETATM    5  N   UNL     1      16.625  47.611  48.710  1.00  0.00    -0.191 NA
HETATM    6  C   UNL     1      18.267  50.665  49.178  1.00  0.00     0.023 A 
HETATM    7  C   UNL     1      19.297  51.582  49.372  1.00  0.00     0.004 A 
HETATM    8  C   UNL     1      20.617  51.136  49.468  1.00  0.00     0.029 A 
ENDROOT
BRANCH   1   9
HETATM    9  N   UNL     1      22.283  49.412  49.477  1.00  0.00    -0.323 N 
HETATM   10  C   UNL     1      23.260  49.502  48.500  1.00  0.00     0.256 C 
HETATM   11  O   UNL     1      23.099  49.867  47.342  1.00  0.00    -0.267 OA
HETATM   12  H   UNL     1      22.554  49.003  50.363  1.00  0.00     0.169 HD
BRANCH  10  13
HETATM   13  C   UNL     1      24.621  49.054  48.918  1.00  0.00     0.034 A 
HETATM   14  C   UNL     1      24.807  47.979  49.799  1.00  0.00     0.046 A 
HETATM   15  C   UNL     1      26.094  47.547  50.125  1.00  0.00     0.037 A 
HETATM   16  C   UNL     1      27.197  48.238  49.610  1.00  0.00     0.029 A 
HETATM   17  C   UNL     1      27.019  49.334  48.763  1.00  0.00     0.003 A 
HETATM   18  C   UNL     1      25.732  49.739  48.414  1.00  0.00     0.017 A 
BRANCH  15  19
HETATM   19  N   UNL     1      26.357  46.440  50.958  1.00  0.00    -0.309 N 
HETATM   20  C   UNL     1      26.859  45.223  50.589  1.00  0.00     0.321 C 
HETATM   21  N   UNL     1      26.968  44.295  51.582  1.00  0.00    -0.337 N 
HETATM   22  O   UNL     1      27.219  44.896  49.460  1.00  0.00    -0.247 OA
HETATM   23  H   UNL     1      27.317  43.409  51.241  1.00  0.00     0.164 HD
HETATM   24  H   UNL     1      26.369  46.638  51.954  1.00  0.00     0.170 HD
BRANCH  21  25
HETATM   25  C   UNL     1      26.425  44.339  52.924  1.00  0.00     0.186 C 
BRANCH  25  26
HETATM   26  C   UNL     1      27.401  44.988  53.839  1.00  0.00     0.083 A 
HETATM   27  C   UNL     1      28.558  44.486  54.399  1.00  0.00     0.076 A 
HETATM   28  C   UNL     1      29.264  43.195  54.344  1.00  0.00     0.079 C 
HETATM   29  O   UNL     1      29.124  45.480  55.149  1.00  0.00    -0.307 OA
HETATM   30  C   UNL     1      28.281  46.536  54.991  1.00  0.00     0.258 A 
HETATM   31  N   UNL     1      27.240  46.309  54.220  1.00  0.00    -0.237 NA
ENDBRANCH  25  26
ENDBRANCH  21  25
ENDBRANCH  15  19
ENDBRANCH  10  13
ENDBRANCH   1   9
TORSDOF 5
ENDMDL
MODEL 2
REMARK VINA RESULT:      -9.3      2.495     10.100
REMARK  5 active torsions:
REMARK  status: ('A' for Active; 'I' for Inactive)
REMARK    1  A    between atoms: C_6  and  C_7 
REMARK    2  A    between atoms: C_7  and  N_8 
REMARK       I    between atoms: N_8  and  C_9 
REMARK       I    between atoms: C_9  and  N_10 
REMARK    3  A    between atoms: N_10  and  C_11 
REMARK    4  A    between atoms: C_13  and  C_14 
REMARK       I    between atoms: C_14  and  N_15 
REMARK    5  A    between atoms: N_15  and  C_16 
ROOT
HETATM    1  C   UNL     1      28.672  45.417  55.144  1.00  0.00     0.036 A 
HETATM    2  C   UNL     1      29.744  44.588  55.482  1.00  0.00     0.052 A 
HETATM    3  C   UNL     1      30.332  44.672  56.751  1.00  0.00     0.046 A 
HETATM    4  C   UNL     1      31.434  43.821  57.091  1.00  0.00     0.099 C 
HETATM    5  N   UNL     1      32.328  43.141  57.386  1.00  0.00    -0.191 NA
HETATM    6  C   UNL     1      29.846  45.588  57.690  1.00  0.00     0.023 A 
HETATM    7  C   UNL     1      28.774  46.415  57.361  1.00  0.00     0.004 A 
HETATM    8  C   UNL     1      28.192  46.329  56.094  1.00  0.00     0.029 A 
ENDROOT
BRANCH   1   9
HETATM    9  N   UNL     1      28.023  45.401  53.891  1.00  0.00    -0.323 N 
HETATM   10  C   UNL     1      26.679  45.188  53.640  1.00  0.00     0.256 C 
HETATM   11  O   UNL     1      25.816  44.926  54.470  1.00  0.00    -0.267 OA
HETATM   12  H   UNL     1      28.630  45.515  53.087  1.00  0.00     0.169 HD
BRANCH  10  13
HETATM   13  C   UNL     1      26.283  45.242  52.201  1.00  0.00     0.034 A 
HETATM   14  C   UNL     1      25.223  46.045  51.757  1.00  0.00     0.046 A 
HETATM   15  C   UNL     1      24.915  46.118  50.396  1.00  0.00     0.037 A 
HETATM   16  C   UNL     1      25.638  45.335  49.489  1.00  0.00     0.029 A 
HETATM   17  C   UNL     1      26.670  44.503  49.930  1.00  0.00     0.003 A 
HETATM   18  C   UNL     1      26.995  44.460  51.285  1.00  0.00     0.017 A 
BRANCH  15  19
HETATM   19  N   UNL     1      23.901  46.945  49.871  1.00  0.00    -0.309 N 
HETATM   20  C   UNL     1      24.010  48.253  49.488  1.00  0.00     0.321 C 
HETATM   21  N   UNL     1      22.861  48.850  49.062  1.00  0.00    -0.337 N 
HETATM   22  O   UNL     1      25.037  48.929  49.490  1.00  0.00    -0.247 OA
HETATM   23  H   UNL     1      23.001  49.823  48.822  1.00  0.00     0.164 HD
HETATM   24  H   UNL     1      23.066  46.462  49.554  1.00  0.00     0.170 HD
BRANCH  21  25
HETATM   25  C   UNL     1      21.500  48.366  49.163  1.00  0.00     0.186 C 
BRANCH  25  26
HETATM   26  C   UNL     1      20.578  49.508  49.403  1.00  0.00     0.083 A 
HETATM   27  C   UNL     1      19.427  49.572  50.162  1.00  0.00     0.076 A 
HETATM   28  C   UNL     1      18.673  48.614  50.988  1.00  0.00     0.079 C 
HETATM   29  O   UNL     1      18.950  50.851  50.089  1.00  0.00    -0.307 OA
HETATM   30  C   UNL     1      19.848  51.496  49.296  1.00  0.00     0.258 A 
HETATM   31  N   UNL     1      20.842  50.754  48.860  1.00  0.00    -0.237 NA
ENDBRANCH  25  26
ENDBRANCH  21  25
ENDBRANCH  15  19
ENDBRANCH  10  13
ENDBRANCH   1   9
TORSDOF 5
ENDMDL
MODEL 3
REMARK VINA RESULT:      -9.2      1.696      2.055
REMARK  5 active torsions:
REMARK  status: ('A' for Active; 'I' for Inactive)
REMARK    1  A    between atoms: C_6  and  C_7 
REMARK    2  A    between atoms: C_7  and  N_8 
REMARK       I    between atoms: N_8  and  C_9 
REMARK       I    between atoms: C_9  and  N_10 
REMARK    3  A    between atoms: N_10  and  C_11 
REMARK    4  A    between atoms: C_13  and  C_14 
REMARK       I    between atoms: C_14  and  N_15 
REMARK    5  A    between atoms: N_15  and  C_16 
ROOT
HETATM    1  C   UNL     1      20.781  49.148  48.796  1.00  0.00     0.036 A 
HETATM    2  C   UNL     1      20.019  50.157  49.388  1.00  0.00     0.052 A 
HETATM    3  C   UNL     1      18.655  50.282  49.091  1.00  0.00     0.046 A 
HETATM    4  C   UNL     1      17.879  51.322  49.700  1.00  0.00     0.099 C 
HETATM    5  N   UNL     1      17.232  52.157  50.182  1.00  0.00    -0.191 NA
HETATM    6  C   UNL     1      18.048  49.393  48.198  1.00  0.00     0.023 A 
HETATM    7  C   UNL     1      18.801  48.382  47.606  1.00  0.00     0.004 A 
HETATM    8  C   UNL     1      20.160  48.262  47.904  1.00  0.00     0.029 A 
ENDROOT
BRANCH   1   9
HETATM    9  N   UNL     1      22.158  48.952  49.036  1.00  0.00    -0.323 N 
HETATM   10  C   UNL     1      23.221  49.453  48.305  1.00  0.00     0.256 C 
HETATM   11  O   UNL     1      23.150  50.122  47.281  1.00  0.00    -0.267 OA
HETATM   12  H   UNL     1      22.379  48.335  49.808  1.00  0.00     0.169 HD
BRANCH  10  13
HETATM   13  C   UNL     1      24.575  49.080  48.813  1.00  0.00     0.034 A 
HETATM   14  C   UNL     1      24.746  48.121  49.822  1.00  0.00     0.046 A 
HETATM   15  C   UNL     1      26.028  47.752  50.234  1.00  0.00     0.037 A 
HETATM   16  C   UNL     1      27.138  48.394  49.673  1.00  0.00     0.029 A 
HETATM   17  C   UNL     1      26.973  49.378  48.696  1.00  0.00     0.003 A 
HETATM   18  C   UNL     1      25.692  49.717  48.263  1.00  0.00     0.017 A 
BRANCH  15  19
HETATM   19  N   UNL     1      26.279  46.757  51.201  1.00  0.00    -0.309 N 
HETATM   20  C   UNL     1      25.984  46.803  52.536  1.00  0.00     0.321 C 
HETATM   21  N   UNL     1      26.382  45.727  53.274  1.00  0.00    -0.337 N 
HETATM   22  O   UNL     1      25.398  47.711  53.122  1.00  0.00    -0.247 OA
HETATM   23  H   UNL     1      26.162  45.834  54.255  1.00  0.00     0.164 HD
HETATM   24  H   UNL     1      26.510  45.839  50.833  1.00  0.00     0.170 HD
BRANCH  21  25
HETATM   25  C   UNL     1      27.264  44.645  52.891  1.00  0.00     0.186 C 
BRANCH  25  26
HETATM   26  C   UNL     1      28.356  44.510  53.890  1.00  0.00     0.083 A 
HETATM   27  C   UNL     1      29.441  43.657  53.906  1.00  0.00     0.076 A 
HETATM   28  C   UNL     1      29.941  42.595  53.016  1.00  0.00     0.079 C 
HETATM   29  O   UNL     1      30.176  43.936  55.025  1.00  0.00    -0.307 OA
HETATM   30  C   UNL     1      29.499  44.954  55.621  1.00  0.00     0.258 A 
HETATM   31  N   UNL     1      28.411  45.344  54.993  1.00  0.00    -0.237 NA
ENDBRANCH  25  26
ENDBRANCH  21  25
ENDBRANCH  15  19
ENDBRANCH  10  13
ENDBRANCH   1   9
TORSDOF 5
ENDMDL
MODEL 4
REMARK VINA RESULT:      -8.9      2.064     10.130
REMARK  5 active torsions:
REMARK  status: ('A' for Active; 'I' for Inactive)
REMARK    1  A    between atoms: C_6  and  C_7 
REMARK    2  A    between atoms: C_7  and  N_8 
REMARK       I    between atoms: N_8  and  C_9 
REMARK       I    between atoms: C_9  and  N_10 
REMARK    3  A    between atoms: N_10  and  C_11 
REMARK    4  A    between atoms: C_13  and  C_14 
REMARK       I    between atoms: C_14  and  N_15 
REMARK    5  A    between atoms: N_15  and  C_16 
ROOT
HETATM    1  C   UNL     1      28.669  44.252  53.647  1.00  0.00     0.036 A 
HETATM    2  C   UNL     1      28.960  44.985  54.800  1.00  0.00     0.052 A 
HETATM    3  C   UNL     1      29.960  44.551  55.682  1.00  0.00     0.046 A 
HETATM    4  C   UNL     1      30.251  45.305  56.865  1.00  0.00     0.099 C 
HETATM    5  N   UNL     1      30.503  45.901  57.829  1.00  0.00    -0.191 NA
HETATM    6  C   UNL     1      30.675  43.380  55.410  1.00  0.00     0.023 A 
HETATM    7  C   UNL     1      30.393  42.647  54.259  1.00  0.00     0.004 A 
HETATM    8  C   UNL     1      29.395  43.082  53.385  1.00  0.00     0.029 A 
ENDROOT
BRANCH   1   9
HETATM    9  N   UNL     1      27.679  44.613  52.709  1.00  0.00    -0.323 N 
HETATM   10  C   UNL     1      26.700  45.582  52.847  1.00  0.00     0.256 C 
HETATM   11  O   UNL     1      26.490  46.269  53.839  1.00  0.00    -0.267 OA
HETATM   12  H   UNL     1      27.666  44.063  51.859  1.00  0.00     0.169 HD
BRANCH  10  13
HETATM   13  C   UNL     1      25.796  45.746  51.670  1.00  0.00     0.034 A 
HETATM   14  C   UNL     1      25.080  46.931  51.448  1.00  0.00     0.046 A 
HETATM   15  C   UNL     1      24.289  47.074  50.306  1.00  0.00     0.037 A 
HETATM   16  C   UNL     1      24.170  45.999  49.418  1.00  0.00     0.029 A 
HETATM   17  C   UNL     1      24.849  44.802  49.653  1.00  0.00     0.003 A 
HETATM   18  C   UNL     1      25.665  44.677  50.776  1.00  0.00     0.017 A 
BRANCH  15  19
HETATM   19  N   UNL     1      23.587  48.255  49.989  1.00  0.00    -0.309 N 
HETATM   20  C   UNL     1      23.982  49.257  49.146  1.00  0.00     0.321 C 
HETATM   21  N   UNL     1      23.142  50.326  49.052  1.00  0.00    -0.337 N 
HETATM   22  O   UNL     1      25.011  49.278  48.473  1.00  0.00    -0.247 OA
HETATM   23  H   UNL     1      23.504  51.044  48.438  1.00  0.00     0.164 HD
HETATM   24  H   UNL     1      22.605  48.262  50.249  1.00  0.00     0.170 HD
BRANCH  21  25
HETATM   25  C   UNL     1      22.001  50.655  49.880  1.00  0.00     0.186 C 
BRANCH  25  26
HETATM   26  C   UNL     1      20.760  50.121  49.260  1.00  0.00     0.083 A 
HETATM   27  C   UNL     1      19.703  50.791  48.677  1.00  0.00     0.076 A 
HETATM   28  C   UNL     1      19.372  52.207  48.444  1.00  0.00     0.079 C 
HETATM   29  O   UNL     1      18.814  49.856  48.226  1.00  0.00    -0.307 OA
HETATM   30  C   UNL     1      19.389  48.667  48.552  1.00  0.00     0.258 A 
HETATM   31  N   UNL     1      20.549  48.757  49.164  1.00  0.00    -0.237 NA
ENDBRANCH  25  26
ENDBRANCH  21  25
ENDBRANCH  15  19
ENDBRANCH  10  13
ENDBRANCH   1   9
TORSDOF 5
ENDMDL
MODEL 5
REMARK VINA RESULT:      -8.9      2.283      9.575
REMARK  5 active torsions:
REMARK  status: ('A' for Active; 'I' for Inactive)
REMARK    1  A    between atoms: C_6  and  C_7 
REMARK    2  A    between atoms: C_7  and  N_8 
REMARK       I    between atoms: N_8  and  C_9 
REMARK       I    between atoms: C_9  and  N_10 
REMARK    3  A    between atoms: N_10  and  C_11 
REMARK    4  A    between atoms: C_13  and  C_14 
REMARK       I    between atoms: C_14  and  N_15 
REMARK    5  A    between atoms: N_15  and  C_16 
ROOT
HETATM    1  C   UNL     1      27.610  43.985  51.936  1.00  0.00     0.036 A 
HETATM    2  C   UNL     1      28.504  44.121  53.000  1.00  0.00     0.052 A 
HETATM    3  C   UNL     1      28.987  42.988  53.669  1.00  0.00     0.046 A 
HETATM    4  C   UNL     1      29.902  43.134  54.763  1.00  0.00     0.099 C 
HETATM    5  N   UNL     1      30.643  43.231  55.651  1.00  0.00    -0.191 NA
HETATM    6  C   UNL     1      28.577  41.711  53.272  1.00  0.00     0.023 A 
HETATM    7  C   UNL     1      27.689  41.567  52.209  1.00  0.00     0.004 A 
HETATM    8  C   UNL     1      27.209  42.699  51.546  1.00  0.00     0.029 A 
ENDROOT
BRANCH   1   9
HETATM    9  N   UNL     1      27.074  45.069  51.209  1.00  0.00    -0.323 N 
HETATM   10  C   UNL     1      26.034  45.902  51.584  1.00  0.00     0.256 C 
HETATM   11  O   UNL     1      25.358  45.811  52.602  1.00  0.00    -0.267 OA
HETATM   12  H   UNL     1      27.475  45.216  50.291  1.00  0.00     0.169 HD
BRANCH  10  13
HETATM   13  C   UNL     1      25.695  46.976  50.604  1.00  0.00     0.034 A 
HETATM   14  C   UNL     1      24.381  47.183  50.160  1.00  0.00     0.046 A 
HETATM   15  C   UNL     1      24.087  48.234  49.288  1.00  0.00     0.037 A 
HETATM   16  C   UNL     1      25.128  49.040  48.815  1.00  0.00     0.029 A 
HETATM   17  C   UNL     1      26.445  48.815  49.222  1.00  0.00     0.003 A 
HETATM   18  C   UNL     1      26.727  47.787  50.119  1.00  0.00     0.017 A 
BRANCH  15  19
HETATM   19  N   UNL     1      22.783  48.536  48.845  1.00  0.00    -0.309 N 
HETATM   20  C   UNL     1      22.047  47.864  47.908  1.00  0.00     0.321 C 
HETATM   21  N   UNL     1      20.826  48.393  47.614  1.00  0.00    -0.337 N 
HETATM   22  O   UNL     1      22.381  46.838  47.319  1.00  0.00    -0.247 OA
HETATM   23  H   UNL     1      20.345  47.870  46.895  1.00  0.00     0.164 HD
HETATM   24  H   UNL     1      22.265  49.188  49.426  1.00  0.00     0.170 HD
BRANCH  21  25
HETATM   25  C   UNL     1      20.286  49.685  47.987  1.00  0.00     0.186 C 
BRANCH  25  26
HETATM   26  C   UNL     1      19.529  49.563  49.260  1.00  0.00     0.083 A 
HETATM   27  C   UNL     1      18.864  50.527  49.990  1.00  0.00     0.076 A 
HETATM   28  C   UNL     1      18.643  51.975  49.839  1.00  0.00     0.079 C 
HETATM   29  O   UNL     1      18.299  49.915  51.074  1.00  0.00    -0.307 OA
HETATM   30  C   UNL     1      18.644  48.607  50.934  1.00  0.00     0.258 A 
HETATM   31  N   UNL     1      19.371  48.332  49.873  1.00  0.00    -0.237 NA
ENDBRANCH  25  26
ENDBRANCH  21  25
ENDBRANCH  15  19
ENDBRANCH  10  13
ENDBRANCH   1   9
TORSDOF 5
ENDMDL
MODEL 6
REMARK VINA RESULT:      -8.9      1.773      2.568
REMARK  5 active torsions:
REMARK  status: ('A' for Active; 'I' for Inactive)
REMARK    1  A    between atoms: C_6  and  C_7 
REMARK    2  A    between atoms: C_7  and  N_8 
REMARK       I    between atoms: N_8  and  C_9 
REMARK       I    between atoms: C_9  and  N_10 
REMARK    3  A    between atoms: N_10  and  C_11 
REMARK    4  A    between atoms: C_13  and  C_14 
REMARK       I    between atoms: C_14  and  N_15 
REMARK    5  A    between atoms: N_15  and  C_16 
ROOT
HETATM    1  C   UNL     1      20.771  49.778  49.596  1.00  0.00     0.036 A 
HETATM    2  C   UNL     1      19.757  48.867  49.293  1.00  0.00     0.052 A 
HETATM    3  C   UNL     1      18.416  49.275  49.286  1.00  0.00     0.046 A 
HETATM    4  C   UNL     1      17.380  48.334  48.977  1.00  0.00     0.099 C 
HETATM    5  N   UNL     1      16.525  47.588  48.731  1.00  0.00    -0.191 NA
HETATM    6  C   UNL     1      18.086  50.602  49.581  1.00  0.00     0.023 A 
HETATM    7  C   UNL     1      19.092  51.517  49.880  1.00  0.00     0.004 A 
HETATM    8  C   UNL     1      20.426  51.105  49.888  1.00  0.00     0.029 A 
ENDROOT
BRANCH   1   9
HETATM    9  N   UNL     1      22.143  49.453  49.629  1.00  0.00    -0.323 N 
HETATM   10  C   UNL     1      23.013  49.356  48.556  1.00  0.00     0.256 C 
HETATM   11  O   UNL     1      22.726  49.490  47.372  1.00  0.00    -0.267 OA
HETATM   12  H   UNL     1      22.513  49.223  50.544  1.00  0.00     0.169 HD
BRANCH  10  13
HETATM   13  C   UNL     1      24.420  49.004  48.907  1.00  0.00     0.034 A 
HETATM   14  C   UNL     1      24.725  47.899  49.716  1.00  0.00     0.046 A 
HETATM   15  C   UNL     1      26.054  47.561  49.977  1.00  0.00     0.037 A 
HETATM   16  C   UNL     1      27.077  48.372  49.474  1.00  0.00     0.029 A 
HETATM   17  C   UNL     1      26.780  49.496  48.700  1.00  0.00     0.003 A 
HETATM   18  C   UNL     1      25.453  49.809  48.413  1.00  0.00     0.017 A 
BRANCH  15  19
HETATM   19  N   UNL     1      26.437  46.435  50.734  1.00  0.00    -0.309 N 
HETATM   20  C   UNL     1      26.160  46.185  52.050  1.00  0.00     0.321 C 
HETATM   21  N   UNL     1      26.694  45.042  52.568  1.00  0.00    -0.337 N 
HETATM   22  O   UNL     1      25.480  46.885  52.797  1.00  0.00    -0.247 OA
HETATM   23  H   UNL     1      26.479  44.930  53.549  1.00  0.00     0.164 HD
HETATM   24  H   UNL     1      26.769  45.640  50.196  1.00  0.00     0.170 HD
BRANCH  21  25
HETATM   25  C   UNL     1      27.693  44.168  51.988  1.00  0.00     0.186 C 
BRANCH  25  26
HETATM   26  C   UNL     1      27.046  42.924  51.495  1.00  0.00     0.083 A 
HETATM   27  C   UNL     1      27.406  41.605  51.683  1.00  0.00     0.076 A 
HETATM   28  C   UNL     1      28.501  40.917  52.388  1.00  0.00     0.079 C 
HETATM   29  O   UNL     1      26.476  40.825  51.053  1.00  0.00    -0.307 OA
HETATM   30  C   UNL     1      25.595  41.718  50.527  1.00  0.00     0.258 A 
HETATM   31  N   UNL     1      25.875  42.981  50.759  1.00  0.00    -0.237 NA
ENDBRANCH  25  26
ENDBRANCH  21  25
ENDBRANCH  15  19
ENDBRANCH  10  13
ENDBRANCH   1   9
TORSDOF 5
ENDMDL
MODEL 7
REMARK VINA RESULT:      -8.6      2.245      3.386
REMARK  5 active torsions:
REMARK  status: ('A' for Active; 'I' for Inactive)
REMARK    1  A    between atoms: C_6  and  C_7 
REMARK    2  A    between atoms: C_7  and  N_8 
REMARK       I    between atoms: N_8  and  C_9 
REMARK       I    between atoms: C_9  and  N_10 
REMARK    3  A    between atoms: N_10  and  C_11 
REMARK    4  A    between atoms: C_13  and  C_14 
REMARK       I    between atoms: C_14  and  N_15 
REMARK    5  A    between atoms: N_15  and  C_16 
ROOT
HETATM    1  C   UNL     1      22.420  48.878  49.253  1.00  0.00     0.036 A 
HETATM    2  C   UNL     1      21.036  49.028  49.370  1.00  0.00     0.052 A 
HETATM    3  C   UNL     1      20.418  50.226  48.987  1.00  0.00     0.046 A 
HETATM    4  C   UNL     1      18.998  50.375  49.113  1.00  0.00     0.099 C 
HETATM    5  N   UNL     1      17.850  50.516  49.207  1.00  0.00    -0.191 NA
HETATM    6  C   UNL     1      21.186  51.281  48.483  1.00  0.00     0.023 A 
HETATM    7  C   UNL     1      22.566  51.137  48.359  1.00  0.00     0.004 A 
HETATM    8  C   UNL     1      23.178  49.942  48.743  1.00  0.00     0.029 A 
ENDROOT
BRANCH   1   9
HETATM    9  N   UNL     1      23.123  47.710  49.615  1.00  0.00    -0.323 N 
HETATM   10  C   UNL     1      23.131  46.492  48.958  1.00  0.00     0.256 C 
HETATM   11  O   UNL     1      22.481  46.198  47.961  1.00  0.00    -0.267 OA
HETATM   12  H   UNL     1      23.644  47.769  50.482  1.00  0.00     0.169 HD
BRANCH  10  13
HETATM   13  C   UNL     1      23.987  45.438  49.579  1.00  0.00     0.034 A 
HETATM   14  C   UNL     1      24.772  45.698  50.712  1.00  0.00     0.046 A 
HETATM   15  C   UNL     1      25.516  44.676  51.305  1.00  0.00     0.037 A 
HETATM   16  C   UNL     1      25.517  43.404  50.720  1.00  0.00     0.029 A 
HETATM   17  C   UNL     1      24.768  43.149  49.569  1.00  0.00     0.003 A 
HETATM   18  C   UNL     1      24.000  44.164  49.002  1.00  0.00     0.017 A 
BRANCH  15  19
HETATM   19  N   UNL     1      26.283  44.849  52.475  1.00  0.00    -0.309 N 
HETATM   20  C   UNL     1      25.890  44.632  53.766  1.00  0.00     0.321 C 
HETATM   21  N   UNL     1      26.807  44.929  54.730  1.00  0.00    -0.337 N 
HETATM   22  O   UNL     1      24.800  44.194  54.132  1.00  0.00    -0.247 OA
HETATM   23  H   UNL     1      26.447  44.776  55.662  1.00  0.00     0.164 HD
HETATM   24  H   UNL     1      27.284  44.945  52.330  1.00  0.00     0.170 HD
BRANCH  21  25
HETATM   25  C   UNL     1      28.057  45.649  54.597  1.00  0.00     0.186 C 
BRANCH  25  26
HETATM   26  C   UNL     1      29.176  44.807  55.093  1.00  0.00     0.083 A 
HETATM   27  C   UNL     1      29.651  43.599  54.622  1.00  0.00     0.076 A 
HETATM   28  C   UNL     1      29.279  42.695  53.521  1.00  0.00     0.079 C 
HETATM   29  O   UNL     1      30.716  43.238  55.399  1.00  0.00    -0.307 OA
HETATM   30  C   UNL     1      30.835  44.256  56.293  1.00  0.00     0.258 A 
HETATM   31  N   UNL     1      29.953  45.222  56.161  1.00  0.00    -0.237 NA
ENDBRANCH  25  26
ENDBRANCH  21  25
ENDBRANCH  15  19
ENDBRANCH  10  13
ENDBRANCH   1   9
TORSDOF 5
ENDMDL
MODEL 8
REMARK VINA RESULT:      -8.4      2.792      9.747
REMARK  5 active torsions:
REMARK  status: ('A' for Active; 'I' for Inactive)
REMARK    1  A    between atoms: C_6  and  C_7 
REMARK    2  A    between atoms: C_7  and  N_8 
REMARK       I    between atoms: N_8  and  C_9 
REMARK       I    between atoms: C_9  and  N_10 
REMARK    3  A    between atoms: N_10  and  C_11 
REMARK    4  A    between atoms: C_13  and  C_14 
REMARK       I    between atoms: C_14  and  N_15 
REMARK    5  A    between atoms: N_15  and  C_16 
ROOT
HETATM    1  C   UNL     1      28.177  43.762  52.793  1.00  0.00     0.036 A 
HETATM    2  C   UNL     1      28.193  44.613  53.899  1.00  0.00     0.052 A 
HETATM    3  C   UNL     1      29.213  44.515  54.855  1.00  0.00     0.046 A 
HETATM    4  C   UNL     1      29.221  45.389  55.991  1.00  0.00     0.099 C 
HETATM    5  N   UNL     1      29.247  46.087  56.918  1.00  0.00    -0.191 NA
HETATM    6  C   UNL     1      30.225  43.561  54.705  1.00  0.00     0.023 A 
HETATM    7  C   UNL     1      30.218  42.711  53.601  1.00  0.00     0.004 A 
HETATM    8  C   UNL     1      29.198  42.812  52.652  1.00  0.00     0.029 A 
ENDROOT
BRANCH   1   9
HETATM    9  N   UNL     1      27.189  43.791  51.786  1.00  0.00    -0.323 N 
HETATM   10  C   UNL     1      25.817  43.861  51.953  1.00  0.00     0.256 C 
HETATM   11  O   UNL     1      25.212  43.862  53.018  1.00  0.00    -0.267 OA
HETATM   12  H   UNL     1      27.534  43.705  50.837  1.00  0.00     0.169 HD
BRANCH  10  13
HETATM   13  C   UNL     1      25.022  43.888  50.689  1.00  0.00     0.034 A 
HETATM   14  C   UNL     1      24.056  44.874  50.445  1.00  0.00     0.046 A 
HETATM   15  C   UNL     1      23.371  44.905  49.228  1.00  0.00     0.037 A 
HETATM   16  C   UNL     1      23.617  43.906  48.280  1.00  0.00     0.029 A 
HETATM   17  C   UNL     1      24.550  42.898  48.532  1.00  0.00     0.003 A 
HETATM   18  C   UNL     1      25.255  42.891  49.734  1.00  0.00     0.017 A 
BRANCH  15  19
HETATM   19  N   UNL     1      22.428  45.898  48.891  1.00  0.00    -0.309 N 
HETATM   20  C   UNL     1      21.084  45.735  48.696  1.00  0.00     0.321 C 
HETATM   21  N   UNL     1      20.394  46.850  48.321  1.00  0.00    -0.337 N 
HETATM   22  O   UNL     1      20.450  44.691  48.832  1.00  0.00    -0.247 OA
HETATM   23  H   UNL     1      19.414  46.659  48.164  1.00  0.00     0.164 HD
HETATM   24  H   UNL     1      22.742  46.856  49.008  1.00  0.00     0.170 HD
BRANCH  21  25
HETATM   25  C   UNL     1      20.913  48.129  47.884  1.00  0.00     0.186 C 
BRANCH  25  26
HETATM   26  C   UNL     1      20.638  49.162  48.918  1.00  0.00     0.083 A 
HETATM   27  C   UNL     1      21.345  50.302  49.240  1.00  0.00     0.076 A 
HETATM   28  C   UNL     1      22.580  50.933  48.744  1.00  0.00     0.079 C 
HETATM   29  O   UNL     1      20.672  50.941  50.244  1.00  0.00    -0.307 OA
HETATM   30  C   UNL     1      19.585  50.155  50.467  1.00  0.00     0.258 A 
HETATM   31  N   UNL     1      19.504  49.085  49.708  1.00  0.00    -0.237 NA
ENDBRANCH  25  26
ENDBRANCH  21  25
ENDBRANCH  15  19
ENDBRANCH  10  13
ENDBRANCH   1   9
TORSDOF 5
ENDMDL
MODEL 9
REMARK VINA RESULT:      -8.3      2.249      3.064
REMARK  5 active torsions:
REMARK  status: ('A' for Active; 'I' for Inactive)
REMARK    1  A    between atoms: C_6  and  C_7 
REMARK    2  A    between atoms: C_7  and  N_8 
REMARK       I    between atoms: N_8  and  C_9 
REMARK       I    between atoms: C_9  and  N_10 
REMARK    3  A    between atoms: N_10  and  C_11 
REMARK    4  A    between atoms: C_13  and  C_14 
REMARK       I    between atoms: C_14  and  N_15 
REMARK    5  A    between atoms: N_15  and  C_16 
ROOT
HETATM    1  C   UNL     1      20.885  49.014  49.052  1.00  0.00     0.036 A 
HETATM    2  C   UNL     1      19.501  49.194  48.996  1.00  0.00     0.052 A 
HETATM    3  C   UNL     1      18.960  50.471  48.794  1.00  0.00     0.046 A 
HETATM    4  C   UNL     1      17.539  50.650  48.741  1.00  0.00     0.099 C 
HETATM    5  N   UNL     1      16.391  50.816  48.696  1.00  0.00    -0.191 NA
HETATM    6  C   UNL     1      19.806  51.575  48.644  1.00  0.00     0.023 A 
HETATM    7  C   UNL     1      21.187  51.402  48.694  1.00  0.00     0.004 A 
HETATM    8  C   UNL     1      21.722  50.128  48.898  1.00  0.00     0.029 A 
ENDROOT
BRANCH   1   9
HETATM    9  N   UNL     1      21.513  47.767  49.254  1.00  0.00    -0.323 N 
HETATM   10  C   UNL     1      22.093  46.950  48.299  1.00  0.00     0.256 C 
HETATM   11  O   UNL     1      22.118  47.148  47.089  1.00  0.00    -0.267 OA
HETATM   12  H   UNL     1      21.492  47.420  50.206  1.00  0.00     0.169 HD
BRANCH  10  13
HETATM   13  C   UNL     1      22.694  45.687  48.821  1.00  0.00     0.034 A 
HETATM   14  C   UNL     1      23.828  45.695  49.645  1.00  0.00     0.046 A 
HETATM   15  C   UNL     1      24.332  44.501  50.166  1.00  0.00     0.037 A 
HETATM   16  C   UNL     1      23.728  43.291  49.805  1.00  0.00     0.029 A 
HETATM   17  C   UNL     1      22.622  43.273  48.953  1.00  0.00     0.003 A 
HETATM   18  C   UNL     1      22.103  44.470  48.464  1.00  0.00     0.017 A 
BRANCH  15  19
HETATM   19  N   UNL     1      25.432  44.437  51.044  1.00  0.00    -0.309 N 
HETATM   20  C   UNL     1      26.759  44.423  50.715  1.00  0.00     0.321 C 
HETATM   21  N   UNL     1      27.633  44.300  51.754  1.00  0.00    -0.337 N 
HETATM   22  O   UNL     1      27.229  44.515  49.582  1.00  0.00    -0.247 OA
HETATM   23  H   UNL     1      28.595  44.266  51.443  1.00  0.00     0.164 HD
HETATM   24  H   UNL     1      25.224  44.629  52.020  1.00  0.00     0.170 HD
BRANCH  21  25
HETATM   25  C   UNL     1      27.355  43.960  53.134  1.00  0.00     0.186 C 
BRANCH  25  26
HETATM   26  C   UNL     1      27.761  45.083  54.019  1.00  0.00     0.083 A 
HETATM   27  C   UNL     1      27.142  46.295  54.252  1.00  0.00     0.076 A 
HETATM   28  C   UNL     1      25.918  46.947  53.758  1.00  0.00     0.079 C 
HETATM   29  O   UNL     1      27.891  46.976  55.170  1.00  0.00    -0.307 OA
HETATM   30  C   UNL     1      28.919  46.132  55.452  1.00  0.00     0.258 A 
HETATM   31  N   UNL     1      28.896  44.988  54.805  1.00  0.00    -0.237 NA
ENDBRANCH  25  26
ENDBRANCH  21  25
ENDBRANCH  15  19
ENDBRANCH  10  13
ENDBRANCH   1   9
TORSDOF 5
ENDMDL
MODEL 10
REMARK VINA RESULT:      -8.2      4.792     11.625
REMARK  5 active torsions:
REMARK  status: ('A' for Active; 'I' for Inactive)
REMARK    1  A    between atoms: C_6  and  C_7 
REMARK    2  A    between atoms: C_7  and  N_8 
REMARK       I    between atoms: N_8  and  C_9 
REMARK       I    between atoms: C_9  and  N_10 
REMARK    3  A    between atoms: N_10  and  C_11 
REMARK    4  A    between atoms: C_13  and  C_14 
REMARK       I    between atoms: C_14  and  N_15 
REMARK    5  A    between atoms: N_15  and  C_16 
ROOT
HETATM    1  C   UNL     1      24.120  49.125  48.920  1.00  0.00     0.036 A 
HETATM    2  C   UNL     1      24.330  48.006  49.729  1.00  0.00     0.052 A 
HETATM    3  C   UNL     1      25.632  47.571  50.014  1.00  0.00     0.046 A 
HETATM    4  C   UNL     1      25.841  46.420  50.842  1.00  0.00     0.099 C 
HETATM    5  N   UNL     1      26.032  45.490  51.510  1.00  0.00    -0.191 NA
HETATM    6  C   UNL     1      26.731  48.259  49.489  1.00  0.00     0.023 A 
HETATM    7  C   UNL     1      26.530  49.378  48.685  1.00  0.00     0.004 A 
HETATM    8  C   UNL     1      25.231  49.807  48.403  1.00  0.00     0.029 A 
ENDROOT
BRANCH   1   9
HETATM    9  N   UNL     1      22.847  49.629  48.581  1.00  0.00    -0.323 N 
HETATM   10  C   UNL     1      22.098  50.563  49.276  1.00  0.00     0.256 C 
HETATM   11  O   UNL     1      22.393  51.084  50.345  1.00  0.00    -0.267 OA
HETATM   12  H   UNL     1      22.424  49.220  47.756  1.00  0.00     0.169 HD
BRANCH  10  13
HETATM   13  C   UNL     1      20.783  50.909  48.659  1.00  0.00     0.034 A 
HETATM   14  C   UNL     1      19.808  51.635  49.359  1.00  0.00     0.046 A 
HETATM   15  C   UNL     1      18.611  51.995  48.735  1.00  0.00     0.037 A 
HETATM   16  C   UNL     1      18.371  51.569  47.423  1.00  0.00     0.029 A 
HETATM   17  C   UNL     1      19.321  50.812  46.734  1.00  0.00     0.003 A 
HETATM   18  C   UNL     1      20.528  50.486  47.350  1.00  0.00     0.017 A 
BRANCH  15  19
HETATM   19  N   UNL     1      17.611  52.770  49.356  1.00  0.00    -0.309 N 
HETATM   20  C   UNL     1      16.337  52.386  49.670  1.00  0.00     0.321 C 
HETATM   21  N   UNL     1      15.541  53.346  50.220  1.00  0.00    -0.337 N 
HETATM   22  O   UNL     1      15.853  51.268  49.507  1.00  0.00    -0.247 OA
HETATM   23  H   UNL     1      14.605  53.010  50.402  1.00  0.00     0.164 HD
HETATM   24  H   UNL     1      17.935  53.625  49.799  1.00  0.00     0.170 HD
BRANCH  21  25
HETATM   25  C   UNL     1      15.779  54.772  50.317  1.00  0.00     0.186 C 
BRANCH  25  26
HETATM   26  C   UNL     1      14.495  55.480  50.562  1.00  0.00     0.083 A 
HETATM   27  C   UNL     1      14.262  56.739  51.076  1.00  0.00     0.076 A 
HETATM   28  C   UNL     1      15.116  57.833  51.570  1.00  0.00     0.079 C 
HETATM   29  O   UNL     1      12.911  56.946  51.079  1.00  0.00    -0.307 OA
HETATM   30  C   UNL     1      12.399  55.801  50.554  1.00  0.00     0.258 A 
HETATM   31  N   UNL     1      13.289  54.892  50.221  1.00  0.00    -0.237 NA
ENDBRANCH  25  26
ENDBRANCH  21  25
ENDBRANCH  15  19
ENDBRANCH  10  13
ENDBRANCH   1   9
TORSDOF 5
ENDMDL
