MODEL 1
REMARK VINA RESULT:      -7.9      0.000      0.000
REMARK  9 active torsions:
REMARK  status: ('A' for Active; 'I' for Inactive)
REMARK    1  A    between atoms: C_2  and  C_3 
REMARK    2  A    between atoms: C_7  and  C_8 
REMARK    3  A    between atoms: C_8  and  C_9 
REMARK       I    between atoms: C_9  and  N_10 
REMARK    4  A    between atoms: N_10  and  C_11 
REMARK    5  A    between atoms: C_11  and  C_12 
REMARK    6  A    between atoms: C_12  and  N_13 
REMARK    7  A    between atoms: C_21  and  C_22 
REMARK    8  A    between atoms: C_32  and  C_33 
REMARK    9  A    between atoms: C_33  and  O_34 
ROOT
HETATM    1  C   UNL     1      19.918  50.555  49.583  1.00  0.00     0.051 C 
HETATM    2  N   UNL     1      21.097  51.036  49.055  1.00  0.00    -0.228 NA
HETATM    3  C   UNL     1      22.071  50.221  48.869  1.00  0.00     0.170 C 
HETATM    4  N   UNL     1      21.995  48.680  49.019  1.00  0.00    -0.318 N 
HETATM    5  C   UNL     1      23.132  48.130  48.735  1.00  0.00     0.011 C 
HETATM    6  C   UNL     1      20.626  48.160  49.273  1.00  0.00     0.166 C 
HETATM    7  S   UNL     1      23.636  50.751  48.348  1.00  0.00    -0.086 SA
HETATM    8  C   UNL     1      24.294  49.076  48.531  1.00  0.00     0.135 C 
HETATM    9  C   UNL     1      19.708  49.237  49.799  1.00  0.00     0.069 C 
ENDROOT
BRANCH   5  10
HETATM   10  C   UNL     1      23.299  46.652  48.542  1.00  0.00     0.156 C 
BRANCH  10  11
HETATM   11  C   UNL     1      24.330  46.041  49.456  1.00  0.00     0.223 C 
HETATM   12  N   UNL     1      23.846  45.527  50.637  1.00  0.00    -0.359 N 
HETATM   13  H   UNL     1      22.852  45.325  50.706  1.00  0.00     0.162 HD
HETATM   14  O   UNL     1      25.518  46.052  49.164  1.00  0.00    -0.273 OA
BRANCH  12  15
HETATM   15  C   UNL     1      24.722  44.785  51.551  1.00  0.00     0.150 C 
BRANCH  15  16
HETATM   16  C   UNL     1      25.360  45.656  52.653  1.00  0.00     0.254 C 
BRANCH  16  17
HETATM   17  N   UNL     1      26.791  45.216  52.948  1.00  0.00    -0.070 N 
HETATM   18  H   UNL     1      27.384  45.916  52.487  1.00  0.00     0.279 HD
HETATM   19  C   UNL     1      27.145  45.207  54.419  1.00  0.00     0.235 C 
HETATM   20  C   UNL     1      28.639  44.952  54.563  1.00  0.00     0.028 C 
HETATM   21  C   UNL     1      29.052  43.644  53.898  1.00  0.00     0.003 C 
HETATM   22  C   UNL     1      28.589  43.588  52.446  1.00  0.00     0.028 C 
HETATM   23  C   UNL     1      27.099  43.875  52.310  1.00  0.00     0.235 C 
ENDBRANCH  16  17
ENDBRANCH  15  16
ENDBRANCH  12  15
ENDBRANCH  10  11
ENDBRANCH   5  10
BRANCH   6  24
HETATM   24  C   UNL     1      20.098  47.493  47.989  1.00  0.00    -0.024 A 
HETATM   25  C   UNL     1      20.026  46.087  47.823  1.00  0.00    -0.053 A 
HETATM   26  C   UNL     1      20.329  45.079  48.902  1.00  0.00     0.049 C 
HETATM   27  C   UNL     1      19.554  45.567  46.603  1.00  0.00     0.008 A 
HETATM   28  C   UNL     1      19.180  46.399  45.550  1.00  0.00     0.007 A 
HETATM   29  C   UNL     1      19.247  47.781  45.693  1.00  0.00    -0.061 A 
HETATM   30  C   UNL     1      18.775  48.679  44.585  1.00  0.00     0.048 C 
HETATM   31  C   UNL     1      19.677  48.316  46.913  1.00  0.00     0.017 A 
ENDBRANCH   6  24
BRANCH   9  32
HETATM   32  C   UNL     1      18.605  48.704  50.642  1.00  0.00     0.293 C 
HETATM   33  O   UNL     1      18.445  49.040  51.802  1.00  0.00    -0.259 OA
BRANCH  32  34
HETATM   34  O   UNL     1      17.731  48.005  49.887  1.00  0.00    -0.323 OA
HETATM   35  C   UNL     1      16.868  48.794  49.063  1.00  0.00     0.213 C 
ENDBRANCH  32  34
ENDBRANCH   9  32
BRANCH   1  36
HETATM   36  C   UNL     1      18.909  51.664  49.869  1.00  0.00     0.056 C 
HETATM   37  C   UNL     1      18.446  52.401  48.615  1.00  0.00     0.011 C 
ENDBRANCH   1  36
TORSDOF 9
ENDMDL
MODEL 2
REMARK VINA RESULT:      -7.8      3.118      5.278
REMARK  9 active torsions:
REMARK  status: ('A' for Active; 'I' for Inactive)
REMARK    1  A    between atoms: C_2  and  C_3 
REMARK    2  A    between atoms: C_7  and  C_8 
REMARK    3  A    between atoms: C_8  and  C_9 
REMARK       I    between atoms: C_9  and  N_10 
REMARK    4  A    between atoms: N_10  and  C_11 
REMARK    5  A    between atoms: C_11  and  C_12 
REMARK    6  A    between atoms: C_12  and  N_13 
REMARK    7  A    between atoms: C_21  and  C_22 
REMARK    8  A    between atoms: C_32  and  C_33 
REMARK    9  A    between atoms: C_33  and  O_34 
ROOT
HETATM    1  C   UNL     1      16.747  48.977  45.364  1.00  0.00     0.051 C 
HETATM    2  N   UNL     1      16.594  47.822  46.102  1.00  0.00    -0.228 NA
HETATM    3  C   UNL     1      17.523  47.483  46.921  1.00  0.00     0.170 C 
HETATM    4  N   UNL     1      18.749  48.351  47.302  1.00  0.00    -0.318 N 
HETATM    5  C   UNL     1      19.491  47.749  48.175  1.00  0.00     0.011 C 
HETATM    6  C   UNL     1      18.718  49.727  46.739  1.00  0.00     0.166 C 
HETATM    7  S   UNL     1      17.493  45.980  47.783  1.00  0.00    -0.086 SA
HETATM    8  C   UNL     1      19.135  46.308  48.466  1.00  0.00     0.135 C 
HETATM    9  C   UNL     1      17.780  49.827  45.560  1.00  0.00     0.069 C 
ENDROOT
BRANCH   5  10
HETATM   10  C   UNL     1      20.596  48.436  48.920  1.00  0.00     0.156 C 
BRANCH  10  11
HETATM   11  C   UNL     1      21.968  47.922  48.563  1.00  0.00     0.223 C 
HETATM   12  N   UNL     1      22.808  47.686  49.626  1.00  0.00    -0.359 N 
HETATM   13  H   UNL     1      22.402  47.589  50.553  1.00  0.00     0.162 HD
HETATM   14  O   UNL     1      22.303  47.774  47.395  1.00  0.00    -0.273 OA
BRANCH  12  15
HETATM   15  C   UNL     1      24.119  47.058  49.425  1.00  0.00     0.150 C 
BRANCH  15  16
HETATM   16  C   UNL     1      24.256  45.668  50.081  1.00  0.00     0.254 C 
BRANCH  16  17
HETATM   17  N   UNL     1      24.625  45.784  51.556  1.00  0.00    -0.070 N 
HETATM   18  H   UNL     1      23.752  46.050  52.028  1.00  0.00     0.279 HD
HETATM   19  C   UNL     1      25.112  44.493  52.177  1.00  0.00     0.235 C 
HETATM   20  C   UNL     1      25.251  44.692  53.679  1.00  0.00     0.028 C 
HETATM   21  C   UNL     1      26.195  45.842  54.009  1.00  0.00     0.003 C 
HETATM   22  C   UNL     1      25.786  47.122  53.288  1.00  0.00     0.028 C 
HETATM   23  C   UNL     1      25.621  46.905  51.789  1.00  0.00     0.235 C 
ENDBRANCH  16  17
ENDBRANCH  15  16
ENDBRANCH  12  15
ENDBRANCH  10  11
ENDBRANCH   5  10
BRANCH   6  24
HETATM   24  C   UNL     1      18.378  50.721  47.864  1.00  0.00    -0.024 A 
HETATM   25  C   UNL     1      19.364  51.449  48.575  1.00  0.00    -0.053 A 
HETATM   26  C   UNL     1      20.836  51.447  48.247  1.00  0.00     0.049 C 
HETATM   27  C   UNL     1      18.960  52.317  49.608  1.00  0.00     0.008 A 
HETATM   28  C   UNL     1      17.620  52.457  49.963  1.00  0.00     0.007 A 
HETATM   29  C   UNL     1      16.638  51.748  49.280  1.00  0.00    -0.061 A 
HETATM   30  C   UNL     1      15.188  51.952  49.612  1.00  0.00     0.048 C 
HETATM   31  C   UNL     1      17.018  50.910  48.224  1.00  0.00     0.017 A 
ENDBRANCH   6  24
BRANCH   9  32
HETATM   32  C   UNL     1      18.160  50.898  44.600  1.00  0.00     0.293 C 
HETATM   33  O   UNL     1      18.862  50.688  43.627  1.00  0.00    -0.259 OA
BRANCH  32  34
HETATM   34  O   UNL     1      17.455  52.023  44.847  1.00  0.00    -0.323 OA
HETATM   35  C   UNL     1      17.036  52.747  43.685  1.00  0.00     0.213 C 
ENDBRANCH  32  34
ENDBRANCH   9  32
BRANCH   1  36
HETATM   36  C   UNL     1      15.629  49.172  44.344  1.00  0.00     0.056 C 
HETATM   37  C   UNL     1      14.347  49.740  44.950  1.00  0.00     0.011 C 
ENDBRANCH   1  36
TORSDOF 9
ENDMDL
MODEL 3
REMARK VINA RESULT:      -7.6      1.568      2.064
REMARK  9 active torsions:
REMARK  status: ('A' for Active; 'I' for Inactive)
REMARK    1  A    between atoms: C_2  and  C_3 
REMARK    2  A    between atoms: C_7  and  C_8 
REMARK    3  A    between atoms: C_8  and  C_9 
REMARK       I    between atoms: C_9  and  N_10 
REMARK    4  A    between atoms: N_10  and  C_11 
REMARK    5  A    between atoms: C_11  and  C_12 
REMARK    6  A    between atoms: C_12  and  N_13 
REMARK    7  A    between atoms: C_21  and  C_22 
REMARK    8  A    between atoms: C_32  and  C_33 
REMARK    9  A    between atoms: C_33  and  O_34 
ROOT
HETATM    1  C   UNL     1      20.020  49.560  48.158  1.00  0.00     0.051 C 
HETATM    2  N   UNL     1      21.169  50.207  47.753  1.00  0.00    -0.228 NA
HETATM    3  C   UNL     1      22.305  49.747  48.135  1.00  0.00     0.170 C 
HETATM    4  N   UNL     1      22.530  48.406  48.879  1.00  0.00    -0.318 N 
HETATM    5  C   UNL     1      23.789  48.204  49.102  1.00  0.00     0.011 C 
HETATM    6  C   UNL     1      21.306  47.573  49.014  1.00  0.00     0.166 C 
HETATM    7  S   UNL     1      23.795  50.568  47.802  1.00  0.00    -0.086 SA
HETATM    8  C   UNL     1      24.711  49.362  48.791  1.00  0.00     0.135 C 
HETATM    9  C   UNL     1      20.050  48.393  48.839  1.00  0.00     0.069 C 
ENDROOT
BRANCH   5  10
HETATM   10  C   UNL     1      24.335  46.888  49.570  1.00  0.00     0.156 C 
BRANCH  10  11
HETATM   11  C   UNL     1      25.241  47.008  50.768  1.00  0.00     0.223 C 
HETATM   12  N   UNL     1      25.007  46.107  51.781  1.00  0.00    -0.359 N 
HETATM   13  H   UNL     1      24.473  45.268  51.570  1.00  0.00     0.162 HD
HETATM   14  O   UNL     1      26.092  47.885  50.831  1.00  0.00    -0.273 OA
BRANCH  12  15
HETATM   15  C   UNL     1      25.904  46.027  52.941  1.00  0.00     0.150 C 
BRANCH  15  16
HETATM   16  C   UNL     1      25.646  44.808  53.851  1.00  0.00     0.254 C 
BRANCH  16  17
HETATM   17  N   UNL     1      26.954  44.173  54.310  1.00  0.00    -0.070 N 
HETATM   18  H   UNL     1      26.740  43.757  55.225  1.00  0.00     0.279 HD
HETATM   19  C   UNL     1      27.458  43.070  53.407  1.00  0.00     0.235 C 
HETATM   20  C   UNL     1      28.645  42.390  54.076  1.00  0.00     0.028 C 
HETATM   21  C   UNL     1      29.757  43.383  54.391  1.00  0.00     0.003 C 
HETATM   22  C   UNL     1      29.233  44.567  55.198  1.00  0.00     0.028 C 
HETATM   23  C   UNL     1      28.028  45.221  54.535  1.00  0.00     0.235 C 
ENDBRANCH  16  17
ENDBRANCH  15  16
ENDBRANCH  12  15
ENDBRANCH  10  11
ENDBRANCH   5  10
BRANCH   6  24
HETATM   24  C   UNL     1      21.394  46.391  48.033  1.00  0.00    -0.024 A 
HETATM   25  C   UNL     1      21.610  45.054  48.451  1.00  0.00    -0.053 A 
HETATM   26  C   UNL     1      21.651  44.601  49.889  1.00  0.00     0.049 C 
HETATM   27  C   UNL     1      21.702  44.040  47.479  1.00  0.00     0.008 A 
HETATM   28  C   UNL     1      21.613  44.323  46.118  1.00  0.00     0.007 A 
HETATM   29  C   UNL     1      21.406  45.629  45.687  1.00  0.00    -0.061 A 
HETATM   30  C   UNL     1      21.237  45.925  44.224  1.00  0.00     0.048 C 
HETATM   31  C   UNL     1      21.272  46.644  46.642  1.00  0.00     0.017 A 
ENDBRANCH   6  24
BRANCH   9  32
HETATM   32  C   UNL     1      18.879  47.829  49.561  1.00  0.00     0.293 C 
HETATM   33  O   UNL     1      18.522  48.237  50.652  1.00  0.00    -0.259 OA
BRANCH  32  34
HETATM   34  O   UNL     1      18.184  46.998  48.754  1.00  0.00    -0.323 OA
HETATM   35  C   UNL     1      16.768  47.206  48.738  1.00  0.00     0.213 C 
ENDBRANCH  32  34
ENDBRANCH   9  32
BRANCH   1  36
HETATM   36  C   UNL     1      18.754  50.300  47.737  1.00  0.00     0.056 C 
HETATM   37  C   UNL     1      18.231  49.878  46.365  1.00  0.00     0.011 C 
ENDBRANCH   1  36
TORSDOF 9
ENDMDL
MODEL 4
REMARK VINA RESULT:      -7.5      6.166     10.455
REMARK  9 active torsions:
REMARK  status: ('A' for Active; 'I' for Inactive)
REMARK    1  A    between atoms: C_2  and  C_3 
REMARK    2  A    between atoms: C_7  and  C_8 
REMARK    3  A    between atoms: C_8  and  C_9 
REMARK       I    between atoms: C_9  and  N_10 
REMARK    4  A    between atoms: N_10  and  C_11 
REMARK    5  A    between atoms: C_11  and  C_12 
REMARK    6  A    between atoms: C_12  and  N_13 
REMARK    7  A    between atoms: C_21  and  C_22 
REMARK    8  A    between atoms: C_32  and  C_33 
REMARK    9  A    between atoms: C_33  and  O_34 
ROOT
HETATM    1  C   UNL     1      17.683  47.884  45.404  1.00  0.00     0.051 C 
HETATM    2  N   UNL     1      18.270  48.455  44.295  1.00  0.00    -0.228 NA
HETATM    3  C   UNL     1      18.018  49.685  44.025  1.00  0.00     0.170 C 
HETATM    4  N   UNL     1      17.241  50.666  44.940  1.00  0.00    -0.318 N 
HETATM    5  C   UNL     1      17.178  51.845  44.408  1.00  0.00     0.011 C 
HETATM    6  C   UNL     1      16.902  50.112  46.277  1.00  0.00     0.166 C 
HETATM    7  S   UNL     1      18.589  50.452  42.580  1.00  0.00    -0.086 SA
HETATM    8  C   UNL     1      17.668  51.955  42.982  1.00  0.00     0.135 C 
HETATM    9  C   UNL     1      16.951  48.602  46.284  1.00  0.00     0.069 C 
ENDROOT
BRANCH   5  10
HETATM   10  C   UNL     1      16.718  53.057  45.162  1.00  0.00     0.156 C 
BRANCH  10  11
HETATM   11  C   UNL     1      15.218  53.200  45.207  1.00  0.00     0.223 C 
HETATM   12  N   UNL     1      14.734  54.075  46.153  1.00  0.00    -0.359 N 
HETATM   13  H   UNL     1      15.371  54.762  46.548  1.00  0.00     0.162 HD
HETATM   14  O   UNL     1      14.498  52.540  44.471  1.00  0.00    -0.273 OA
BRANCH  12  15
HETATM   15  C   UNL     1      13.306  54.408  46.210  1.00  0.00     0.150 C 
BRANCH  15  16
HETATM   16  C   UNL     1      12.898  55.208  47.464  1.00  0.00     0.254 C 
BRANCH  16  17
HETATM   17  N   UNL     1      13.710  54.781  48.683  1.00  0.00    -0.070 N 
HETATM   18  H   UNL     1      14.370  54.077  48.328  1.00  0.00     0.279 HD
HETATM   19  C   UNL     1      14.517  55.895  49.312  1.00  0.00     0.235 C 
HETATM   20  C   UNL     1      15.428  55.302  50.378  1.00  0.00     0.028 C 
HETATM   21  C   UNL     1      14.634  54.542  51.435  1.00  0.00     0.003 C 
HETATM   22  C   UNL     1      13.721  53.497  50.802  1.00  0.00     0.028 C 
HETATM   23  C   UNL     1      12.836  54.096  49.716  1.00  0.00     0.235 C 
ENDBRANCH  16  17
ENDBRANCH  15  16
ENDBRANCH  12  15
ENDBRANCH  10  11
ENDBRANCH   5  10
BRANCH   6  24
HETATM   24  C   UNL     1      17.823  50.749  47.332  1.00  0.00    -0.024 A 
HETATM   25  C   UNL     1      17.342  51.569  48.383  1.00  0.00    -0.053 A 
HETATM   26  C   UNL     1      15.884  51.817  48.680  1.00  0.00     0.049 C 
HETATM   27  C   UNL     1      18.263  52.131  49.288  1.00  0.00     0.008 A 
HETATM   28  C   UNL     1      19.634  51.922  49.159  1.00  0.00     0.007 A 
HETATM   29  C   UNL     1      20.126  51.124  48.132  1.00  0.00    -0.061 A 
HETATM   30  C   UNL     1      21.597  50.837  48.035  1.00  0.00     0.048 C 
HETATM   31  C   UNL     1      19.222  50.524  47.247  1.00  0.00     0.017 A 
ENDBRANCH   6  24
BRANCH   9  32
HETATM   32  C   UNL     1      16.051  47.994  47.300  1.00  0.00     0.293 C 
HETATM   33  O   UNL     1      14.841  48.123  47.266  1.00  0.00    -0.259 OA
BRANCH  32  34
HETATM   34  O   UNL     1      16.740  47.138  48.086  1.00  0.00    -0.323 OA
HETATM   35  C   UNL     1      17.438  47.741  49.180  1.00  0.00     0.213 C 
ENDBRANCH  32  34
ENDBRANCH   9  32
BRANCH   1  36
HETATM   36  C   UNL     1      17.970  46.389  45.513  1.00  0.00     0.056 C 
HETATM   37  C   UNL     1      17.507  45.592  44.296  1.00  0.00     0.011 C 
ENDBRANCH   1  36
TORSDOF 9
ENDMDL
MODEL 5
REMARK VINA RESULT:      -7.4      5.323      9.800
REMARK  9 active torsions:
REMARK  status: ('A' for Active; 'I' for Inactive)
REMARK    1  A    between atoms: C_2  and  C_3 
REMARK    2  A    between atoms: C_7  and  C_8 
REMARK    3  A    between atoms: C_8  and  C_9 
REMARK       I    between atoms: C_9  and  N_10 
REMARK    4  A    between atoms: N_10  and  C_11 
REMARK    5  A    between atoms: C_11  and  C_12 
REMARK    6  A    between atoms: C_12  and  N_13 
REMARK    7  A    between atoms: C_21  and  C_22 
REMARK    8  A    between atoms: C_32  and  C_33 
REMARK    9  A    between atoms: C_33  and  O_34 
ROOT
HETATM    1  C   UNL     1      19.097  47.641  45.844  1.00  0.00     0.051 C 
HETATM    2  N   UNL     1      18.968  48.644  44.907  1.00  0.00    -0.228 NA
HETATM    3  C   UNL     1      18.494  49.779  45.275  1.00  0.00     0.170 C 
HETATM    4  N   UNL     1      18.209  50.203  46.739  1.00  0.00    -0.318 N 
HETATM    5  C   UNL     1      17.764  51.417  46.792  1.00  0.00     0.011 C 
HETATM    6  C   UNL     1      18.664  49.220  47.756  1.00  0.00     0.166 C 
HETATM    7  S   UNL     1      18.158  51.052  44.149  1.00  0.00    -0.086 SA
HETATM    8  C   UNL     1      17.434  52.061  45.463  1.00  0.00     0.135 C 
HETATM    9  C   UNL     1      18.858  47.846  47.159  1.00  0.00     0.069 C 
ENDROOT
BRANCH   5  10
HETATM   10  C   UNL     1      17.642  52.187  48.073  1.00  0.00     0.156 C 
BRANCH  10  11
HETATM   11  C   UNL     1      16.242  52.206  48.629  1.00  0.00     0.223 C 
HETATM   12  N   UNL     1      15.775  53.440  49.021  1.00  0.00    -0.359 N 
HETATM   13  H   UNL     1      16.244  54.270  48.667  1.00  0.00     0.162 HD
HETATM   14  O   UNL     1      15.598  51.173  48.755  1.00  0.00    -0.273 OA
BRANCH  12  15
HETATM   15  C   UNL     1      14.383  53.617  49.451  1.00  0.00     0.150 C 
BRANCH  15  16
HETATM   16  C   UNL     1      14.220  53.840  50.969  1.00  0.00     0.254 C 
BRANCH  16  17
HETATM   17  N   UNL     1      14.839  55.164  51.405  1.00  0.00    -0.070 N 
HETATM   18  H   UNL     1      15.854  55.019  51.331  1.00  0.00     0.279 HD
HETATM   19  C   UNL     1      14.475  56.339  50.525  1.00  0.00     0.235 C 
HETATM   20  C   UNL     1      15.308  57.543  50.940  1.00  0.00     0.028 C 
HETATM   21  C   UNL     1      15.107  57.884  52.412  1.00  0.00     0.003 C 
HETATM   22  C   UNL     1      15.350  56.671  53.303  1.00  0.00     0.028 C 
HETATM   23  C   UNL     1      14.533  55.464  52.860  1.00  0.00     0.235 C 
ENDBRANCH  16  17
ENDBRANCH  15  16
ENDBRANCH  12  15
ENDBRANCH  10  11
ENDBRANCH   5  10
BRANCH   6  24
HETATM   24  C   UNL     1      19.930  49.761  48.445  1.00  0.00    -0.024 A 
HETATM   25  C   UNL     1      19.967  50.131  49.812  1.00  0.00    -0.053 A 
HETATM   26  C   UNL     1      18.835  49.928  50.787  1.00  0.00     0.049 C 
HETATM   27  C   UNL     1      21.164  50.642  50.349  1.00  0.00     0.008 A 
HETATM   28  C   UNL     1      22.301  50.815  49.564  1.00  0.00     0.007 A 
HETATM   29  C   UNL     1      22.284  50.462  48.219  1.00  0.00    -0.061 A 
HETATM   30  C   UNL     1      23.530  50.580  47.389  1.00  0.00     0.048 C 
HETATM   31  C   UNL     1      21.114  49.915  47.678  1.00  0.00     0.017 A 
ENDBRANCH   6  24
BRANCH   9  32
HETATM   32  C   UNL     1      18.677  46.749  48.146  1.00  0.00     0.293 C 
HETATM   33  O   UNL     1      19.546  46.428  48.937  1.00  0.00    -0.259 OA
BRANCH  32  34
HETATM   34  O   UNL     1      17.388  46.346  48.170  1.00  0.00    -0.323 OA
HETATM   35  C   UNL     1      16.520  47.129  48.994  1.00  0.00     0.213 C 
ENDBRANCH  32  34
ENDBRANCH   9  32
BRANCH   1  36
HETATM   36  C   UNL     1      19.545  46.319  45.228  1.00  0.00     0.056 C 
HETATM   37  C   UNL     1      19.686  46.374  43.709  1.00  0.00     0.011 C 
ENDBRANCH   1  36
TORSDOF 9
ENDMDL
MODEL 6
REMARK VINA RESULT:      -7.3     21.676     24.731
REMARK  9 active torsions:
REMARK  status: ('A' for Active; 'I' for Inactive)
REMARK    1  A    between atoms: C_2  and  C_3 
REMARK    2  A    between atoms: C_7  and  C_8 
REMARK    3  A    between atoms: C_8  and  C_9 
REMARK       I    between atoms: C_9  and  N_10 
REMARK    4  A    between atoms: N_10  and  C_11 
REMARK    5  A    between atoms: C_11  and  C_12 
REMARK    6  A    between atoms: C_12  and  N_13 
REMARK    7  A    between atoms: C_21  and  C_22 
REMARK    8  A    between atoms: C_32  and  C_33 
REMARK    9  A    between atoms: C_33  and  O_34 
ROOT
HETATM    1  C   UNL     1      41.939  44.574  66.633  1.00  0.00     0.051 C 
HETATM    2  N   UNL     1      41.329  44.252  67.827  1.00  0.00    -0.228 NA
HETATM    3  C   UNL     1      40.047  44.220  67.879  1.00  0.00     0.170 C 
HETATM    4  N   UNL     1      39.094  44.339  66.663  1.00  0.00    -0.318 N 
HETATM    5  C   UNL     1      37.857  44.240  67.032  1.00  0.00     0.011 C 
HETATM    6  C   UNL     1      39.785  44.359  65.348  1.00  0.00     0.166 C 
HETATM    7  S   UNL     1      39.187  43.969  69.362  1.00  0.00    -0.086 SA
HETATM    8  C   UNL     1      37.608  44.240  68.524  1.00  0.00     0.135 C 
HETATM    9  C   UNL     1      41.241  44.739  65.487  1.00  0.00     0.069 C 
ENDROOT
BRANCH   5  10
HETATM   10  C   UNL     1      36.727  44.062  66.062  1.00  0.00     0.156 C 
BRANCH  10  11
HETATM   11  C   UNL     1      36.370  45.325  65.321  1.00  0.00     0.223 C 
HETATM   12  N   UNL     1      36.415  46.482  66.064  1.00  0.00    -0.359 N 
HETATM   13  H   UNL     1      36.937  46.478  66.936  1.00  0.00     0.162 HD
HETATM   14  O   UNL     1      36.025  45.292  64.147  1.00  0.00    -0.273 OA
BRANCH  12  15
HETATM   15  C   UNL     1      36.223  47.792  65.431  1.00  0.00     0.150 C 
BRANCH  15  16
HETATM   16  C   UNL     1      37.527  48.595  65.243  1.00  0.00     0.254 C 
BRANCH  16  17
HETATM   17  N   UNL     1      37.537  49.847  66.114  1.00  0.00    -0.070 N 
HETATM   18  H   UNL     1      36.799  50.447  65.725  1.00  0.00     0.279 HD
HETATM   19  C   UNL     1      37.207  49.593  67.568  1.00  0.00     0.235 C 
HETATM   20  C   UNL     1      37.051  50.931  68.279  1.00  0.00     0.028 C 
HETATM   21  C   UNL     1      38.307  51.785  68.148  1.00  0.00     0.003 C 
HETATM   22  C   UNL     1      38.723  51.944  66.690  1.00  0.00     0.028 C 
HETATM   23  C   UNL     1      38.846  50.602  65.981  1.00  0.00     0.235 C 
ENDBRANCH  16  17
ENDBRANCH  15  16
ENDBRANCH  12  15
ENDBRANCH  10  11
ENDBRANCH   5  10
BRANCH   6  24
HETATM   24  C   UNL     1      39.582  43.000  64.654  1.00  0.00    -0.024 A 
HETATM   25  C   UNL     1      39.091  42.874  63.331  1.00  0.00    -0.053 A 
HETATM   26  C   UNL     1      38.831  44.031  62.398  1.00  0.00     0.049 C 
HETATM   27  C   UNL     1      38.912  41.588  62.788  1.00  0.00     0.008 A 
HETATM   28  C   UNL     1      39.181  40.439  63.528  1.00  0.00     0.007 A 
HETATM   29  C   UNL     1      39.660  40.541  64.830  1.00  0.00    -0.061 A 
HETATM   30  C   UNL     1      40.019  39.305  65.603  1.00  0.00     0.048 C 
HETATM   31  C   UNL     1      39.881  41.813  65.372  1.00  0.00     0.017 A 
ENDBRANCH   6  24
BRANCH   9  32
HETATM   32  C   UNL     1      41.795  45.384  64.268  1.00  0.00     0.293 C 
HETATM   33  O   UNL     1      42.574  44.817  63.522  1.00  0.00    -0.259 OA
BRANCH  32  34
HETATM   34  O   UNL     1      41.155  46.546  64.018  1.00  0.00    -0.323 OA
HETATM   35  C   UNL     1      41.302  47.553  65.024  1.00  0.00     0.213 C 
ENDBRANCH  32  34
ENDBRANCH   9  32
BRANCH   1  36
HETATM   36  C   UNL     1      43.454  44.702  66.765  1.00  0.00     0.056 C 
HETATM   37  C   UNL     1      44.208  43.444  66.341  1.00  0.00     0.011 C 
ENDBRANCH   1  36
TORSDOF 9
ENDMDL
MODEL 7
REMARK VINA RESULT:      -7.3      4.816      8.892
REMARK  9 active torsions:
REMARK  status: ('A' for Active; 'I' for Inactive)
REMARK    1  A    between atoms: C_2  and  C_3 
REMARK    2  A    between atoms: C_7  and  C_8 
REMARK    3  A    between atoms: C_8  and  C_9 
REMARK       I    between atoms: C_9  and  N_10 
REMARK    4  A    between atoms: N_10  and  C_11 
REMARK    5  A    between atoms: C_11  and  C_12 
REMARK    6  A    between atoms: C_12  and  N_13 
REMARK    7  A    between atoms: C_21  and  C_22 
REMARK    8  A    between atoms: C_32  and  C_33 
REMARK    9  A    between atoms: C_33  and  O_34 
ROOT
HETATM    1  C   UNL     1      20.883  49.398  48.927  1.00  0.00     0.051 C 
HETATM    2  N   UNL     1      21.543  48.473  48.146  1.00  0.00    -0.228 NA
HETATM    3  C   UNL     1      20.904  47.437  47.739  1.00  0.00     0.170 C 
HETATM    4  N   UNL     1      19.380  47.201  47.895  1.00  0.00    -0.318 N 
HETATM    5  C   UNL     1      19.027  46.078  47.357  1.00  0.00     0.011 C 
HETATM    6  C   UNL     1      18.638  48.363  48.452  1.00  0.00     0.166 C 
HETATM    7  S   UNL     1      21.680  46.150  46.878  1.00  0.00    -0.086 SA
HETATM    8  C   UNL     1      20.154  45.180  46.898  1.00  0.00     0.135 C 
HETATM    9  C   UNL     1      19.557  49.316  49.179  1.00  0.00     0.069 C 
ENDROOT
BRANCH   5  10
HETATM   10  C   UNL     1      17.595  45.698  47.124  1.00  0.00     0.156 C 
BRANCH  10  11
HETATM   11  C   UNL     1      17.231  45.604  45.664  1.00  0.00     0.223 C 
HETATM   12  N   UNL     1      16.633  44.427  45.277  1.00  0.00    -0.359 N 
HETATM   13  H   UNL     1      16.219  43.835  45.992  1.00  0.00     0.162 HD
HETATM   14  O   UNL     1      17.498  46.510  44.886  1.00  0.00    -0.273 OA
BRANCH  12  15
HETATM   15  C   UNL     1      16.106  44.261  43.917  1.00  0.00     0.150 C 
BRANCH  15  16
HETATM   16  C   UNL     1      14.647  44.733  43.747  1.00  0.00     0.254 C 
BRANCH  16  17
HETATM   17  N   UNL     1      14.565  46.253  43.650  1.00  0.00    -0.070 N 
HETATM   18  H   UNL     1      15.212  46.601  44.368  1.00  0.00     0.279 HD
HETATM   19  C   UNL     1      15.009  46.814  42.317  1.00  0.00     0.235 C 
HETATM   20  C   UNL     1      15.072  48.332  42.418  1.00  0.00     0.028 C 
HETATM   21  C   UNL     1      13.730  48.923  42.836  1.00  0.00     0.003 C 
HETATM   22  C   UNL     1      13.210  48.275  44.115  1.00  0.00     0.028 C 
HETATM   23  C   UNL     1      13.180  46.755  44.013  1.00  0.00     0.235 C 
ENDBRANCH  16  17
ENDBRANCH  15  16
ENDBRANCH  12  15
ENDBRANCH  10  11
ENDBRANCH   5  10
BRANCH   6  24
HETATM   24  C   UNL     1      17.844  49.038  47.320  1.00  0.00    -0.024 A 
HETATM   25  C   UNL     1      16.429  49.117  47.310  1.00  0.00    -0.053 A 
HETATM   26  C   UNL     1      15.537  48.675  48.442  1.00  0.00     0.049 C 
HETATM   27  C   UNL     1      15.786  49.732  46.218  1.00  0.00     0.008 A 
HETATM   28  C   UNL     1      16.506  50.240  45.139  1.00  0.00     0.007 A 
HETATM   29  C   UNL     1      17.894  50.169  45.128  1.00  0.00    -0.061 A 
HETATM   30  C   UNL     1      18.675  50.781  44.000  1.00  0.00     0.048 C 
HETATM   31  C   UNL     1      18.552  49.597  46.224  1.00  0.00     0.017 A 
ENDBRANCH   6  24
BRANCH   9  32
HETATM   32  C   UNL     1      18.870  50.087  50.249  1.00  0.00     0.293 C 
HETATM   33  O   UNL     1      18.692  49.640  51.368  1.00  0.00    -0.259 OA
BRANCH  32  34
HETATM   34  O   UNL     1      18.693  51.369  49.865  1.00  0.00    -0.323 OA
HETATM   35  C   UNL     1      17.332  51.806  49.805  1.00  0.00     0.213 C 
ENDBRANCH  32  34
ENDBRANCH   9  32
BRANCH   1  36
HETATM   36  C   UNL     1      21.808  50.497  49.441  1.00  0.00     0.056 C 
HETATM   37  C   UNL     1      22.890  50.896  48.440  1.00  0.00     0.011 C 
ENDBRANCH   1  36
TORSDOF 9
ENDMDL
MODEL 8
REMARK VINA RESULT:      -7.2     22.083     24.992
REMARK  9 active torsions:
REMARK  status: ('A' for Active; 'I' for Inactive)
REMARK    1  A    between atoms: C_2  and  C_3 
REMARK    2  A    between atoms: C_7  and  C_8 
REMARK    3  A    between atoms: C_8  and  C_9 
REMARK       I    between atoms: C_9  and  N_10 
REMARK    4  A    between atoms: N_10  and  C_11 
REMARK    5  A    between atoms: C_11  and  C_12 
REMARK    6  A    between atoms: C_12  and  N_13 
REMARK    7  A    between atoms: C_21  and  C_22 
REMARK    8  A    between atoms: C_32  and  C_33 
REMARK    9  A    between atoms: C_33  and  O_34 
ROOT
HETATM    1  C   UNL     1      40.944  40.314  66.451  1.00  0.00     0.051 C 
HETATM    2  N   UNL     1      41.948  41.144  66.904  1.00  0.00    -0.228 NA
HETATM    3  C   UNL     1      42.199  42.224  66.257  1.00  0.00     0.170 C 
HETATM    4  N   UNL     1      41.350  42.791  65.090  1.00  0.00    -0.318 N 
HETATM    5  C   UNL     1      41.839  43.910  64.662  1.00  0.00     0.011 C 
HETATM    6  C   UNL     1      40.089  42.046  64.836  1.00  0.00     0.166 C 
HETATM    7  S   UNL     1      43.530  43.257  66.659  1.00  0.00    -0.086 SA
HETATM    8  C   UNL     1      43.188  44.302  65.223  1.00  0.00     0.135 C 
HETATM    9  C   UNL     1      40.135  40.655  65.424  1.00  0.00     0.069 C 
ENDROOT
BRANCH   5  10
HETATM   10  C   UNL     1      41.102  44.818  63.722  1.00  0.00     0.156 C 
BRANCH  10  11
HETATM   11  C   UNL     1      40.816  46.178  64.305  1.00  0.00     0.223 C 
HETATM   12  N   UNL     1      39.532  46.369  64.764  1.00  0.00    -0.359 N 
HETATM   13  H   UNL     1      38.958  45.551  64.952  1.00  0.00     0.162 HD
HETATM   14  O   UNL     1      41.672  47.052  64.320  1.00  0.00    -0.273 OA
BRANCH  12  15
HETATM   15  C   UNL     1      39.162  47.597  65.476  1.00  0.00     0.150 C 
BRANCH  15  16
HETATM   16  C   UNL     1      37.711  48.056  65.223  1.00  0.00     0.254 C 
BRANCH  16  17
HETATM   17  N   UNL     1      37.356  49.270  66.075  1.00  0.00    -0.070 N 
HETATM   18  H   UNL     1      36.393  49.509  65.808  1.00  0.00     0.279 HD
HETATM   19  C   UNL     1      37.372  49.008  67.564  1.00  0.00     0.235 C 
HETATM   20  C   UNL     1      36.810  50.226  68.284  1.00  0.00     0.028 C 
HETATM   21  C   UNL     1      37.594  51.489  67.947  1.00  0.00     0.003 C 
HETATM   22  C   UNL     1      37.692  51.697  66.440  1.00  0.00     0.028 C 
HETATM   23  C   UNL     1      38.228  50.462  65.726  1.00  0.00     0.235 C 
ENDBRANCH  16  17
ENDBRANCH  15  16
ENDBRANCH  12  15
ENDBRANCH  10  11
ENDBRANCH   5  10
BRANCH   6  24
HETATM   24  C   UNL     1      38.903  42.879  65.353  1.00  0.00    -0.024 A 
HETATM   25  C   UNL     1      37.796  43.233  64.542  1.00  0.00    -0.053 A 
HETATM   26  C   UNL     1      37.574  42.745  63.133  1.00  0.00     0.049 C 
HETATM   27  C   UNL     1      36.768  44.021  65.095  1.00  0.00     0.008 A 
HETATM   28  C   UNL     1      36.826  44.480  66.409  1.00  0.00     0.007 A 
HETATM   29  C   UNL     1      37.905  44.146  67.220  1.00  0.00    -0.061 A 
HETATM   30  C   UNL     1      37.934  44.579  68.658  1.00  0.00     0.048 C 
HETATM   31  C   UNL     1      38.917  43.330  66.699  1.00  0.00     0.017 A 
ENDBRANCH   6  24
BRANCH   9  32
HETATM   32  C   UNL     1      39.264  39.688  64.703  1.00  0.00     0.293 C 
HETATM   33  O   UNL     1      38.060  39.631  64.881  1.00  0.00    -0.259 OA
BRANCH  32  34
HETATM   34  O   UNL     1      39.954  39.079  63.715  1.00  0.00    -0.323 OA
HETATM   35  C   UNL     1      39.578  39.457  62.387  1.00  0.00     0.213 C 
ENDBRANCH  32  34
ENDBRANCH   9  32
BRANCH   1  36
HETATM   36  C   UNL     1      40.859  39.013  67.243  1.00  0.00     0.056 C 
HETATM   37  C   UNL     1      41.802  37.927  66.731  1.00  0.00     0.011 C 
ENDBRANCH   1  36
TORSDOF 9
ENDMDL
MODEL 9
REMARK VINA RESULT:      -7.1     21.681     24.560
REMARK  9 active torsions:
REMARK  status: ('A' for Active; 'I' for Inactive)
REMARK    1  A    between atoms: C_2  and  C_3 
REMARK    2  A    between atoms: C_7  and  C_8 
REMARK    3  A    between atoms: C_8  and  C_9 
REMARK       I    between atoms: C_9  and  N_10 
REMARK    4  A    between atoms: N_10  and  C_11 
REMARK    5  A    between atoms: C_11  and  C_12 
REMARK    6  A    between atoms: C_12  and  N_13 
REMARK    7  A    between atoms: C_21  and  C_22 
REMARK    8  A    between atoms: C_32  and  C_33 
REMARK    9  A    between atoms: C_33  and  O_34 
ROOT
HETATM    1  C   UNL     1      40.777  45.425  68.039  1.00  0.00     0.051 C 
HETATM    2  N   UNL     1      41.832  45.439  67.151  1.00  0.00    -0.228 NA
HETATM    3  C   UNL     1      41.626  45.069  65.939  1.00  0.00     0.170 C 
HETATM    4  N   UNL     1      40.241  44.767  65.312  1.00  0.00    -0.318 N 
HETATM    5  C   UNL     1      40.356  44.448  64.063  1.00  0.00     0.011 C 
HETATM    6  C   UNL     1      39.091  45.075  66.202  1.00  0.00     0.166 C 
HETATM    7  S   UNL     1      42.912  44.914  64.788  1.00  0.00    -0.086 SA
HETATM    8  C   UNL     1      41.767  44.243  63.559  1.00  0.00     0.135 C 
HETATM    9  C   UNL     1      39.510  45.152  67.651  1.00  0.00     0.069 C 
ENDROOT
BRANCH   5  10
HETATM   10  C   UNL     1      39.184  44.352  63.133  1.00  0.00     0.156 C 
BRANCH  10  11
HETATM   11  C   UNL     1      38.630  42.956  63.010  1.00  0.00     0.223 C 
HETATM   12  N   UNL     1      39.528  41.994  62.609  1.00  0.00    -0.359 N 
HETATM   13  H   UNL     1      40.522  42.192  62.695  1.00  0.00     0.162 HD
HETATM   14  O   UNL     1      37.446  42.725  63.219  1.00  0.00    -0.273 OA
BRANCH  12  15
HETATM   15  C   UNL     1      39.152  40.576  62.582  1.00  0.00     0.150 C 
BRANCH  15  16
HETATM   16  C   UNL     1      39.377  39.842  63.920  1.00  0.00     0.254 C 
BRANCH  16  17
HETATM   17  N   UNL     1      40.756  40.147  64.495  1.00  0.00    -0.070 N 
HETATM   18  H   UNL     1      41.232  40.695  63.767  1.00  0.00     0.279 HD
HETATM   19  C   UNL     1      40.731  40.980  65.758  1.00  0.00     0.235 C 
HETATM   20  C   UNL     1      42.156  41.382  66.111  1.00  0.00     0.028 C 
HETATM   21  C   UNL     1      43.057  40.165  66.282  1.00  0.00     0.003 C 
HETATM   22  C   UNL     1      42.995  39.250  65.063  1.00  0.00     0.028 C 
HETATM   23  C   UNL     1      41.562  38.878  64.701  1.00  0.00     0.235 C 
ENDBRANCH  16  17
ENDBRANCH  15  16
ENDBRANCH  12  15
ENDBRANCH  10  11
ENDBRANCH   5  10
BRANCH   6  24
HETATM   24  C   UNL     1      38.403  46.359  65.705  1.00  0.00    -0.024 A 
HETATM   25  C   UNL     1      37.072  46.385  65.220  1.00  0.00    -0.053 A 
HETATM   26  C   UNL     1      36.127  45.210  65.245  1.00  0.00     0.049 C 
HETATM   27  C   UNL     1      36.535  47.602  64.762  1.00  0.00     0.008 A 
HETATM   28  C   UNL     1      37.288  48.775  64.750  1.00  0.00     0.007 A 
HETATM   29  C   UNL     1      38.597  48.770  65.219  1.00  0.00    -0.061 A 
HETATM   30  C   UNL     1      39.386  50.047  65.275  1.00  0.00     0.048 C 
HETATM   31  C   UNL     1      39.134  47.576  65.715  1.00  0.00     0.017 A 
ENDBRANCH   6  24
BRANCH   9  32
HETATM   32  C   UNL     1      38.412  44.817  68.596  1.00  0.00     0.293 C 
HETATM   33  O   UNL     1      37.486  45.576  68.821  1.00  0.00    -0.259 OA
BRANCH  32  34
HETATM   34  O   UNL     1      38.487  43.520  68.964  1.00  0.00    -0.323 OA
HETATM   35  C   UNL     1      38.640  43.292  70.368  1.00  0.00     0.213 C 
ENDBRANCH  32  34
ENDBRANCH   9  32
BRANCH   1  36
HETATM   36  C   UNL     1      41.207  45.760  69.464  1.00  0.00     0.056 C 
HETATM   37  C   UNL     1      42.084  44.685  70.101  1.00  0.00     0.011 C 
ENDBRANCH   1  36
TORSDOF 9
ENDMDL
MODEL 10
REMARK VINA RESULT:      -6.9      4.738      8.886
REMARK  9 active torsions:
REMARK  status: ('A' for Active; 'I' for Inactive)
REMARK    1  A    between atoms: C_2  and  C_3 
REMARK    2  A    between atoms: C_7  and  C_8 
REMARK    3  A    between atoms: C_8  and  C_9 
REMARK       I    between atoms: C_9  and  N_10 
REMARK    4  A    between atoms: N_10  and  C_11 
REMARK    5  A    between atoms: C_11  and  C_12 
REMARK    6  A    between atoms: C_12  and  N_13 
REMARK    7  A    between atoms: C_21  and  C_22 
REMARK    8  A    between atoms: C_32  and  C_33 
REMARK    9  A    between atoms: C_33  and  O_34 
ROOT
HETATM    1  C   UNL     1      24.955  46.610  49.787  1.00  0.00     0.051 C 
HETATM    2  N   UNL     1      23.947  45.673  49.883  1.00  0.00    -0.228 NA
HETATM    3  C   UNL     1      24.261  44.431  49.967  1.00  0.00     0.170 C 
HETATM    4  N   UNL     1      25.697  43.877  50.151  1.00  0.00    -0.318 N 
HETATM    5  C   UNL     1      25.689  42.585  50.233  1.00  0.00     0.011 C 
HETATM    6  C   UNL     1      26.730  44.923  50.372  1.00  0.00     0.166 C 
HETATM    7  S   UNL     1      23.072  43.172  49.946  1.00  0.00    -0.086 SA
HETATM    8  C   UNL     1      24.368  41.911  49.934  1.00  0.00     0.135 C 
HETATM    9  C   UNL     1      26.261  46.279  49.900  1.00  0.00     0.069 C 
ENDROOT
BRANCH   5  10
HETATM   10  C   UNL     1      26.882  41.786  50.666  1.00  0.00     0.156 C 
BRANCH  10  11
HETATM   11  C   UNL     1      27.684  41.236  49.514  1.00  0.00     0.223 C 
HETATM   12  N   UNL     1      28.541  40.207  49.826  1.00  0.00    -0.359 N 
HETATM   13  H   UNL     1      28.391  39.696  50.692  1.00  0.00     0.162 HD
HETATM   14  O   UNL     1      27.592  41.719  48.393  1.00  0.00    -0.273 OA
BRANCH  12  15
HETATM   15  C   UNL     1      29.276  39.494  48.774  1.00  0.00     0.150 C 
BRANCH  15  16
HETATM   16  C   UNL     1      29.447  37.984  49.042  1.00  0.00     0.254 C 
BRANCH  16  17
HETATM   17  N   UNL     1      28.502  37.157  48.176  1.00  0.00    -0.070 N 
HETATM   18  H   UNL     1      28.939  36.230  48.116  1.00  0.00     0.279 HD
HETATM   19  C   UNL     1      27.119  36.979  48.763  1.00  0.00     0.235 C 
HETATM   20  C   UNL     1      26.348  35.979  47.912  1.00  0.00     0.028 C 
HETATM   21  C   UNL     1      26.266  36.426  46.456  1.00  0.00     0.003 C 
HETATM   22  C   UNL     1      27.649  36.730  45.889  1.00  0.00     0.028 C 
HETATM   23  C   UNL     1      28.423  37.708  46.764  1.00  0.00     0.235 C 
ENDBRANCH  16  17
ENDBRANCH  15  16
ENDBRANCH  12  15
ENDBRANCH  10  11
ENDBRANCH   5  10
BRANCH   6  24
HETATM   24  C   UNL     1      27.145  44.912  51.854  1.00  0.00    -0.024 A 
HETATM   25  C   UNL     1      26.512  45.711  52.839  1.00  0.00    -0.053 A 
HETATM   26  C   UNL     1      25.291  46.562  52.599  1.00  0.00     0.049 C 
HETATM   27  C   UNL     1      26.977  45.654  54.167  1.00  0.00     0.008 A 
HETATM   28  C   UNL     1      28.058  44.854  54.529  1.00  0.00     0.007 A 
HETATM   29  C   UNL     1      28.695  44.066  53.576  1.00  0.00    -0.061 A 
HETATM   30  C   UNL     1      29.813  43.147  53.979  1.00  0.00     0.048 C 
HETATM   31  C   UNL     1      28.220  44.079  52.259  1.00  0.00     0.017 A 
ENDBRANCH   6  24
BRANCH   9  32
HETATM   32  C   UNL     1      27.377  47.175  49.496  1.00  0.00     0.293 C 
HETATM   33  O   UNL     1      28.290  46.804  48.781  1.00  0.00    -0.259 OA
BRANCH  32  34
HETATM   34  O   UNL     1      27.106  48.451  49.845  1.00  0.00    -0.323 OA
HETATM   35  C   UNL     1      27.793  49.450  49.086  1.00  0.00     0.213 C 
ENDBRANCH  32  34
ENDBRANCH   9  32
BRANCH   1  36
HETATM   36  C   UNL     1      24.422  48.021  49.559  1.00  0.00     0.056 C 
HETATM   37  C   UNL     1      22.983  48.052  49.049  1.00  0.00     0.011 C 
ENDBRANCH   1  36
TORSDOF 9
ENDMDL
