MODEL 1
REMARK VINA RESULT:      -8.6      0.000      0.000
REMARK  3 active torsions:
REMARK  status: ('A' for Active; 'I' for Inactive)
REMARK       I    between atoms: N_2  and  C_3 
REMARK    1  A    between atoms: C_3  and  C_4 
REMARK    2  A    between atoms: C_7  and  N_8 
REMARK       I    between atoms: N_8  and  C_9 
REMARK    3  A    between atoms: C_9  and  C_10 
ROOT
HETATM    1  N   UNL     1      26.887  45.474  52.816  1.00  0.00    -0.321 N 
HETATM    2  C   UNL     1      26.987  45.936  54.116  1.00  0.00     0.280 C 
HETATM    3  O   UNL     1      26.219  46.728  54.652  1.00  0.00    -0.265 OA
HETATM    4  H   UNL     1      27.600  44.802  52.551  1.00  0.00     0.169 HD
ENDROOT
BRANCH   1   5
HETATM    5  C   UNL     1      25.959  45.846  51.826  1.00  0.00     0.035 A 
HETATM    6  C   UNL     1      24.944  45.011  51.354  1.00  0.00     0.030 A 
HETATM    7  C   UNL     1      24.031  45.469  50.395  1.00  0.00     0.019 A 
HETATM    8  C   UNL     1      24.127  46.773  49.900  1.00  0.00     0.032 A 
HETATM    9  C   UNL     1      25.160  47.602  50.343  1.00  0.00     0.019 A 
HETATM   10  C   UNL     1      26.067  47.142  51.305  1.00  0.00     0.030 A 
BRANCH   8  11
HETATM   11  C   UNL     1      23.162  47.308  48.902  1.00  0.00     0.251 C 
HETATM   12  N   UNL     1      21.915  46.715  48.884  1.00  0.00    -0.361 N 
HETATM   13  C   UNL     1      20.871  47.236  48.040  1.00  0.00     0.149 C 
HETATM   14  H   UNL     1      21.649  46.117  49.654  1.00  0.00     0.162 HD
HETATM   15  O   UNL     1      23.476  48.251  48.185  1.00  0.00    -0.268 OA
ENDBRANCH   8  11
ENDBRANCH   1   5
BRANCH   2  16
HETATM   16  C   UNL     1      28.135  45.390  54.816  1.00  0.00     0.144 A 
HETATM   17  O   UNL     1      28.539  45.959  55.998  1.00  0.00    -0.304 OA
HETATM   18  C   UNL     1      29.601  45.237  56.449  1.00  0.00     0.086 A 
HETATM   19  C   UNL     1      29.897  44.206  55.565  1.00  0.00     0.001 A 
HETATM   20  C   UNL     1      30.300  45.478  57.629  1.00  0.00     0.038 A 
HETATM   21  C   UNL     1      28.953  44.316  54.514  1.00  0.00     0.057 A 
HETATM   22  C   UNL     1      30.967  43.345  55.869  1.00  0.00     0.014 A 
HETATM   23  C   UNL     1      31.688  43.561  57.053  1.00  0.00     0.001 A 
HETATM   24  C   UNL     1      31.359  44.610  57.916  1.00  0.00     0.003 A 
ENDBRANCH   2  16
TORSDOF 3
ENDMDL
MODEL 2
REMARK VINA RESULT:      -8.5      1.866      2.322
REMARK  3 active torsions:
REMARK  status: ('A' for Active; 'I' for Inactive)
REMARK       I    between atoms: N_2  and  C_3 
REMARK    1  A    between atoms: C_3  and  C_4 
REMARK    2  A    between atoms: C_7  and  N_8 
REMARK       I    between atoms: N_8  and  C_9 
REMARK    3  A    between atoms: C_9  and  C_10 
ROOT
HETATM    1  N   UNL     1      27.480  44.663  52.747  1.00  0.00    -0.321 N 
HETATM    2  C   UNL     1      28.519  43.758  52.877  1.00  0.00     0.280 C 
HETATM    3  O   UNL     1      28.805  42.880  52.071  1.00  0.00    -0.265 OA
HETATM    4  H   UNL     1      27.409  45.336  53.504  1.00  0.00     0.169 HD
ENDROOT
BRANCH   1   5
HETATM    5  C   UNL     1      26.507  44.734  51.734  1.00  0.00     0.035 A 
HETATM    6  C   UNL     1      26.750  45.227  50.450  1.00  0.00     0.030 A 
HETATM    7  C   UNL     1      25.738  45.226  49.481  1.00  0.00     0.019 A 
HETATM    8  C   UNL     1      24.470  44.728  49.791  1.00  0.00     0.032 A 
HETATM    9  C   UNL     1      24.210  44.265  51.083  1.00  0.00     0.019 A 
HETATM   10  C   UNL     1      25.225  44.263  52.046  1.00  0.00     0.030 A 
BRANCH   8  11
HETATM   11  C   UNL     1      23.375  44.684  48.784  1.00  0.00     0.251 C 
HETATM   12  N   UNL     1      22.143  45.141  49.205  1.00  0.00    -0.361 N 
HETATM   13  C   UNL     1      21.049  45.253  48.276  1.00  0.00     0.149 C 
HETATM   14  H   UNL     1      22.086  45.661  50.070  1.00  0.00     0.162 HD
HETATM   15  O   UNL     1      23.603  44.301  47.642  1.00  0.00    -0.268 OA
ENDBRANCH   8  11
ENDBRANCH   1   5
BRANCH   2  16
HETATM   16  C   UNL     1      29.266  43.939  54.109  1.00  0.00     0.144 A 
HETATM   17  O   UNL     1      28.971  45.001  54.927  1.00  0.00    -0.304 OA
HETATM   18  C   UNL     1      29.788  44.909  56.013  1.00  0.00     0.086 A 
HETATM   19  C   UNL     1      30.617  43.800  55.904  1.00  0.00     0.001 A 
HETATM   20  C   UNL     1      29.799  45.789  57.092  1.00  0.00     0.038 A 
HETATM   21  C   UNL     1      30.280  43.185  54.672  1.00  0.00     0.057 A 
HETATM   22  C   UNL     1      31.531  43.538  56.940  1.00  0.00     0.014 A 
HETATM   23  C   UNL     1      31.563  44.405  58.043  1.00  0.00     0.001 A 
HETATM   24  C   UNL     1      30.712  45.510  58.115  1.00  0.00     0.003 A 
ENDBRANCH   2  16
TORSDOF 3
ENDMDL
MODEL 3
REMARK VINA RESULT:      -8.5      1.495      1.634
REMARK  3 active torsions:
REMARK  status: ('A' for Active; 'I' for Inactive)
REMARK       I    between atoms: N_2  and  C_3 
REMARK    1  A    between atoms: C_3  and  C_4 
REMARK    2  A    between atoms: C_7  and  N_8 
REMARK       I    between atoms: N_8  and  C_9 
REMARK    3  A    between atoms: C_9  and  C_10 
ROOT
HETATM    1  N   UNL     1      27.208  45.037  52.860  1.00  0.00    -0.321 N 
HETATM    2  C   UNL     1      28.215  44.087  52.861  1.00  0.00     0.280 C 
HETATM    3  O   UNL     1      28.422  43.268  51.973  1.00  0.00    -0.265 OA
HETATM    4  H   UNL     1      27.204  45.648  53.671  1.00  0.00     0.169 HD
ENDROOT
BRANCH   1   5
HETATM    5  C   UNL     1      26.188  45.226  51.911  1.00  0.00     0.035 A 
HETATM    6  C   UNL     1      25.148  44.320  51.691  1.00  0.00     0.030 A 
HETATM    7  C   UNL     1      24.143  44.600  50.756  1.00  0.00     0.019 A 
HETATM    8  C   UNL     1      24.171  45.794  50.031  1.00  0.00     0.032 A 
HETATM    9  C   UNL     1      25.226  46.690  50.222  1.00  0.00     0.019 A 
HETATM   10  C   UNL     1      26.225  46.409  51.161  1.00  0.00     0.030 A 
BRANCH   8  11
HETATM   11  C   UNL     1      23.109  46.142  49.048  1.00  0.00     0.251 C 
HETATM   12  N   UNL     1      22.553  47.399  49.174  1.00  0.00    -0.361 N 
HETATM   13  C   UNL     1      21.605  47.878  48.202  1.00  0.00     0.149 C 
HETATM   14  H   UNL     1      23.014  48.079  49.762  1.00  0.00     0.162 HD
HETATM   15  O   UNL     1      22.804  45.350  48.164  1.00  0.00    -0.268 OA
ENDBRANCH   8  11
ENDBRANCH   1   5
BRANCH   2  16
HETATM   16  C   UNL     1      29.030  44.138  54.061  1.00  0.00     0.144 A 
HETATM   17  O   UNL     1      28.861  45.172  54.948  1.00  0.00    -0.304 OA
HETATM   18  C   UNL     1      29.717  44.955  55.984  1.00  0.00     0.086 A 
HETATM   19  C   UNL     1      30.449  43.792  55.774  1.00  0.00     0.001 A 
HETATM   20  C   UNL     1      29.850  45.769  57.106  1.00  0.00     0.038 A 
HETATM   21  C   UNL     1      30.005  43.277  54.530  1.00  0.00     0.057 A 
HETATM   22  C   UNL     1      31.386  43.401  56.747  1.00  0.00     0.014 A 
HETATM   23  C   UNL     1      31.540  44.199  57.890  1.00  0.00     0.001 A 
HETATM   24  C   UNL     1      30.785  45.362  58.064  1.00  0.00     0.003 A 
ENDBRANCH   2  16
TORSDOF 3
ENDMDL
MODEL 4
REMARK VINA RESULT:      -8.4      1.513      2.099
REMARK  3 active torsions:
REMARK  status: ('A' for Active; 'I' for Inactive)
REMARK       I    between atoms: N_2  and  C_3 
REMARK    1  A    between atoms: C_3  and  C_4 
REMARK    2  A    between atoms: C_7  and  N_8 
REMARK       I    between atoms: N_8  and  C_9 
REMARK    3  A    between atoms: C_9  and  C_10 
ROOT
HETATM    1  N   UNL     1      26.002  45.639  51.811  1.00  0.00    -0.321 N 
HETATM    2  C   UNL     1      25.791  44.935  52.984  1.00  0.00     0.280 C 
HETATM    3  O   UNL     1      24.726  44.444  53.338  1.00  0.00    -0.265 OA
HETATM    4  H   UNL     1      26.958  45.952  51.673  1.00  0.00     0.169 HD
ENDROOT
BRANCH   1   5
HETATM    5  C   UNL     1      25.062  46.001  50.829  1.00  0.00     0.035 A 
HETATM    6  C   UNL     1      24.364  45.083  50.042  1.00  0.00     0.030 A 
HETATM    7  C   UNL     1      23.411  45.520  49.112  1.00  0.00     0.019 A 
HETATM    8  C   UNL     1      23.147  46.885  48.965  1.00  0.00     0.032 A 
HETATM    9  C   UNL     1      23.866  47.810  49.726  1.00  0.00     0.019 A 
HETATM   10  C   UNL     1      24.814  47.368  50.656  1.00  0.00     0.030 A 
BRANCH   8  11
HETATM   11  C   UNL     1      22.124  47.389  48.009  1.00  0.00     0.251 C 
HETATM   12  N   UNL     1      21.269  48.359  48.491  1.00  0.00    -0.361 N 
HETATM   13  C   UNL     1      20.322  48.999  47.614  1.00  0.00     0.149 C 
HETATM   14  H   UNL     1      21.496  48.820  49.361  1.00  0.00     0.162 HD
HETATM   15  O   UNL     1      22.102  46.976  46.856  1.00  0.00    -0.268 OA
ENDBRANCH   8  11
ENDBRANCH   1   5
BRANCH   2  16
HETATM   16  C   UNL     1      26.989  44.835  53.798  1.00  0.00     0.144 A 
HETATM   17  O   UNL     1      27.794  43.729  53.681  1.00  0.00    -0.304 OA
HETATM   18  C   UNL     1      28.849  43.911  54.522  1.00  0.00     0.086 A 
HETATM   19  C   UNL     1      28.733  45.122  55.192  1.00  0.00     0.001 A 
HETATM   20  C   UNL     1      29.907  43.022  54.694  1.00  0.00     0.038 A 
HETATM   21  C   UNL     1      27.529  45.707  54.725  1.00  0.00     0.057 A 
HETATM   22  C   UNL     1      29.739  45.486  56.105  1.00  0.00     0.014 A 
HETATM   23  C   UNL     1      30.820  44.612  56.297  1.00  0.00     0.001 A 
HETATM   24  C   UNL     1      30.900  43.402  55.604  1.00  0.00     0.003 A 
ENDBRANCH   2  16
TORSDOF 3
ENDMDL
MODEL 5
REMARK VINA RESULT:      -8.3      3.876     10.168
REMARK  3 active torsions:
REMARK  status: ('A' for Active; 'I' for Inactive)
REMARK       I    between atoms: N_2  and  C_3 
REMARK    1  A    between atoms: C_3  and  C_4 
REMARK    2  A    between atoms: C_7  and  N_8 
REMARK       I    between atoms: N_8  and  C_9 
REMARK    3  A    between atoms: C_9  and  C_10 
ROOT
HETATM    1  N   UNL     1      22.909  48.072  49.522  1.00  0.00    -0.321 N 
HETATM    2  C   UNL     1      22.812  49.053  48.550  1.00  0.00     0.280 C 
HETATM    3  O   UNL     1      23.633  49.260  47.663  1.00  0.00    -0.265 OA
HETATM    4  H   UNL     1      22.121  48.033  50.161  1.00  0.00     0.169 HD
ENDROOT
BRANCH   1   5
HETATM    5  C   UNL     1      23.964  47.171  49.750  1.00  0.00     0.035 A 
HETATM    6  C   UNL     1      25.119  47.487  50.469  1.00  0.00     0.030 A 
HETATM    7  C   UNL     1      26.109  46.520  50.691  1.00  0.00     0.019 A 
HETATM    8  C   UNL     1      25.949  45.224  50.194  1.00  0.00     0.032 A 
HETATM    9  C   UNL     1      24.812  44.910  49.445  1.00  0.00     0.019 A 
HETATM   10  C   UNL     1      23.823  45.878  49.231  1.00  0.00     0.030 A 
BRANCH   8  11
HETATM   11  C   UNL     1      26.963  44.161  50.430  1.00  0.00     0.251 C 
HETATM   12  N   UNL     1      27.498  44.103  51.701  1.00  0.00    -0.361 N 
HETATM   13  C   UNL     1      28.396  43.038  52.067  1.00  0.00     0.149 C 
HETATM   14  H   UNL     1      27.047  44.619  52.443  1.00  0.00     0.162 HD
HETATM   15  O   UNL     1      27.248  43.372  49.536  1.00  0.00    -0.268 OA
ENDBRANCH   8  11
ENDBRANCH   1   5
BRANCH   2  16
HETATM   16  C   UNL     1      21.611  49.856  48.685  1.00  0.00     0.144 A 
HETATM   17  O   UNL     1      20.558  49.377  49.424  1.00  0.00    -0.304 OA
HETATM   18  C   UNL     1      19.591  50.335  49.412  1.00  0.00     0.086 A 
HETATM   19  C   UNL     1      20.003  51.431  48.663  1.00  0.00     0.001 A 
HETATM   20  C   UNL     1      18.360  50.249  50.057  1.00  0.00     0.038 A 
HETATM   21  C   UNL     1      21.301  51.112  48.194  1.00  0.00     0.057 A 
HETATM   22  C   UNL     1      19.132  52.529  48.541  1.00  0.00     0.014 A 
HETATM   23  C   UNL     1      17.886  52.473  49.183  1.00  0.00     0.001 A 
HETATM   24  C   UNL     1      17.509  51.351  49.926  1.00  0.00     0.003 A 
ENDBRANCH   2  16
TORSDOF 3
ENDMDL
MODEL 6
REMARK VINA RESULT:      -8.3      2.066      9.340
REMARK  3 active torsions:
REMARK  status: ('A' for Active; 'I' for Inactive)
REMARK       I    between atoms: N_2  and  C_3 
REMARK    1  A    between atoms: C_3  and  C_4 
REMARK    2  A    between atoms: C_7  and  N_8 
REMARK       I    between atoms: N_8  and  C_9 
REMARK    3  A    between atoms: C_9  and  C_10 
ROOT
HETATM    1  N   UNL     1      24.937  46.961  51.408  1.00  0.00    -0.321 N 
HETATM    2  C   UNL     1      25.184  47.544  50.177  1.00  0.00     0.280 C 
HETATM    3  O   UNL     1      26.278  47.610  49.626  1.00  0.00    -0.265 OA
HETATM    4  H   UNL     1      23.964  46.978  51.695  1.00  0.00     0.169 HD
ENDROOT
BRANCH   1   5
HETATM    5  C   UNL     1      25.860  46.397  52.307  1.00  0.00     0.035 A 
HETATM    6  C   UNL     1      26.426  45.129  52.152  1.00  0.00     0.030 A 
HETATM    7  C   UNL     1      27.371  44.653  53.070  1.00  0.00     0.019 A 
HETATM    8  C   UNL     1      27.760  45.445  54.154  1.00  0.00     0.032 A 
HETATM    9  C   UNL     1      27.173  46.700  54.333  1.00  0.00     0.019 A 
HETATM   10  C   UNL     1      26.233  47.174  53.411  1.00  0.00     0.030 A 
BRANCH   8  11
HETATM   11  C   UNL     1      28.780  44.989  55.135  1.00  0.00     0.251 C 
HETATM   12  N   UNL     1      29.550  43.908  54.754  1.00  0.00    -0.361 N 
HETATM   13  C   UNL     1      30.644  43.463  55.578  1.00  0.00     0.149 C 
HETATM   14  H   UNL     1      29.537  43.619  53.785  1.00  0.00     0.162 HD
HETATM   15  O   UNL     1      28.931  45.590  56.193  1.00  0.00    -0.268 OA
ENDBRANCH   8  11
ENDBRANCH   1   5
BRANCH   2  16
HETATM   16  C   UNL     1      23.988  48.104  49.574  1.00  0.00     0.144 A 
HETATM   17  O   UNL     1      23.734  49.447  49.702  1.00  0.00    -0.304 OA
HETATM   18  C   UNL     1      22.583  49.704  49.022  1.00  0.00     0.086 A 
HETATM   19  C   UNL     1      22.082  48.537  48.459  1.00  0.00     0.001 A 
HETATM   20  C   UNL     1      21.983  50.953  48.893  1.00  0.00     0.038 A 
HETATM   21  C   UNL     1      22.989  47.511  48.825  1.00  0.00     0.057 A 
HETATM   22  C   UNL     1      20.894  48.607  47.709  1.00  0.00     0.014 A 
HETATM   23  C   UNL     1      20.267  49.853  47.558  1.00  0.00     0.001 A 
HETATM   24  C   UNL     1      20.804  51.004  48.141  1.00  0.00     0.003 A 
ENDBRANCH   2  16
TORSDOF 3
ENDMDL
MODEL 7
REMARK VINA RESULT:      -8.1      3.615      4.157
REMARK  3 active torsions:
REMARK  status: ('A' for Active; 'I' for Inactive)
REMARK       I    between atoms: N_2  and  C_3 
REMARK    1  A    between atoms: C_3  and  C_4 
REMARK    2  A    between atoms: C_7  and  N_8 
REMARK       I    between atoms: N_8  and  C_9 
REMARK    3  A    between atoms: C_9  and  C_10 
ROOT
HETATM    1  N   UNL     1      26.494  42.939  51.987  1.00  0.00    -0.321 N 
HETATM    2  C   UNL     1      27.512  43.865  51.846  1.00  0.00     0.280 C 
HETATM    3  O   UNL     1      27.702  44.571  50.861  1.00  0.00    -0.265 OA
HETATM    4  H   UNL     1      26.479  42.462  52.884  1.00  0.00     0.169 HD
ENDROOT
BRANCH   1   5
HETATM    5  C   UNL     1      25.524  42.557  51.043  1.00  0.00     0.035 A 
HETATM    6  C   UNL     1      24.256  43.135  50.949  1.00  0.00     0.030 A 
HETATM    7  C   UNL     1      23.359  42.728  49.953  1.00  0.00     0.019 A 
HETATM    8  C   UNL     1      23.726  41.738  49.038  1.00  0.00     0.032 A 
HETATM    9  C   UNL     1      24.980  41.132  49.147  1.00  0.00     0.019 A 
HETATM   10  C   UNL     1      25.875  41.544  50.141  1.00  0.00     0.030 A 
BRANCH   8  11
HETATM   11  C   UNL     1      22.814  41.297  47.949  1.00  0.00     0.251 C 
HETATM   12  N   UNL     1      22.956  39.990  47.528  1.00  0.00    -0.361 N 
HETATM   13  C   UNL     1      22.044  39.429  46.565  1.00  0.00     0.149 C 
HETATM   14  H   UNL     1      23.499  39.352  48.094  1.00  0.00     0.162 HD
HETATM   15  O   UNL     1      21.966  42.063  47.506  1.00  0.00    -0.268 OA
ENDBRANCH   8  11
ENDBRANCH   1   5
BRANCH   2  16
HETATM   16  C   UNL     1      28.380  43.923  53.008  1.00  0.00     0.144 A 
HETATM   17  O   UNL     1      28.273  44.980  53.878  1.00  0.00    -0.304 OA
HETATM   18  C   UNL     1      29.168  44.765  54.881  1.00  0.00     0.086 A 
HETATM   19  C   UNL     1      29.863  43.581  54.666  1.00  0.00     0.001 A 
HETATM   20  C   UNL     1      29.368  45.599  55.978  1.00  0.00     0.038 A 
HETATM   21  C   UNL     1      29.354  43.049  53.455  1.00  0.00     0.057 A 
HETATM   22  C   UNL     1      30.832  43.189  55.607  1.00  0.00     0.014 A 
HETATM   23  C   UNL     1      31.053  44.008  56.725  1.00  0.00     0.001 A 
HETATM   24  C   UNL     1      30.333  45.191  56.904  1.00  0.00     0.003 A 
ENDBRANCH   2  16
TORSDOF 3
ENDMDL
MODEL 8
REMARK VINA RESULT:      -8.0      6.624      7.520
REMARK  3 active torsions:
REMARK  status: ('A' for Active; 'I' for Inactive)
REMARK       I    between atoms: N_2  and  C_3 
REMARK    1  A    between atoms: C_3  and  C_4 
REMARK    2  A    between atoms: C_7  and  N_8 
REMARK       I    between atoms: N_8  and  C_9 
REMARK    3  A    between atoms: C_9  and  C_10 
ROOT
HETATM    1  N   UNL     1      28.833  40.794  50.825  1.00  0.00    -0.321 N 
HETATM    2  C   UNL     1      27.906  41.549  51.524  1.00  0.00     0.280 C 
HETATM    3  O   UNL     1      26.702  41.584  51.300  1.00  0.00    -0.265 OA
HETATM    4  H   UNL     1      29.785  40.873  51.168  1.00  0.00     0.169 HD
ENDROOT
BRANCH   1   5
HETATM    5  C   UNL     1      28.624  39.983  49.696  1.00  0.00     0.035 A 
HETATM    6  C   UNL     1      28.282  40.474  48.434  1.00  0.00     0.030 A 
HETATM    7  C   UNL     1      28.131  39.604  47.346  1.00  0.00     0.019 A 
HETATM    8  C   UNL     1      28.325  38.230  47.513  1.00  0.00     0.032 A 
HETATM    9  C   UNL     1      28.635  37.729  48.779  1.00  0.00     0.019 A 
HETATM   10  C   UNL     1      28.789  38.602  49.862  1.00  0.00     0.030 A 
BRANCH   8  11
HETATM   11  C   UNL     1      28.202  37.276  46.378  1.00  0.00     0.251 C 
HETATM   12  N   UNL     1      28.034  35.948  46.717  1.00  0.00    -0.361 N 
HETATM   13  C   UNL     1      27.785  34.961  45.698  1.00  0.00     0.149 C 
HETATM   14  H   UNL     1      27.797  35.715  47.671  1.00  0.00     0.162 HD
HETATM   15  O   UNL     1      28.209  37.686  45.224  1.00  0.00    -0.268 OA
ENDBRANCH   8  11
ENDBRANCH   1   5
BRANCH   2  16
HETATM   16  C   UNL     1      28.512  42.337  52.582  1.00  0.00     0.144 A 
HETATM   17  O   UNL     1      27.924  43.516  52.965  1.00  0.00    -0.304 OA
HETATM   18  C   UNL     1      28.671  44.024  53.985  1.00  0.00     0.086 A 
HETATM   19  C   UNL     1      29.745  43.187  54.262  1.00  0.00     0.001 A 
HETATM   20  C   UNL     1      28.407  45.208  54.668  1.00  0.00     0.038 A 
HETATM   21  C   UNL     1      29.639  42.107  53.350  1.00  0.00     0.057 A 
HETATM   22  C   UNL     1      30.630  43.547  55.295  1.00  0.00     0.014 A 
HETATM   23  C   UNL     1      30.388  44.733  56.004  1.00  0.00     0.001 A 
HETATM   24  C   UNL     1      29.296  45.548  55.694  1.00  0.00     0.003 A 
ENDBRANCH   2  16
TORSDOF 3
ENDMDL
MODEL 9
REMARK VINA RESULT:      -7.9     16.030     17.685
REMARK  3 active torsions:
REMARK  status: ('A' for Active; 'I' for Inactive)
REMARK       I    between atoms: N_2  and  C_3 
REMARK    1  A    between atoms: C_3  and  C_4 
REMARK    2  A    between atoms: C_7  and  N_8 
REMARK       I    between atoms: N_8  and  C_9 
REMARK    3  A    between atoms: C_9  and  C_10 
ROOT
HETATM    1  N   UNL     1      38.585  46.252  64.709  1.00  0.00    -0.321 N 
HETATM    2  C   UNL     1      37.705  45.529  63.923  1.00  0.00     0.280 C 
HETATM    3  O   UNL     1      36.678  45.966  63.416  1.00  0.00    -0.265 OA
HETATM    4  H   UNL     1      39.397  45.730  65.023  1.00  0.00     0.169 HD
ENDROOT
BRANCH   1   5
HETATM    5  C   UNL     1      38.469  47.582  65.151  1.00  0.00     0.035 A 
HETATM    6  C   UNL     1      37.412  48.057  65.930  1.00  0.00     0.030 A 
HETATM    7  C   UNL     1      37.389  49.388  66.366  1.00  0.00     0.019 A 
HETATM    8  C   UNL     1      38.429  50.258  66.028  1.00  0.00     0.032 A 
HETATM    9  C   UNL     1      39.473  49.798  65.221  1.00  0.00     0.019 A 
HETATM   10  C   UNL     1      39.495  48.466  64.791  1.00  0.00     0.030 A 
BRANCH   8  11
HETATM   11  C   UNL     1      38.457  51.670  66.493  1.00  0.00     0.251 C 
HETATM   12  N   UNL     1      37.411  52.063  67.303  1.00  0.00    -0.361 N 
HETATM   13  C   UNL     1      37.405  53.372  67.904  1.00  0.00     0.149 C 
HETATM   14  H   UNL     1      36.811  51.355  67.703  1.00  0.00     0.162 HD
HETATM   15  O   UNL     1      39.394  52.400  66.193  1.00  0.00    -0.268 OA
ENDBRANCH   8  11
ENDBRANCH   1   5
BRANCH   2  16
HETATM   16  C   UNL     1      38.115  44.147  63.752  1.00  0.00     0.144 A 
HETATM   17  O   UNL     1      37.969  43.266  64.795  1.00  0.00    -0.304 OA
HETATM   18  C   UNL     1      38.395  42.050  64.354  1.00  0.00     0.086 A 
HETATM   19  C   UNL     1      38.824  42.134  63.036  1.00  0.00     0.001 A 
HETATM   20  C   UNL     1      38.400  40.876  65.104  1.00  0.00     0.038 A 
HETATM   21  C   UNL     1      38.647  43.489  62.658  1.00  0.00     0.057 A 
HETATM   22  C   UNL     1      39.297  40.969  62.406  1.00  0.00     0.014 A 
HETATM   23  C   UNL     1      39.311  39.770  63.134  1.00  0.00     0.001 A 
HETATM   24  C   UNL     1      38.870  39.727  64.459  1.00  0.00     0.003 A 
ENDBRANCH   2  16
TORSDOF 3
ENDMDL
MODEL 10
REMARK VINA RESULT:      -7.7      3.346      9.711
REMARK  3 active torsions:
REMARK  status: ('A' for Active; 'I' for Inactive)
REMARK       I    between atoms: N_2  and  C_3 
REMARK    1  A    between atoms: C_3  and  C_4 
REMARK    2  A    between atoms: C_7  and  N_8 
REMARK       I    between atoms: N_8  and  C_9 
REMARK    3  A    between atoms: C_9  and  C_10 
ROOT
HETATM    1  N   UNL     1      23.676  47.068  49.794  1.00  0.00    -0.321 N 
HETATM    2  C   UNL     1      23.931  48.382  49.444  1.00  0.00     0.280 C 
HETATM    3  O   UNL     1      25.041  48.894  49.358  1.00  0.00    -0.265 OA
HETATM    4  H   UNL     1      22.693  46.813  49.789  1.00  0.00     0.169 HD
ENDROOT
BRANCH   1   5
HETATM    5  C   UNL     1      24.593  46.075  50.186  1.00  0.00     0.035 A 
HETATM    6  C   UNL     1      25.193  45.175  49.303  1.00  0.00     0.030 A 
HETATM    7  C   UNL     1      26.130  44.241  49.764  1.00  0.00     0.019 A 
HETATM    8  C   UNL     1      26.476  44.202  51.117  1.00  0.00     0.032 A 
HETATM    9  C   UNL     1      25.854  45.077  52.011  1.00  0.00     0.019 A 
HETATM   10  C   UNL     1      24.923  46.012  51.545  1.00  0.00     0.030 A 
BRANCH   8  11
HETATM   11  C   UNL     1      27.485  43.244  51.643  1.00  0.00     0.251 C 
HETATM   12  N   UNL     1      28.640  43.799  52.158  1.00  0.00    -0.361 N 
HETATM   13  C   UNL     1      29.626  42.969  52.800  1.00  0.00     0.149 C 
HETATM   14  H   UNL     1      28.661  44.792  52.345  1.00  0.00     0.162 HD
HETATM   15  O   UNL     1      27.252  42.041  51.644  1.00  0.00    -0.268 OA
ENDBRANCH   8  11
ENDBRANCH   1   5
BRANCH   2  16
HETATM   16  C   UNL     1      22.717  49.137  49.189  1.00  0.00     0.144 A 
HETATM   17  O   UNL     1      21.516  48.478  49.113  1.00  0.00    -0.304 OA
HETATM   18  C   UNL     1      20.555  49.420  48.903  1.00  0.00     0.086 A 
HETATM   19  C   UNL     1      21.123  50.686  48.834  1.00  0.00     0.001 A 
HETATM   20  C   UNL     1      19.191  49.169  48.780  1.00  0.00     0.038 A 
HETATM   21  C   UNL     1      22.516  50.494  49.012  1.00  0.00     0.057 A 
HETATM   22  C   UNL     1      20.280  51.792  48.626  1.00  0.00     0.014 A 
HETATM   23  C   UNL     1      18.900  51.571  48.501  1.00  0.00     0.001 A 
HETATM   24  C   UNL     1      18.368  50.282  48.576  1.00  0.00     0.003 A 
ENDBRANCH   2  16
TORSDOF 3
ENDMDL
