MODEL 1
REMARK VINA RESULT:      -9.3      0.000      0.000
REMARK  3 active torsions:
REMARK  status: ('A' for Active; 'I' for Inactive)
REMARK    1  A    between atoms: C_2  and  N_3 
REMARK    2  A    between atoms: C_2  and  C_10 
REMARK    3  A    between atoms: C_13  and  C_14 
ROOT
HETATM    1  C   UNL     1      25.831  46.413  52.075  1.00  0.00    -0.028 A 
HETATM    2  C   UNL     1      26.445  45.150  52.097  1.00  0.00     0.010 A 
HETATM    3  C   UNL     1      27.350  44.806  53.111  1.00  0.00     0.013 A 
HETATM    4  C   UNL     1      27.665  45.702  54.143  1.00  0.00    -0.024 A 
HETATM    5  C   UNL     1      27.024  46.950  54.132  1.00  0.00     0.013 A 
HETATM    6  C   UNL     1      26.127  47.304  53.116  1.00  0.00     0.010 A 
ENDROOT
BRANCH   4   7
HETATM    7  C   UNL     1      28.654  45.362  55.183  1.00  0.00    -0.006 A 
HETATM    8  C   UNL     1      28.720  46.086  56.385  1.00  0.00     0.131 A 
HETATM    9  N   UNL     1      29.571  45.881  57.417  1.00  0.00    -0.239 NA
HETATM   10  C   UNL     1      30.439  44.867  57.225  1.00  0.00     0.177 A 
HETATM   11  C   UNL     1      30.461  44.095  56.070  1.00  0.00     0.082 A 
HETATM   12  N   UNL     1      31.397  44.465  58.111  1.00  0.00    -0.222 NA
HETATM   13  N   UNL     1      31.478  43.202  56.287  1.00  0.00    -0.348 N 
HETATM   14  C   UNL     1      29.573  44.313  55.015  1.00  0.00     0.047 A 
HETATM   15  H   UNL     1      31.791  42.479  55.654  1.00  0.00     0.167 HD
HETATM   16  C   UNL     1      32.008  43.464  57.521  1.00  0.00     0.210 A 
ENDBRANCH   4   7
BRANCH   1  17
HETATM   17  C   UNL     1      24.876  46.761  50.943  1.00  0.00     0.217 C 
HETATM   18  C   UNL     1      24.539  45.595  50.009  1.00  0.00     0.045 C 
BRANCH  17  19
HETATM   19  N   UNL     1      25.340  47.995  50.166  1.00  0.00    -0.063 N 
HETATM   20  H   UNL     1      25.433  48.720  50.890  1.00  0.00     0.280 HD
HETATM   21  C   UNL     1      26.705  47.879  49.525  1.00  0.00     0.235 C 
HETATM   22  C   UNL     1      27.132  49.242  48.990  1.00  0.00     0.028 C 
HETATM   23  C   UNL     1      26.105  49.813  48.020  1.00  0.00     0.003 C 
HETATM   24  C   UNL     1      24.719  49.861  48.654  1.00  0.00     0.028 C 
HETATM   25  C   UNL     1      24.299  48.499  49.190  1.00  0.00     0.235 C 
ENDBRANCH  17  19
ENDBRANCH   1  17
TORSDOF 3
ENDMDL
MODEL 2
REMARK VINA RESULT:      -8.8      1.839      8.732
REMARK  3 active torsions:
REMARK  status: ('A' for Active; 'I' for Inactive)
REMARK    1  A    between atoms: C_2  and  N_3 
REMARK    2  A    between atoms: C_2  and  C_10 
REMARK    3  A    between atoms: C_13  and  C_14 
ROOT
HETATM    1  C   UNL     1      26.927  44.856  52.839  1.00  0.00    -0.028 A 
HETATM    2  C   UNL     1      26.997  44.629  51.455  1.00  0.00     0.010 A 
HETATM    3  C   UNL     1      26.527  45.584  50.542  1.00  0.00     0.013 A 
HETATM    4  C   UNL     1      25.983  46.802  50.977  1.00  0.00    -0.024 A 
HETATM    5  C   UNL     1      25.946  47.036  52.359  1.00  0.00     0.013 A 
HETATM    6  C   UNL     1      26.404  46.081  53.276  1.00  0.00     0.010 A 
ENDROOT
BRANCH   4   7
HETATM    7  C   UNL     1      25.442  47.788  50.022  1.00  0.00    -0.006 A 
HETATM    8  C   UNL     1      26.293  48.635  49.293  1.00  0.00     0.131 A 
HETATM    9  N   UNL     1      25.932  49.575  48.389  1.00  0.00    -0.239 NA
HETATM   10  C   UNL     1      24.601  49.684  48.206  1.00  0.00     0.177 A 
HETATM   11  C   UNL     1      23.675  48.899  48.881  1.00  0.00     0.082 A 
HETATM   12  N   UNL     1      23.987  50.558  47.355  1.00  0.00    -0.222 NA
HETATM   13  N   UNL     1      22.464  49.333  48.408  1.00  0.00    -0.348 N 
HETATM   14  C   UNL     1      24.061  47.927  49.806  1.00  0.00     0.047 A 
HETATM   15  H   UNL     1      21.553  48.991  48.679  1.00  0.00     0.167 HD
HETATM   16  C   UNL     1      22.703  50.327  47.498  1.00  0.00     0.210 A 
ENDBRANCH   4   7
BRANCH   1  17
HETATM   17  C   UNL     1      27.421  43.784  53.798  1.00  0.00     0.217 C 
HETATM   18  C   UNL     1      26.387  43.321  54.829  1.00  0.00     0.045 C 
BRANCH  17  19
HETATM   19  N   UNL     1      28.743  44.179  54.460  1.00  0.00    -0.063 N 
HETATM   20  H   UNL     1      29.252  44.674  53.716  1.00  0.00     0.280 HD
HETATM   21  C   UNL     1      28.625  45.167  55.600  1.00  0.00     0.235 C 
HETATM   22  C   UNL     1      30.016  45.642  56.006  1.00  0.00     0.028 C 
HETATM   23  C   UNL     1      30.926  44.475  56.369  1.00  0.00     0.003 C 
HETATM   24  C   UNL     1      30.983  43.452  55.239  1.00  0.00     0.028 C 
HETATM   25  C   UNL     1      29.592  42.984  54.835  1.00  0.00     0.235 C 
ENDBRANCH  17  19
ENDBRANCH   1  17
TORSDOF 3
ENDMDL
MODEL 3
REMARK VINA RESULT:      -8.3      7.047     11.186
REMARK  3 active torsions:
REMARK  status: ('A' for Active; 'I' for Inactive)
REMARK    1  A    between atoms: C_2  and  N_3 
REMARK    2  A    between atoms: C_2  and  C_10 
REMARK    3  A    between atoms: C_13  and  C_14 
ROOT
HETATM    1  C   UNL     1      18.073  51.502  47.275  1.00  0.00    -0.028 A 
HETATM    2  C   UNL     1      18.526  50.239  46.863  1.00  0.00     0.010 A 
HETATM    3  C   UNL     1      19.801  49.777  47.221  1.00  0.00     0.013 A 
HETATM    4  C   UNL     1      20.662  50.553  48.010  1.00  0.00    -0.024 A 
HETATM    5  C   UNL     1      20.191  51.801  48.446  1.00  0.00     0.013 A 
HETATM    6  C   UNL     1      18.922  52.271  48.083  1.00  0.00     0.010 A 
ENDROOT
BRANCH   4   7
HETATM    7  C   UNL     1      22.023  50.093  48.347  1.00  0.00    -0.006 A 
HETATM    8  C   UNL     1      22.238  49.149  49.365  1.00  0.00     0.131 A 
HETATM    9  N   UNL     1      23.425  48.642  49.771  1.00  0.00    -0.239 NA
HETATM   10  C   UNL     1      24.492  49.131  49.106  1.00  0.00     0.177 A 
HETATM   11  C   UNL     1      24.387  50.071  48.089  1.00  0.00     0.082 A 
HETATM   12  N   UNL     1      25.793  48.783  49.331  1.00  0.00    -0.222 NA
HETATM   13  N   UNL     1      25.684  50.286  47.701  1.00  0.00    -0.348 N 
HETATM   14  C   UNL     1      23.156  50.581  47.674  1.00  0.00     0.047 A 
HETATM   15  H   UNL     1      26.000  50.917  46.978  1.00  0.00     0.167 HD
HETATM   16  C   UNL     1      26.489  49.494  48.474  1.00  0.00     0.210 A 
ENDBRANCH   4   7
BRANCH   1  17
HETATM   17  C   UNL     1      16.695  51.979  46.844  1.00  0.00     0.217 C 
HETATM   18  C   UNL     1      16.671  52.769  45.532  1.00  0.00     0.045 C 
BRANCH  17  19
HETATM   19  N   UNL     1      15.973  52.726  47.969  1.00  0.00    -0.063 N 
HETATM   20  H   UNL     1      16.664  53.421  48.285  1.00  0.00     0.280 HD
HETATM   21  C   UNL     1      14.761  53.523  47.540  1.00  0.00     0.235 C 
HETATM   22  C   UNL     1      14.287  54.389  48.702  1.00  0.00     0.028 C 
HETATM   23  C   UNL     1      13.999  53.556  49.945  1.00  0.00     0.003 C 
HETATM   24  C   UNL     1      15.206  52.706  50.327  1.00  0.00     0.028 C 
HETATM   25  C   UNL     1      15.677  51.846  49.163  1.00  0.00     0.235 C 
ENDBRANCH  17  19
ENDBRANCH   1  17
TORSDOF 3
ENDMDL
MODEL 4
REMARK VINA RESULT:      -8.1      4.519      6.170
REMARK  3 active torsions:
REMARK  status: ('A' for Active; 'I' for Inactive)
REMARK    1  A    between atoms: C_2  and  N_3 
REMARK    2  A    between atoms: C_2  and  C_10 
REMARK    3  A    between atoms: C_13  and  C_14 
ROOT
HETATM    1  C   UNL     1      27.630  41.969  51.035  1.00  0.00    -0.028 A 
HETATM    2  C   UNL     1      27.507  43.357  51.209  1.00  0.00     0.010 A 
HETATM    3  C   UNL     1      28.042  43.992  52.339  1.00  0.00     0.013 A 
HETATM    4  C   UNL     1      28.726  43.269  53.327  1.00  0.00    -0.024 A 
HETATM    5  C   UNL     1      28.873  41.887  53.131  1.00  0.00     0.013 A 
HETATM    6  C   UNL     1      28.332  41.245  52.009  1.00  0.00     0.010 A 
ENDROOT
BRANCH   4   7
HETATM    7  C   UNL     1      29.245  43.925  54.542  1.00  0.00    -0.006 A 
HETATM    8  C   UNL     1      28.735  45.162  54.972  1.00  0.00     0.131 A 
HETATM    9  N   UNL     1      29.116  45.868  56.061  1.00  0.00    -0.239 NA
HETATM   10  C   UNL     1      30.101  45.291  56.778  1.00  0.00     0.177 A 
HETATM   11  C   UNL     1      30.678  44.075  56.435  1.00  0.00     0.082 A 
HETATM   12  N   UNL     1      30.661  45.805  57.913  1.00  0.00    -0.222 NA
HETATM   13  N   UNL     1      31.618  43.866  57.410  1.00  0.00    -0.348 N 
HETATM   14  C   UNL     1      30.271  43.352  55.312  1.00  0.00     0.047 A 
HETATM   15  H   UNL     1      32.243  43.076  57.486  1.00  0.00     0.167 HD
HETATM   16  C   UNL     1      31.571  44.930  58.270  1.00  0.00     0.210 A 
ENDBRANCH   4   7
BRANCH   1  17
HETATM   17  C   UNL     1      27.013  41.311  49.810  1.00  0.00     0.217 C 
HETATM   18  C   UNL     1      25.482  41.304  49.790  1.00  0.00     0.045 C 
BRANCH  17  19
HETATM   19  N   UNL     1      27.590  39.916  49.562  1.00  0.00    -0.063 N 
HETATM   20  H   UNL     1      27.904  39.610  50.493  1.00  0.00     0.280 HD
HETATM   21  C   UNL     1      26.591  38.875  49.106  1.00  0.00     0.235 C 
HETATM   22  C   UNL     1      27.248  37.500  49.121  1.00  0.00     0.028 C 
HETATM   23  C   UNL     1      28.513  37.470  48.273  1.00  0.00     0.003 C 
HETATM   24  C   UNL     1      29.484  38.567  48.697  1.00  0.00     0.028 C 
HETATM   25  C   UNL     1      28.822  39.938  48.683  1.00  0.00     0.235 C 
ENDBRANCH  17  19
ENDBRANCH   1  17
TORSDOF 3
ENDMDL
MODEL 5
REMARK VINA RESULT:      -8.1      6.316     10.112
REMARK  3 active torsions:
REMARK  status: ('A' for Active; 'I' for Inactive)
REMARK    1  A    between atoms: C_2  and  N_3 
REMARK    2  A    between atoms: C_2  and  C_10 
REMARK    3  A    between atoms: C_13  and  C_14 
ROOT
HETATM    1  C   UNL     1      19.144  51.102  47.845  1.00  0.00    -0.028 A 
HETATM    2  C   UNL     1      20.057  51.870  48.586  1.00  0.00     0.010 A 
HETATM    3  C   UNL     1      21.352  51.399  48.846  1.00  0.00     0.013 A 
HETATM    4  C   UNL     1      21.785  50.154  48.366  1.00  0.00    -0.024 A 
HETATM    5  C   UNL     1      20.879  49.407  47.598  1.00  0.00     0.013 A 
HETATM    6  C   UNL     1      19.581  49.868  47.344  1.00  0.00     0.010 A 
ENDROOT
BRANCH   4   7
HETATM    7  C   UNL     1      23.129  49.633  48.679  1.00  0.00    -0.006 A 
HETATM    8  C   UNL     1      23.298  48.531  49.534  1.00  0.00     0.131 A 
HETATM    9  N   UNL     1      24.466  47.954  49.902  1.00  0.00    -0.239 NA
HETATM   10  C   UNL     1      25.561  48.537  49.375  1.00  0.00     0.177 A 
HETATM   11  C   UNL     1      25.503  49.634  48.525  1.00  0.00     0.082 A 
HETATM   12  N   UNL     1      26.851  48.146  49.595  1.00  0.00    -0.222 NA
HETATM   13  N   UNL     1      26.816  49.900  48.235  1.00  0.00    -0.348 N 
HETATM   14  C   UNL     1      24.291  50.216  48.147  1.00  0.00     0.047 A 
HETATM   15  H   UNL     1      27.164  50.640  47.642  1.00  0.00     0.167 HD
HETATM   16  C   UNL     1      27.584  48.984  48.900  1.00  0.00     0.210 A 
ENDBRANCH   4   7
BRANCH   1  17
HETATM   17  C   UNL     1      17.739  51.635  47.607  1.00  0.00     0.217 C 
HETATM   18  C   UNL     1      17.112  52.346  48.810  1.00  0.00     0.045 C 
BRANCH  17  19
HETATM   19  N   UNL     1      16.812  50.559  47.038  1.00  0.00    -0.063 N 
HETATM   20  H   UNL     1      17.455  49.817  46.731  1.00  0.00     0.280 HD
HETATM   21  C   UNL     1      15.886  49.907  48.041  1.00  0.00     0.235 C 
HETATM   22  C   UNL     1      15.195  48.712  47.394  1.00  0.00     0.028 C 
HETATM   23  C   UNL     1      14.453  49.111  46.124  1.00  0.00     0.003 C 
HETATM   24  C   UNL     1      15.381  49.827  45.148  1.00  0.00     0.028 C 
HETATM   25  C   UNL     1      16.070  51.017  45.801  1.00  0.00     0.235 C 
ENDBRANCH  17  19
ENDBRANCH   1  17
TORSDOF 3
ENDMDL
MODEL 6
REMARK VINA RESULT:      -7.8      2.738      8.736
REMARK  3 active torsions:
REMARK  status: ('A' for Active; 'I' for Inactive)
REMARK    1  A    between atoms: C_2  and  N_3 
REMARK    2  A    between atoms: C_2  and  C_10 
REMARK    3  A    between atoms: C_13  and  C_14 
ROOT
HETATM    1  C   UNL     1      26.483  45.818  53.889  1.00  0.00    -0.028 A 
HETATM    2  C   UNL     1      26.263  46.670  52.795  1.00  0.00     0.010 A 
HETATM    3  C   UNL     1      25.440  46.279  51.730  1.00  0.00     0.013 A 
HETATM    4  C   UNL     1      24.799  45.031  51.723  1.00  0.00    -0.024 A 
HETATM    5  C   UNL     1      24.998  44.197  52.834  1.00  0.00     0.013 A 
HETATM    6  C   UNL     1      25.828  44.579  53.897  1.00  0.00     0.010 A 
ENDROOT
BRANCH   4   7
HETATM    7  C   UNL     1      23.973  44.595  50.581  1.00  0.00    -0.006 A 
HETATM    8  C   UNL     1      23.464  43.287  50.512  1.00  0.00     0.131 A 
HETATM    9  N   UNL     1      22.697  42.760  49.530  1.00  0.00    -0.239 NA
HETATM   10  C   UNL     1      22.422  43.615  48.524  1.00  0.00     0.177 A 
HETATM   11  C   UNL     1      22.882  44.925  48.494  1.00  0.00     0.082 A 
HETATM   12  N   UNL     1      21.674  43.324  47.419  1.00  0.00    -0.222 NA
HETATM   13  N   UNL     1      22.384  45.425  47.319  1.00  0.00    -0.348 N 
HETATM   14  C   UNL     1      23.667  45.459  49.517  1.00  0.00     0.047 A 
HETATM   15  H   UNL     1      22.519  46.358  46.955  1.00  0.00     0.167 HD
HETATM   16  C   UNL     1      21.670  44.429  46.711  1.00  0.00     0.210 A 
ENDBRANCH   4   7
BRANCH   1  17
HETATM   17  C   UNL     1      27.405  46.266  55.012  1.00  0.00     0.217 C 
HETATM   18  C   UNL     1      28.024  47.654  54.818  1.00  0.00     0.045 C 
BRANCH  17  19
HETATM   19  N   UNL     1      28.467  45.212  55.333  1.00  0.00    -0.063 N 
HETATM   20  H   UNL     1      27.979  44.553  55.954  1.00  0.00     0.280 HD
HETATM   21  C   UNL     1      28.937  44.390  54.153  1.00  0.00     0.235 C 
HETATM   22  C   UNL     1      29.808  43.241  54.650  1.00  0.00     0.028 C 
HETATM   23  C   UNL     1      30.980  43.743  55.484  1.00  0.00     0.003 C 
HETATM   24  C   UNL     1      30.499  44.627  56.630  1.00  0.00     0.028 C 
HETATM   25  C   UNL     1      29.627  45.770  56.129  1.00  0.00     0.235 C 
ENDBRANCH  17  19
ENDBRANCH   1  17
TORSDOF 3
ENDMDL
MODEL 7
REMARK VINA RESULT:      -7.7      2.267      8.618
REMARK  3 active torsions:
REMARK  status: ('A' for Active; 'I' for Inactive)
REMARK    1  A    between atoms: C_2  and  N_3 
REMARK    2  A    between atoms: C_2  and  C_10 
REMARK    3  A    between atoms: C_13  and  C_14 
ROOT
HETATM    1  C   UNL     1      27.586  43.517  52.392  1.00  0.00    -0.028 A 
HETATM    2  C   UNL     1      26.297  43.745  52.901  1.00  0.00     0.010 A 
HETATM    3  C   UNL     1      25.380  44.548  52.208  1.00  0.00     0.013 A 
HETATM    4  C   UNL     1      25.711  45.141  50.981  1.00  0.00    -0.024 A 
HETATM    5  C   UNL     1      26.989  44.883  50.463  1.00  0.00     0.013 A 
HETATM    6  C   UNL     1      27.913  44.090  51.155  1.00  0.00     0.010 A 
ENDROOT
BRANCH   4   7
HETATM    7  C   UNL     1      24.767  46.028  50.274  1.00  0.00    -0.006 A 
HETATM    8  C   UNL     1      24.787  47.418  50.477  1.00  0.00     0.131 A 
HETATM    9  N   UNL     1      23.986  48.340  49.896  1.00  0.00    -0.239 NA
HETATM   10  C   UNL     1      23.076  47.825  49.044  1.00  0.00     0.177 A 
HETATM   11  C   UNL     1      22.969  46.465  48.779  1.00  0.00     0.082 A 
HETATM   12  N   UNL     1      22.154  48.544  48.340  1.00  0.00    -0.222 NA
HETATM   13  N   UNL     1      21.937  46.382  47.881  1.00  0.00    -0.348 N 
HETATM   14  C   UNL     1      23.807  45.524  49.380  1.00  0.00     0.047 A 
HETATM   15  H   UNL     1      21.569  45.541  47.463  1.00  0.00     0.167 HD
HETATM   16  C   UNL     1      21.481  47.652  47.651  1.00  0.00     0.210 A 
ENDBRANCH   4   7
BRANCH   1  17
HETATM   17  C   UNL     1      28.562  42.662  53.185  1.00  0.00     0.217 C 
HETATM   18  C   UNL     1      28.056  41.257  53.523  1.00  0.00     0.045 C 
BRANCH  17  19
HETATM   19  N   UNL     1      29.079  43.392  54.427  1.00  0.00    -0.063 N 
HETATM   20  H   UNL     1      28.551  42.965  55.200  1.00  0.00     0.280 HD
HETATM   21  C   UNL     1      30.538  43.161  54.752  1.00  0.00     0.235 C 
HETATM   22  C   UNL     1      30.852  43.751  56.122  1.00  0.00     0.028 C 
HETATM   23  C   UNL     1      30.490  45.229  56.195  1.00  0.00     0.003 C 
HETATM   24  C   UNL     1      29.036  45.458  55.799  1.00  0.00     0.028 C 
HETATM   25  C   UNL     1      28.726  44.864  54.432  1.00  0.00     0.235 C 
ENDBRANCH  17  19
ENDBRANCH   1  17
TORSDOF 3
ENDMDL
MODEL 8
REMARK VINA RESULT:      -7.6      2.371      8.828
REMARK  3 active torsions:
REMARK  status: ('A' for Active; 'I' for Inactive)
REMARK    1  A    between atoms: C_2  and  N_3 
REMARK    2  A    between atoms: C_2  and  C_10 
REMARK    3  A    between atoms: C_13  and  C_14 
ROOT
HETATM    1  C   UNL     1      27.262  43.906  52.272  1.00  0.00    -0.028 A 
HETATM    2  C   UNL     1      27.618  44.519  51.060  1.00  0.00     0.010 A 
HETATM    3  C   UNL     1      26.680  45.253  50.320  1.00  0.00     0.013 A 
HETATM    4  C   UNL     1      25.360  45.412  50.769  1.00  0.00    -0.024 A 
HETATM    5  C   UNL     1      25.020  44.825  51.997  1.00  0.00     0.013 A 
HETATM    6  C   UNL     1      25.950  44.081  52.735  1.00  0.00     0.010 A 
ENDROOT
BRANCH   4   7
HETATM    7  C   UNL     1      24.357  46.141  49.969  1.00  0.00    -0.006 A 
HETATM    8  C   UNL     1      23.462  45.457  49.131  1.00  0.00     0.131 A 
HETATM    9  N   UNL     1      22.497  45.997  48.350  1.00  0.00    -0.239 NA
HETATM   10  C   UNL     1      22.430  47.343  48.406  1.00  0.00     0.177 A 
HETATM   11  C   UNL     1      23.273  48.113  49.197  1.00  0.00     0.082 A 
HETATM   12  N   UNL     1      21.550  48.122  47.712  1.00  0.00    -0.222 NA
HETATM   13  N   UNL     1      22.872  49.401  48.955  1.00  0.00    -0.348 N 
HETATM   14  C   UNL     1      24.260  47.542  50.004  1.00  0.00     0.047 A 
HETATM   15  H   UNL     1      23.264  50.240  49.357  1.00  0.00     0.167 HD
HETATM   16  C   UNL     1      21.839  49.354  48.059  1.00  0.00     0.210 A 
ENDBRANCH   4   7
BRANCH   1  17
HETATM   17  C   UNL     1      28.299  43.095  53.032  1.00  0.00     0.217 C 
HETATM   18  C   UNL     1      27.756  41.831  53.706  1.00  0.00     0.045 C 
BRANCH  17  19
HETATM   19  N   UNL     1      29.095  43.962  54.011  1.00  0.00    -0.063 N 
HETATM   20  H   UNL     1      29.719  44.508  53.403  1.00  0.00     0.280 HD
HETATM   21  C   UNL     1      28.281  44.978  54.781  1.00  0.00     0.235 C 
HETATM   22  C   UNL     1      29.220  45.914  55.534  1.00  0.00     0.028 C 
HETATM   23  C   UNL     1      30.167  45.147  56.448  1.00  0.00     0.003 C 
HETATM   24  C   UNL     1      30.932  44.079  55.674  1.00  0.00     0.028 C 
HETATM   25  C   UNL     1      29.990  43.149  54.921  1.00  0.00     0.235 C 
ENDBRANCH  17  19
ENDBRANCH   1  17
TORSDOF 3
ENDMDL
MODEL 9
REMARK VINA RESULT:      -7.6      1.852      2.766
REMARK  3 active torsions:
REMARK  status: ('A' for Active; 'I' for Inactive)
REMARK    1  A    between atoms: C_2  and  N_3 
REMARK    2  A    between atoms: C_2  and  C_10 
REMARK    3  A    between atoms: C_13  and  C_14 
ROOT
HETATM    1  C   UNL     1      26.251  43.911  51.582  1.00  0.00    -0.028 A 
HETATM    2  C   UNL     1      25.830  44.280  52.869  1.00  0.00     0.010 A 
HETATM    3  C   UNL     1      26.746  44.383  53.926  1.00  0.00     0.013 A 
HETATM    4  C   UNL     1      28.113  44.133  53.733  1.00  0.00    -0.024 A 
HETATM    5  C   UNL     1      28.531  43.797  52.437  1.00  0.00     0.013 A 
HETATM    6  C   UNL     1      27.619  43.682  51.380  1.00  0.00     0.010 A 
ENDROOT
BRANCH   4   7
HETATM    7  C   UNL     1      29.072  44.191  54.852  1.00  0.00    -0.006 A 
HETATM    8  C   UNL     1      30.056  43.202  55.016  1.00  0.00     0.131 A 
HETATM    9  N   UNL     1      30.993  43.135  55.989  1.00  0.00    -0.239 NA
HETATM   10  C   UNL     1      30.934  44.142  56.884  1.00  0.00     0.177 A 
HETATM   11  C   UNL     1      29.996  45.164  56.816  1.00  0.00     0.082 A 
HETATM   12  N   UNL     1      31.763  44.297  57.958  1.00  0.00    -0.222 NA
HETATM   13  N   UNL     1      30.286  45.954  57.898  1.00  0.00    -0.348 N 
HETATM   14  C   UNL     1      29.039  45.226  55.802  1.00  0.00     0.047 A 
HETATM   15  H   UNL     1      29.805  46.797  58.176  1.00  0.00     0.167 HD
HETATM   16  C   UNL     1      31.350  45.392  58.551  1.00  0.00     0.210 A 
ENDBRANCH   4   7
BRANCH   1  17
HETATM   17  C   UNL     1      25.223  43.783  50.467  1.00  0.00     0.217 C 
HETATM   18  C   UNL     1      25.755  43.159  49.174  1.00  0.00     0.045 C 
BRANCH  17  19
HETATM   19  N   UNL     1      24.502  45.107  50.203  1.00  0.00    -0.063 N 
HETATM   20  H   UNL     1      23.880  45.214  51.015  1.00  0.00     0.280 HD
HETATM   21  C   UNL     1      25.386  46.335  50.202  1.00  0.00     0.235 C 
HETATM   22  C   UNL     1      24.517  47.586  50.160  1.00  0.00     0.028 C 
HETATM   23  C   UNL     1      23.572  47.575  48.964  1.00  0.00     0.003 C 
HETATM   24  C   UNL     1      22.734  46.301  48.938  1.00  0.00     0.028 C 
HETATM   25  C   UNL     1      23.607  45.055  48.984  1.00  0.00     0.235 C 
ENDBRANCH  17  19
ENDBRANCH   1  17
TORSDOF 3
ENDMDL
MODEL 10
REMARK VINA RESULT:      -7.6      4.519      8.227
REMARK  3 active torsions:
REMARK  status: ('A' for Active; 'I' for Inactive)
REMARK    1  A    between atoms: C_2  and  N_3 
REMARK    2  A    between atoms: C_2  and  C_10 
REMARK    3  A    between atoms: C_13  and  C_14 
ROOT
HETATM    1  C   UNL     1      27.946  44.368  54.150  1.00  0.00    -0.028 A 
HETATM    2  C   UNL     1      27.854  44.825  52.825  1.00  0.00     0.010 A 
HETATM    3  C   UNL     1      27.793  43.923  51.753  1.00  0.00     0.013 A 
HETATM    4  C   UNL     1      27.810  42.537  51.965  1.00  0.00    -0.024 A 
HETATM    5  C   UNL     1      27.870  42.087  53.293  1.00  0.00     0.013 A 
HETATM    6  C   UNL     1      27.942  42.983  54.367  1.00  0.00     0.010 A 
ENDROOT
BRANCH   4   7
HETATM    7  C   UNL     1      27.798  41.585  50.837  1.00  0.00    -0.006 A 
HETATM    8  C   UNL     1      27.201  41.923  49.611  1.00  0.00     0.131 A 
HETATM    9  N   UNL     1      27.122  41.152  48.502  1.00  0.00    -0.239 NA
HETATM   10  C   UNL     1      27.680  39.932  48.635  1.00  0.00     0.177 A 
HETATM   11  C   UNL     1      28.288  39.499  49.807  1.00  0.00     0.082 A 
HETATM   12  N   UNL     1      27.725  38.971  47.666  1.00  0.00    -0.222 NA
HETATM   13  N   UNL     1      28.707  38.227  49.513  1.00  0.00    -0.348 N 
HETATM   14  C   UNL     1      28.370  40.307  50.942  1.00  0.00     0.047 A 
HETATM   15  H   UNL     1      29.191  37.594  50.133  1.00  0.00     0.167 HD
HETATM   16  C   UNL     1      28.346  37.956  48.221  1.00  0.00     0.210 A 
ENDBRANCH   4   7
BRANCH   1  17
HETATM   17  C   UNL     1      28.038  45.376  55.285  1.00  0.00     0.217 C 
HETATM   18  C   UNL     1      28.237  46.828  54.837  1.00  0.00     0.045 C 
BRANCH  17  19
HETATM   19  N   UNL     1      29.072  44.960  56.334  1.00  0.00    -0.063 N 
HETATM   20  H   UNL     1      28.650  44.135  56.780  1.00  0.00     0.280 HD
HETATM   21  C   UNL     1      30.400  44.491  55.782  1.00  0.00     0.235 C 
HETATM   22  C   UNL     1      31.236  43.897  56.909  1.00  0.00     0.028 C 
HETATM   23  C   UNL     1      31.423  44.885  58.054  1.00  0.00     0.003 C 
HETATM   24  C   UNL     1      30.080  45.402  58.557  1.00  0.00     0.028 C 
HETATM   25  C   UNL     1      29.247  45.992  57.427  1.00  0.00     0.235 C 
ENDBRANCH  17  19
ENDBRANCH   1  17
TORSDOF 3
ENDMDL
