MODEL 1
REMARK VINA RESULT:      -9.8      0.000      0.000
REMARK  10 active torsions:
REMARK  status: ('A' for Active; 'I' for Inactive)
REMARK    1  A    between atoms: C_2  and  N_3 
REMARK    2  A    between atoms: N_3  and  C_4 
REMARK    3  A    between atoms: C_6  and  N_7 
REMARK    4  A    between atoms: N_10  and  C_12 
REMARK    5  A    between atoms: C_25  and  N_26 
REMARK    6  A    between atoms: N_26  and  C_27 
REMARK    7  A    between atoms: C_27  and  C_28 
REMARK    8  A    between atoms: C_28  and  O_29 
REMARK    9  A    between atoms: C_33  and  O_34 
REMARK   10  A    between atoms: O_34  and  C_35 
ROOT
HETATM    1  C   UNL     1      24.180  45.250  50.205  1.00  0.00     0.745 A 
HETATM    2  N   UNL     1      23.068  45.088  49.497  1.00  0.00     0.130 NA
HETATM    3  C   UNL     1      22.633  46.127  48.806  1.00  0.00     0.743 A 
HETATM    4  N   UNL     1      23.235  47.306  48.831  1.00  0.00    -0.030 NA
HETATM    5  C   UNL     1      24.327  47.399  49.578  1.00  0.00     0.238 A 
HETATM    6  N   UNL     1      24.825  46.402  50.292  1.00  0.00    -0.030 NA
ENDROOT
BRANCH   3   7
HETATM    7  N   UNL     1      21.480  45.967  48.032  1.00  0.00    -0.210 N 
HETATM    8  C   UNL     1      21.401  46.804  46.829  1.00  0.00     0.169 C 
HETATM    9  C   UNL     1      20.933  48.232  47.187  1.00  0.00     0.256 C 
HETATM   10  N   UNL     1      19.575  48.182  47.937  1.00  0.00    -0.059 N 
HETATM   11  H   UNL     1      18.941  47.656  47.323  1.00  0.00     0.281 HD
HETATM   12  C   UNL     1      19.732  47.295  49.201  1.00  0.00     0.256 C 
HETATM   13  C   UNL     1      20.231  45.884  48.802  1.00  0.00     0.169 C 
BRANCH  10  14
HETATM   14  C   UNL     1      18.893  49.549  48.150  1.00  0.00     0.129 C 
HETATM   15  C   UNL     1      18.250  49.573  49.564  1.00  0.00     0.043 C 
HETATM   16  C   UNL     1      17.588  50.934  49.836  1.00  0.00    -0.012 C 
HETATM   17  C   UNL     1      16.511  51.189  48.766  1.00  0.00     0.009 C 
HETATM   18  C   UNL     1      18.651  52.039  49.765  1.00  0.00     0.009 C 
HETATM   19  C   UNL     1      17.147  51.199  47.365  1.00  0.00    -0.012 C 
HETATM   20  C   UNL     1      17.807  49.829  47.090  1.00  0.00     0.043 C 
HETATM   21  C   UNL     1      18.213  52.306  47.310  1.00  0.00     0.009 C 
HETATM   22  C   UNL     1      19.295  52.051  48.373  1.00  0.00    -0.012 C 
HETATM   23  C   UNL     1      19.951  50.685  48.099  1.00  0.00     0.043 C 
ENDBRANCH  10  14
ENDBRANCH   3   7
BRANCH   1  24
HETATM   24  N   UNL     1      24.701  44.189  50.944  1.00  0.00    -0.188 N 
HETATM   25  H   UNL     1      23.990  43.483  51.090  1.00  0.00     0.184 HD
BRANCH  24  26
HETATM   26  C   UNL     1      25.781  44.140  51.838  1.00  0.00     0.049 A 
HETATM   27  C   UNL     1      25.641  44.281  53.222  1.00  0.00     0.033 A 
HETATM   28  C   UNL     1      26.751  44.264  54.078  1.00  0.00     0.039 A 
HETATM   29  C   UNL     1      28.036  44.131  53.557  1.00  0.00     0.078 A 
HETATM   30  C   UNL     1      28.191  44.012  52.175  1.00  0.00     0.039 A 
HETATM   31  C   UNL     1      27.078  44.019  51.326  1.00  0.00     0.033 A 
BRANCH  29  32
HETATM   32  O   UNL     1      29.201  44.108  54.267  1.00  0.00    -0.255 OA
BRANCH  32  33
HETATM   33  C   UNL     1      29.891  42.873  54.364  1.00  0.00     0.530 C 
HETATM   34  F   UNL     1      30.744  42.712  53.328  1.00  0.00    -0.144 F 
HETATM   35  F   UNL     1      30.577  42.789  55.524  1.00  0.00    -0.144 F 
HETATM   36  F   UNL     1      28.993  41.866  54.328  1.00  0.00    -0.144 F 
ENDBRANCH  32  33
ENDBRANCH  29  32
ENDBRANCH  24  26
ENDBRANCH   1  24
BRANCH   5  37
HETATM   37  N   UNL     1      24.950  48.633  49.571  1.00  0.00    -0.258 NA
HETATM   38  H   UNL     1      24.415  49.257  48.974  1.00  0.00     0.130 HD
BRANCH  37  39
HETATM   39  C   UNL     1      26.375  48.644  49.233  1.00  0.00     0.121 C 
BRANCH  39  40
HETATM   40  C   UNL     1      26.771  49.901  48.446  1.00  0.00     0.178 C 
BRANCH  40  41
HETATM   41  O   UNL     1      25.831  50.143  47.399  1.00  0.00    -0.400 OA
HETATM   42  H   UNL     1      25.415  49.288  47.188  1.00  0.00     0.209 HD
ENDBRANCH  40  41
ENDBRANCH  39  40
ENDBRANCH  37  39
ENDBRANCH   5  37
TORSDOF 10
ENDMDL
MODEL 2
REMARK VINA RESULT:      -9.7      4.939      8.140
REMARK  10 active torsions:
REMARK  status: ('A' for Active; 'I' for Inactive)
REMARK    1  A    between atoms: C_2  and  N_3 
REMARK    2  A    between atoms: N_3  and  C_4 
REMARK    3  A    between atoms: C_6  and  N_7 
REMARK    4  A    between atoms: N_10  and  C_12 
REMARK    5  A    between atoms: C_25  and  N_26 
REMARK    6  A    between atoms: N_26  and  C_27 
REMARK    7  A    between atoms: C_27  and  C_28 
REMARK    8  A    between atoms: C_28  and  O_29 
REMARK    9  A    between atoms: C_33  and  O_34 
REMARK   10  A    between atoms: O_34  and  C_35 
ROOT
HETATM    1  C   UNL     1      25.472  45.980  52.645  1.00  0.00     0.745 A 
HETATM    2  N   UNL     1      24.721  45.024  52.110  1.00  0.00     0.130 NA
HETATM    3  C   UNL     1      24.326  45.191  50.860  1.00  0.00     0.743 A 
HETATM    4  N   UNL     1      24.616  46.276  50.157  1.00  0.00    -0.030 NA
HETATM    5  C   UNL     1      25.351  47.197  50.765  1.00  0.00     0.238 A 
HETATM    6  N   UNL     1      25.787  47.097  52.011  1.00  0.00    -0.030 NA
ENDROOT
BRANCH   3   7
HETATM    7  N   UNL     1      23.558  44.184  50.271  1.00  0.00    -0.210 N 
HETATM    8  C   UNL     1      23.515  42.910  50.999  1.00  0.00     0.169 C 
HETATM    9  C   UNL     1      24.782  42.074  50.714  1.00  0.00     0.256 C 
HETATM   10  N   UNL     1      24.950  41.854  49.187  1.00  0.00    -0.059 N 
HETATM   11  H   UNL     1      24.068  41.430  48.872  1.00  0.00     0.281 HD
HETATM   12  C   UNL     1      25.001  43.235  48.483  1.00  0.00     0.256 C 
HETATM   13  C   UNL     1      23.728  44.051  48.818  1.00  0.00     0.169 C 
BRANCH  10  14
HETATM   14  C   UNL     1      26.049  40.848  48.787  1.00  0.00     0.129 C 
HETATM   15  C   UNL     1      26.384  39.959  50.016  1.00  0.00     0.043 C 
HETATM   16  C   UNL     1      27.454  38.914  49.655  1.00  0.00    -0.012 C 
HETATM   17  C   UNL     1      28.721  39.641  49.174  1.00  0.00     0.009 C 
HETATM   18  C   UNL     1      26.923  38.013  48.532  1.00  0.00     0.009 C 
HETATM   19  C   UNL     1      28.403  40.500  47.936  1.00  0.00    -0.012 C 
HETATM   20  C   UNL     1      27.334  41.553  48.302  1.00  0.00     0.043 C 
HETATM   21  C   UNL     1      27.868  39.586  46.822  1.00  0.00     0.009 C 
HETATM   22  C   UNL     1      26.597  38.862  47.296  1.00  0.00    -0.012 C 
HETATM   23  C   UNL     1      25.532  39.912  47.661  1.00  0.00     0.043 C 
ENDBRANCH  10  14
ENDBRANCH   3   7
BRANCH   1  24
HETATM   24  N   UNL     1      25.934  45.857  53.954  1.00  0.00    -0.188 N 
HETATM   25  H   UNL     1      25.348  46.392  54.583  1.00  0.00     0.184 HD
BRANCH  24  26
HETATM   26  C   UNL     1      27.210  45.548  54.448  1.00  0.00     0.049 A 
HETATM   27  C   UNL     1      27.949  46.409  55.265  1.00  0.00     0.033 A 
HETATM   28  C   UNL     1      29.237  46.077  55.707  1.00  0.00     0.039 A 
HETATM   29  C   UNL     1      29.827  44.878  55.314  1.00  0.00     0.078 A 
HETATM   30  C   UNL     1      29.108  44.019  54.482  1.00  0.00     0.039 A 
HETATM   31  C   UNL     1      27.817  44.351  54.052  1.00  0.00     0.033 A 
BRANCH  29  32
HETATM   32  O   UNL     1      31.069  44.433  55.659  1.00  0.00    -0.255 OA
BRANCH  32  33
HETATM   33  C   UNL     1      31.204  43.734  56.885  1.00  0.00     0.530 C 
HETATM   34  F   UNL     1      32.505  43.583  57.216  1.00  0.00    -0.144 F 
HETATM   35  F   UNL     1      30.561  44.376  57.884  1.00  0.00    -0.144 F 
HETATM   36  F   UNL     1      30.660  42.506  56.752  1.00  0.00    -0.144 F 
ENDBRANCH  32  33
ENDBRANCH  29  32
ENDBRANCH  24  26
ENDBRANCH   1  24
BRANCH   5  37
HETATM   37  N   UNL     1      25.659  48.310  50.004  1.00  0.00    -0.258 NA
HETATM   38  H   UNL     1      24.990  48.370  49.242  1.00  0.00     0.130 HD
BRANCH  37  39
HETATM   39  C   UNL     1      27.040  48.412  49.526  1.00  0.00     0.121 C 
BRANCH  39  40
HETATM   40  C   UNL     1      27.292  49.723  48.768  1.00  0.00     0.178 C 
BRANCH  40  41
HETATM   41  O   UNL     1      26.398  49.829  47.658  1.00  0.00    -0.400 OA
HETATM   42  H   UNL     1      26.948  49.908  46.859  1.00  0.00     0.209 HD
ENDBRANCH  40  41
ENDBRANCH  39  40
ENDBRANCH  37  39
ENDBRANCH   5  37
TORSDOF 10
ENDMDL
MODEL 3
REMARK VINA RESULT:      -9.1      2.369      3.483
REMARK  10 active torsions:
REMARK  status: ('A' for Active; 'I' for Inactive)
REMARK    1  A    between atoms: C_2  and  N_3 
REMARK    2  A    between atoms: N_3  and  C_4 
REMARK    3  A    between atoms: C_6  and  N_7 
REMARK    4  A    between atoms: N_10  and  C_12 
REMARK    5  A    between atoms: C_25  and  N_26 
REMARK    6  A    between atoms: N_26  and  C_27 
REMARK    7  A    between atoms: C_27  and  C_28 
REMARK    8  A    between atoms: C_28  and  O_29 
REMARK    9  A    between atoms: C_33  and  O_34 
REMARK   10  A    between atoms: O_34  and  C_35 
ROOT
HETATM    1  C   UNL     1      25.149  45.681  51.937  1.00  0.00     0.745 A 
HETATM    2  N   UNL     1      24.490  44.829  51.160  1.00  0.00     0.130 NA
HETATM    3  C   UNL     1      24.207  45.224  49.930  1.00  0.00     0.743 A 
HETATM    4  N   UNL     1      24.518  46.429  49.477  1.00  0.00    -0.030 NA
HETATM    5  C   UNL     1      25.156  47.232  50.317  1.00  0.00     0.238 A 
HETATM    6  N   UNL     1      25.477  46.905  51.559  1.00  0.00    -0.030 NA
ENDROOT
BRANCH   3   7
HETATM    7  N   UNL     1      23.539  44.332  49.089  1.00  0.00    -0.210 N 
HETATM    8  C   UNL     1      23.494  44.707  47.671  1.00  0.00     0.169 C 
HETATM    9  C   UNL     1      22.379  45.744  47.414  1.00  0.00     0.256 C 
HETATM   10  N   UNL     1      21.011  45.196  47.902  1.00  0.00    -0.059 N 
HETATM   11  H   UNL     1      20.889  44.296  47.421  1.00  0.00     0.281 HD
HETATM   12  C   UNL     1      21.124  44.832  49.406  1.00  0.00     0.256 C 
HETATM   13  C   UNL     1      22.271  43.815  49.624  1.00  0.00     0.169 C 
BRANCH  10  14
HETATM   14  C   UNL     1      19.786  46.042  47.500  1.00  0.00     0.129 C 
HETATM   15  C   UNL     1      18.567  45.097  47.309  1.00  0.00     0.043 C 
HETATM   16  C   UNL     1      17.309  45.902  46.941  1.00  0.00    -0.012 C 
HETATM   17  C   UNL     1      17.576  46.682  45.641  1.00  0.00     0.009 C 
HETATM   18  C   UNL     1      16.989  46.888  48.072  1.00  0.00     0.009 C 
HETATM   19  C   UNL     1      18.763  47.643  45.834  1.00  0.00    -0.012 C 
HETATM   20  C   UNL     1      20.027  46.833  46.197  1.00  0.00     0.043 C 
HETATM   21  C   UNL     1      18.431  48.621  46.972  1.00  0.00     0.009 C 
HETATM   22  C   UNL     1      18.170  47.846  48.275  1.00  0.00    -0.012 C 
HETATM   23  C   UNL     1      19.430  47.039  48.636  1.00  0.00     0.043 C 
ENDBRANCH  10  14
ENDBRANCH   3   7
BRANCH   1  24
HETATM   24  N   UNL     1      25.490  45.320  53.239  1.00  0.00    -0.188 N 
HETATM   25  H   UNL     1      24.659  45.248  53.812  1.00  0.00     0.184 HD
BRANCH  24  26
HETATM   26  C   UNL     1      26.689  45.485  53.949  1.00  0.00     0.049 A 
HETATM   27  C   UNL     1      27.602  44.449  54.170  1.00  0.00     0.033 A 
HETATM   28  C   UNL     1      28.771  44.647  54.917  1.00  0.00     0.039 A 
HETATM   29  C   UNL     1      29.038  45.890  55.485  1.00  0.00     0.078 A 
HETATM   30  C   UNL     1      28.125  46.927  55.291  1.00  0.00     0.039 A 
HETATM   31  C   UNL     1      26.964  46.726  54.534  1.00  0.00     0.033 A 
BRANCH  29  32
HETATM   32  O   UNL     1      30.126  46.221  56.239  1.00  0.00    -0.255 OA
BRANCH  32  33
HETATM   33  C   UNL     1      30.135  45.818  57.599  1.00  0.00     0.530 C 
HETATM   34  F   UNL     1      30.620  44.563  57.729  1.00  0.00    -0.144 F 
HETATM   35  F   UNL     1      30.873  46.662  58.351  1.00  0.00    -0.144 F 
HETATM   36  F   UNL     1      28.869  45.828  58.067  1.00  0.00    -0.144 F 
ENDBRANCH  32  33
ENDBRANCH  29  32
ENDBRANCH  24  26
ENDBRANCH   1  24
BRANCH   5  37
HETATM   37  N   UNL     1      25.490  48.477  49.814  1.00  0.00    -0.258 NA
HETATM   38  H   UNL     1      24.752  48.773  49.182  1.00  0.00     0.130 HD
BRANCH  37  39
HETATM   39  C   UNL     1      26.814  48.599  49.201  1.00  0.00     0.121 C 
BRANCH  39  40
HETATM   40  C   UNL     1      27.010  49.961  48.521  1.00  0.00     0.178 C 
BRANCH  40  41
HETATM   41  O   UNL     1      26.083  50.112  47.445  1.00  0.00    -0.400 OA
HETATM   42  H   UNL     1      25.959  49.231  47.051  1.00  0.00     0.209 HD
ENDBRANCH  40  41
ENDBRANCH  39  40
ENDBRANCH  37  39
ENDBRANCH   5  37
TORSDOF 10
ENDMDL
MODEL 4
REMARK VINA RESULT:      -9.1      6.134      8.712
REMARK  10 active torsions:
REMARK  status: ('A' for Active; 'I' for Inactive)
REMARK    1  A    between atoms: C_2  and  N_3 
REMARK    2  A    between atoms: N_3  and  C_4 
REMARK    3  A    between atoms: C_6  and  N_7 
REMARK    4  A    between atoms: N_10  and  C_12 
REMARK    5  A    between atoms: C_25  and  N_26 
REMARK    6  A    between atoms: N_26  and  C_27 
REMARK    7  A    between atoms: C_27  and  C_28 
REMARK    8  A    between atoms: C_28  and  O_29 
REMARK    9  A    between atoms: C_33  and  O_34 
REMARK   10  A    between atoms: O_34  and  C_35 
ROOT
HETATM    1  C   UNL     1      22.029  49.497  49.551  1.00  0.00     0.745 A 
HETATM    2  N   UNL     1      21.354  48.529  48.940  1.00  0.00     0.130 NA
HETATM    3  C   UNL     1      22.025  47.443  48.600  1.00  0.00     0.743 A 
HETATM    4  N   UNL     1      23.327  47.312  48.807  1.00  0.00    -0.030 NA
HETATM    5  C   UNL     1      23.938  48.329  49.401  1.00  0.00     0.238 A 
HETATM    6  N   UNL     1      23.331  49.444  49.775  1.00  0.00    -0.030 NA
ENDROOT
BRANCH   3   7
HETATM    7  N   UNL     1      21.326  46.403  47.982  1.00  0.00    -0.210 N 
HETATM    8  C   UNL     1      21.163  46.523  46.528  1.00  0.00     0.169 C 
HETATM    9  C   UNL     1      19.996  47.476  46.186  1.00  0.00     0.256 C 
HETATM   10  N   UNL     1      18.689  46.993  46.869  1.00  0.00    -0.059 N 
HETATM   11  H   UNL     1      18.562  46.020  46.563  1.00  0.00     0.281 HD
HETATM   12  C   UNL     1      18.927  46.901  48.400  1.00  0.00     0.256 C 
HETATM   13  C   UNL     1      20.121  45.962  48.698  1.00  0.00     0.169 C 
BRANCH  10  14
HETATM   14  C   UNL     1      17.408  47.729  46.426  1.00  0.00     0.129 C 
HETATM   15  C   UNL     1      17.749  49.226  46.187  1.00  0.00     0.043 C 
HETATM   16  C   UNL     1      16.506  49.995  45.706  1.00  0.00    -0.012 C 
HETATM   17  C   UNL     1      15.400  49.873  46.769  1.00  0.00     0.009 C 
HETATM   18  C   UNL     1      16.015  49.390  44.384  1.00  0.00     0.009 C 
HETATM   19  C   UNL     1      15.036  48.394  46.987  1.00  0.00    -0.012 C 
HETATM   20  C   UNL     1      16.282  47.623  47.476  1.00  0.00     0.043 C 
HETATM   21  C   UNL     1      14.550  47.800  45.655  1.00  0.00     0.009 C 
HETATM   22  C   UNL     1      15.655  47.914  44.592  1.00  0.00    -0.012 C 
HETATM   23  C   UNL     1      16.898  47.146  45.079  1.00  0.00     0.043 C 
ENDBRANCH  10  14
ENDBRANCH   3   7
BRANCH   1  24
HETATM   24  N   UNL     1      21.376  50.662  49.949  1.00  0.00    -0.188 N 
HETATM   25  H   UNL     1      21.768  51.003  50.818  1.00  0.00     0.184 HD
BRANCH  24  26
HETATM   26  C   UNL     1      20.091  51.138  49.650  1.00  0.00     0.049 A 
HETATM   27  C   UNL     1      18.929  50.654  50.259  1.00  0.00     0.033 A 
HETATM   28  C   UNL     1      17.660  51.131  49.903  1.00  0.00     0.039 A 
HETATM   29  C   UNL     1      17.526  52.091  48.903  1.00  0.00     0.078 A 
HETATM   30  C   UNL     1      18.676  52.567  48.272  1.00  0.00     0.039 A 
HETATM   31  C   UNL     1      19.942  52.095  48.639  1.00  0.00     0.033 A 
BRANCH  29  32
HETATM   32  O   UNL     1      16.360  52.636  48.451  1.00  0.00    -0.255 OA
BRANCH  32  33
HETATM   33  C   UNL     1      15.412  53.062  49.416  1.00  0.00     0.530 C 
HETATM   34  F   UNL     1      14.750  52.008  49.943  1.00  0.00    -0.144 F 
HETATM   35  F   UNL     1      16.007  53.757  50.409  1.00  0.00    -0.144 F 
HETATM   36  F   UNL     1      14.509  53.866  48.817  1.00  0.00    -0.144 F 
ENDBRANCH  32  33
ENDBRANCH  29  32
ENDBRANCH  24  26
ENDBRANCH   1  24
BRANCH   5  37
HETATM   37  N   UNL     1      25.292  48.159  49.627  1.00  0.00    -0.258 NA
HETATM   38  H   UNL     1      25.462  48.246  50.624  1.00  0.00     0.130 HD
BRANCH  37  39
HETATM   39  C   UNL     1      26.195  49.005  48.844  1.00  0.00     0.121 C 
BRANCH  39  40
HETATM   40  C   UNL     1      27.666  48.783  49.223  1.00  0.00     0.178 C 
BRANCH  40  41
HETATM   41  O   UNL     1      28.168  47.610  48.579  1.00  0.00    -0.400 OA
HETATM   42  H   UNL     1      28.063  46.875  49.208  1.00  0.00     0.209 HD
ENDBRANCH  40  41
ENDBRANCH  39  40
ENDBRANCH  37  39
ENDBRANCH   5  37
TORSDOF 10
ENDMDL
MODEL 5
REMARK VINA RESULT:      -9.0      6.084      9.702
REMARK  10 active torsions:
REMARK  status: ('A' for Active; 'I' for Inactive)
REMARK    1  A    between atoms: C_2  and  N_3 
REMARK    2  A    between atoms: N_3  and  C_4 
REMARK    3  A    between atoms: C_6  and  N_7 
REMARK    4  A    between atoms: N_10  and  C_12 
REMARK    5  A    between atoms: C_25  and  N_26 
REMARK    6  A    between atoms: N_26  and  C_27 
REMARK    7  A    between atoms: C_27  and  C_28 
REMARK    8  A    between atoms: C_28  and  O_29 
REMARK    9  A    between atoms: C_33  and  O_34 
REMARK   10  A    between atoms: O_34  and  C_35 
ROOT
HETATM    1  C   UNL     1      27.267  42.233  52.202  1.00  0.00     0.745 A 
HETATM    2  N   UNL     1      27.415  40.988  51.762  1.00  0.00     0.130 NA
HETATM    3  C   UNL     1      27.358  40.795  50.456  1.00  0.00     0.743 A 
HETATM    4  N   UNL     1      27.123  41.775  49.597  1.00  0.00    -0.030 NA
HETATM    5  C   UNL     1      26.964  42.988  50.111  1.00  0.00     0.238 A 
HETATM    6  N   UNL     1      27.013  43.259  51.406  1.00  0.00    -0.030 NA
ENDROOT
BRANCH   3   7
HETATM    7  N   UNL     1      27.538  39.496  49.974  1.00  0.00    -0.210 N 
HETATM    8  C   UNL     1      28.834  39.227  49.340  1.00  0.00     0.169 C 
HETATM    9  C   UNL     1      28.848  39.743  47.884  1.00  0.00     0.256 C 
HETATM   10  N   UNL     1      27.679  39.115  47.079  1.00  0.00    -0.059 N 
HETATM   11  H   UNL     1      27.788  38.098  47.183  1.00  0.00     0.281 HD
HETATM   12  C   UNL     1      26.342  39.446  47.795  1.00  0.00     0.256 C 
HETATM   13  C   UNL     1      26.382  38.940  49.258  1.00  0.00     0.169 C 
BRANCH  10  14
HETATM   14  C   UNL     1      27.716  39.374  45.559  1.00  0.00     0.129 C 
HETATM   15  C   UNL     1      26.269  39.288  45.001  1.00  0.00     0.043 C 
HETATM   16  C   UNL     1      26.252  39.576  43.490  1.00  0.00    -0.012 C 
HETATM   17  C   UNL     1      27.151  38.552  42.775  1.00  0.00     0.009 C 
HETATM   18  C   UNL     1      26.788  40.992  43.238  1.00  0.00     0.009 C 
HETATM   19  C   UNL     1      28.593  38.654  43.301  1.00  0.00    -0.012 C 
HETATM   20  C   UNL     1      28.611  38.358  44.817  1.00  0.00     0.043 C 
HETATM   21  C   UNL     1      29.116  40.077  43.047  1.00  0.00     0.009 C 
HETATM   22  C   UNL     1      28.224  41.104  43.766  1.00  0.00    -0.012 C 
HETATM   23  C   UNL     1      28.241  40.808  45.276  1.00  0.00     0.043 C 
ENDBRANCH  10  14
ENDBRANCH   3   7
BRANCH   1  24
HETATM   24  N   UNL     1      27.332  42.506  53.566  1.00  0.00    -0.188 N 
HETATM   25  H   UNL     1      26.430  42.348  53.998  1.00  0.00     0.184 HD
BRANCH  24  26
HETATM   26  C   UNL     1      28.202  43.332  54.293  1.00  0.00     0.049 A 
HETATM   27  C   UNL     1      29.494  42.949  54.668  1.00  0.00     0.033 A 
HETATM   28  C   UNL     1      30.319  43.791  55.426  1.00  0.00     0.039 A 
HETATM   29  C   UNL     1      29.853  45.032  55.852  1.00  0.00     0.078 A 
HETATM   30  C   UNL     1      28.557  45.418  55.504  1.00  0.00     0.039 A 
HETATM   31  C   UNL     1      27.742  44.577  54.736  1.00  0.00     0.033 A 
BRANCH  29  32
HETATM   32  O   UNL     1      30.539  45.944  56.599  1.00  0.00    -0.255 OA
BRANCH  32  33
HETATM   33  C   UNL     1      30.568  45.760  58.005  1.00  0.00     0.530 C 
HETATM   34  F   UNL     1      31.305  44.677  58.336  1.00  0.00    -0.144 F 
HETATM   35  F   UNL     1      31.068  46.848  58.628  1.00  0.00    -0.144 F 
HETATM   36  F   UNL     1      29.308  45.560  58.446  1.00  0.00    -0.144 F 
ENDBRANCH  32  33
ENDBRANCH  29  32
ENDBRANCH  24  26
ENDBRANCH   1  24
BRANCH   5  37
HETATM   37  N   UNL     1      26.742  43.998  49.193  1.00  0.00    -0.258 NA
HETATM   38  H   UNL     1      27.639  44.402  48.940  1.00  0.00     0.130 HD
BRANCH  37  39
HETATM   39  C   UNL     1      25.770  45.025  49.574  1.00  0.00     0.121 C 
BRANCH  39  40
HETATM   40  C   UNL     1      26.410  46.417  49.669  1.00  0.00     0.178 C 
BRANCH  40  41
HETATM   41  O   UNL     1      27.747  46.381  49.165  1.00  0.00    -0.400 OA
HETATM   42  H   UNL     1      27.942  47.268  48.816  1.00  0.00     0.209 HD
ENDBRANCH  40  41
ENDBRANCH  39  40
ENDBRANCH  37  39
ENDBRANCH   5  37
TORSDOF 10
ENDMDL
MODEL 6
REMARK VINA RESULT:      -8.8      2.121      3.057
REMARK  10 active torsions:
REMARK  status: ('A' for Active; 'I' for Inactive)
REMARK    1  A    between atoms: C_2  and  N_3 
REMARK    2  A    between atoms: N_3  and  C_4 
REMARK    3  A    between atoms: C_6  and  N_7 
REMARK    4  A    between atoms: N_10  and  C_12 
REMARK    5  A    between atoms: C_25  and  N_26 
REMARK    6  A    between atoms: N_26  and  C_27 
REMARK    7  A    between atoms: C_27  and  C_28 
REMARK    8  A    between atoms: C_28  and  O_29 
REMARK    9  A    between atoms: C_33  and  O_34 
REMARK   10  A    between atoms: O_34  and  C_35 
ROOT
HETATM    1  C   UNL     1      23.460  45.487  49.090  1.00  0.00     0.745 A 
HETATM    2  N   UNL     1      22.252  45.747  48.603  1.00  0.00     0.130 NA
HETATM    3  C   UNL     1      21.788  44.938  47.666  1.00  0.00     0.743 A 
HETATM    4  N   UNL     1      22.492  43.926  47.182  1.00  0.00    -0.030 NA
HETATM    5  C   UNL     1      23.699  43.742  47.701  1.00  0.00     0.238 A 
HETATM    6  N   UNL     1      24.227  44.506  48.644  1.00  0.00    -0.030 NA
ENDROOT
BRANCH   3   7
HETATM    7  N   UNL     1      20.508  45.180  47.161  1.00  0.00    -0.210 N 
HETATM    8  C   UNL     1      20.424  46.186  46.097  1.00  0.00     0.169 C 
HETATM    9  C   UNL     1      20.430  47.612  46.691  1.00  0.00     0.256 C 
HETATM   10  N   UNL     1      19.279  47.772  47.720  1.00  0.00    -0.059 N 
HETATM   11  H   UNL     1      18.421  47.513  47.216  1.00  0.00     0.281 HD
HETATM   12  C   UNL     1      19.435  46.689  48.820  1.00  0.00     0.256 C 
HETATM   13  C   UNL     1      19.454  45.279  48.181  1.00  0.00     0.169 C 
BRANCH  10  14
HETATM   14  C   UNL     1      19.039  49.212  48.217  1.00  0.00     0.129 C 
HETATM   15  C   UNL     1      18.969  49.202  49.769  1.00  0.00     0.043 C 
HETATM   16  C   UNL     1      18.767  50.626  50.313  1.00  0.00    -0.012 C 
HETATM   17  C   UNL     1      17.463  51.203  49.733  1.00  0.00     0.009 C 
HETATM   18  C   UNL     1      19.950  51.505  49.884  1.00  0.00     0.009 C 
HETATM   19  C   UNL     1      17.539  51.246  48.197  1.00  0.00    -0.012 C 
HETATM   20  C   UNL     1      17.735  49.814  47.651  1.00  0.00     0.043 C 
HETATM   21  C   UNL     1      18.730  52.125  47.782  1.00  0.00     0.009 C 
HETATM   22  C   UNL     1      20.037  51.548  48.353  1.00  0.00    -0.012 C 
HETATM   23  C   UNL     1      20.232  50.121  47.810  1.00  0.00     0.043 C 
ENDBRANCH  10  14
ENDBRANCH   3   7
BRANCH   1  24
HETATM   24  N   UNL     1      24.000  46.293  50.090  1.00  0.00    -0.188 N 
HETATM   25  H   UNL     1      24.124  47.238  49.748  1.00  0.00     0.184 HD
BRANCH  24  26
HETATM   26  C   UNL     1      24.768  45.962  51.216  1.00  0.00     0.049 A 
HETATM   27  C   UNL     1      24.694  44.723  51.861  1.00  0.00     0.033 A 
HETATM   28  C   UNL     1      25.452  44.446  53.007  1.00  0.00     0.039 A 
HETATM   29  C   UNL     1      26.285  45.420  53.550  1.00  0.00     0.078 A 
HETATM   30  C   UNL     1      26.352  46.668  52.928  1.00  0.00     0.039 A 
HETATM   31  C   UNL     1      25.601  46.936  51.777  1.00  0.00     0.033 A 
BRANCH  29  32
HETATM   32  O   UNL     1      27.068  45.292  54.660  1.00  0.00    -0.255 OA
BRANCH  32  33
HETATM   33  C   UNL     1      28.202  44.444  54.574  1.00  0.00     0.530 C 
HETATM   34  F   UNL     1      28.746  44.487  53.338  1.00  0.00    -0.144 F 
HETATM   35  F   UNL     1      29.137  44.790  55.486  1.00  0.00    -0.144 F 
HETATM   36  F   UNL     1      27.819  43.174  54.820  1.00  0.00    -0.144 F 
ENDBRANCH  32  33
ENDBRANCH  29  32
ENDBRANCH  24  26
ENDBRANCH   1  24
BRANCH   5  37
HETATM   37  N   UNL     1      24.405  42.665  47.196  1.00  0.00    -0.258 NA
HETATM   38  H   UNL     1      23.882  42.277  46.418  1.00  0.00     0.130 HD
BRANCH  37  39
HETATM   39  C   UNL     1      24.798  41.633  48.158  1.00  0.00     0.121 C 
BRANCH  39  40
HETATM   40  C   UNL     1      26.323  41.518  48.290  1.00  0.00     0.178 C 
BRANCH  40  41
HETATM   41  O   UNL     1      26.880  42.776  48.678  1.00  0.00    -0.400 OA
HETATM   42  H   UNL     1      27.518  42.594  49.389  1.00  0.00     0.209 HD
ENDBRANCH  40  41
ENDBRANCH  39  40
ENDBRANCH  37  39
ENDBRANCH   5  37
TORSDOF 10
ENDMDL
MODEL 7
REMARK VINA RESULT:      -8.8      5.849     10.028
REMARK  10 active torsions:
REMARK  status: ('A' for Active; 'I' for Inactive)
REMARK    1  A    between atoms: C_2  and  N_3 
REMARK    2  A    between atoms: N_3  and  C_4 
REMARK    3  A    between atoms: C_6  and  N_7 
REMARK    4  A    between atoms: N_10  and  C_12 
REMARK    5  A    between atoms: C_25  and  N_26 
REMARK    6  A    between atoms: N_26  and  C_27 
REMARK    7  A    between atoms: C_27  and  C_28 
REMARK    8  A    between atoms: C_28  and  O_29 
REMARK    9  A    between atoms: C_33  and  O_34 
REMARK   10  A    between atoms: O_34  and  C_35 
ROOT
HETATM    1  C   UNL     1      27.287  42.290  51.726  1.00  0.00     0.745 A 
HETATM    2  N   UNL     1      27.982  41.340  51.110  1.00  0.00     0.130 NA
HETATM    3  C   UNL     1      27.886  41.276  49.794  1.00  0.00     0.743 A 
HETATM    4  N   UNL     1      27.104  42.083  49.093  1.00  0.00    -0.030 NA
HETATM    5  C   UNL     1      26.423  42.991  49.779  1.00  0.00     0.238 A 
HETATM    6  N   UNL     1      26.473  43.120  51.095  1.00  0.00    -0.030 NA
ENDROOT
BRANCH   3   7
HETATM    7  N   UNL     1      28.631  40.301  49.126  1.00  0.00    -0.210 N 
HETATM    8  C   UNL     1      28.576  40.352  47.660  1.00  0.00     0.169 C 
HETATM    9  C   UNL     1      27.284  39.685  47.138  1.00  0.00     0.256 C 
HETATM   10  N   UNL     1      27.181  38.228  47.663  1.00  0.00    -0.059 N 
HETATM   11  H   UNL     1      28.055  37.769  47.375  1.00  0.00     0.281 HD
HETATM   12  C   UNL     1      27.232  38.247  49.214  1.00  0.00     0.256 C 
HETATM   13  C   UNL     1      28.526  38.950  49.694  1.00  0.00     0.169 C 
BRANCH  10  14
HETATM   14  C   UNL     1      26.054  37.384  47.033  1.00  0.00     0.129 C 
HETATM   15  C   UNL     1      24.860  38.318  46.692  1.00  0.00     0.043 C 
HETATM   16  C   UNL     1      23.723  37.524  46.026  1.00  0.00    -0.012 C 
HETATM   17  C   UNL     1      23.261  36.413  46.985  1.00  0.00     0.009 C 
HETATM   18  C   UNL     1      24.237  36.896  44.724  1.00  0.00     0.009 C 
HETATM   19  C   UNL     1      24.431  35.465  47.302  1.00  0.00    -0.012 C 
HETATM   20  C   UNL     1      25.570  36.261  47.976  1.00  0.00     0.043 C 
HETATM   21  C   UNL     1      24.939  34.847  45.989  1.00  0.00     0.009 C 
HETATM   22  C   UNL     1      25.409  35.954  45.030  1.00  0.00    -0.012 C 
HETATM   23  C   UNL     1      26.544  36.748  45.703  1.00  0.00     0.043 C 
ENDBRANCH  10  14
ENDBRANCH   3   7
BRANCH   1  24
HETATM   24  N   UNL     1      27.357  42.422  53.112  1.00  0.00    -0.188 N 
HETATM   25  H   UNL     1      26.486  42.128  53.535  1.00  0.00     0.184 HD
BRANCH  24  26
HETATM   26  C   UNL     1      28.158  43.249  53.912  1.00  0.00     0.049 A 
HETATM   27  C   UNL     1      29.419  42.875  54.386  1.00  0.00     0.033 A 
HETATM   28  C   UNL     1      30.173  43.717  55.215  1.00  0.00     0.039 A 
HETATM   29  C   UNL     1      29.662  44.951  55.611  1.00  0.00     0.078 A 
HETATM   30  C   UNL     1      28.395  45.328  55.163  1.00  0.00     0.039 A 
HETATM   31  C   UNL     1      27.652  44.486  54.326  1.00  0.00     0.033 A 
BRANCH  29  32
HETATM   32  O   UNL     1      30.277  45.863  56.418  1.00  0.00    -0.255 OA
BRANCH  32  33
HETATM   33  C   UNL     1      30.143  45.702  57.820  1.00  0.00     0.530 C 
HETATM   34  F   UNL     1      30.581  44.486  58.212  1.00  0.00    -0.144 F 
HETATM   35  F   UNL     1      30.824  46.659  58.487  1.00  0.00    -0.144 F 
HETATM   36  F   UNL     1      28.838  45.803  58.149  1.00  0.00    -0.144 F 
ENDBRANCH  32  33
ENDBRANCH  29  32
ENDBRANCH  24  26
ENDBRANCH   1  24
BRANCH   5  37
HETATM   37  N   UNL     1      25.632  43.837  49.023  1.00  0.00    -0.258 NA
HETATM   38  H   UNL     1      26.001  43.859  48.077  1.00  0.00     0.130 HD
BRANCH  37  39
HETATM   39  C   UNL     1      25.420  45.185  49.557  1.00  0.00     0.121 C 
BRANCH  39  40
HETATM   40  C   UNL     1      23.967  45.409  49.997  1.00  0.00     0.178 C 
BRANCH  40  41
HETATM   41  O   UNL     1      23.704  44.695  51.207  1.00  0.00    -0.400 OA
HETATM   42  H   UNL     1      23.885  45.308  51.941  1.00  0.00     0.209 HD
ENDBRANCH  40  41
ENDBRANCH  39  40
ENDBRANCH  37  39
ENDBRANCH   5  37
TORSDOF 10
ENDMDL
MODEL 8
REMARK VINA RESULT:      -8.7      5.592      9.267
REMARK  10 active torsions:
REMARK  status: ('A' for Active; 'I' for Inactive)
REMARK    1  A    between atoms: C_2  and  N_3 
REMARK    2  A    between atoms: N_3  and  C_4 
REMARK    3  A    between atoms: C_6  and  N_7 
REMARK    4  A    between atoms: N_10  and  C_12 
REMARK    5  A    between atoms: C_25  and  N_26 
REMARK    6  A    between atoms: N_26  and  C_27 
REMARK    7  A    between atoms: C_27  and  C_28 
REMARK    8  A    between atoms: C_28  and  O_29 
REMARK    9  A    between atoms: C_33  and  O_34 
REMARK   10  A    between atoms: O_34  and  C_35 
ROOT
HETATM    1  C   UNL     1      27.314  42.340  51.733  1.00  0.00     0.745 A 
HETATM    2  N   UNL     1      26.702  41.315  51.149  1.00  0.00     0.130 NA
HETATM    3  C   UNL     1      26.213  41.511  49.937  1.00  0.00     0.743 A 
HETATM    4  N   UNL     1      26.279  42.682  49.320  1.00  0.00    -0.030 NA
HETATM    5  C   UNL     1      26.884  43.663  49.973  1.00  0.00     0.238 A 
HETATM    6  N   UNL     1      27.402  43.541  51.186  1.00  0.00    -0.030 NA
ENDROOT
BRANCH   3   7
HETATM    7  N   UNL     1      25.590  40.437  49.295  1.00  0.00    -0.210 N 
HETATM    8  C   UNL     1      26.459  39.301  48.969  1.00  0.00     0.169 C 
HETATM    9  C   UNL     1      27.258  39.576  47.676  1.00  0.00     0.256 C 
HETATM   10  N   UNL     1      26.292  39.909  46.508  1.00  0.00    -0.059 N 
HETATM   11  H   UNL     1      25.639  39.118  46.456  1.00  0.00     0.281 HD
HETATM   12  C   UNL     1      25.415  41.124  46.912  1.00  0.00     0.256 C 
HETATM   13  C   UNL     1      24.656  40.818  48.227  1.00  0.00     0.169 C 
BRANCH  10  14
HETATM   14  C   UNL     1      26.951  39.983  45.115  1.00  0.00     0.129 C 
HETATM   15  C   UNL     1      28.248  40.832  45.219  1.00  0.00     0.043 C 
HETATM   16  C   UNL     1      28.961  40.903  43.858  1.00  0.00    -0.012 C 
HETATM   17  C   UNL     1      28.007  41.530  42.826  1.00  0.00     0.009 C 
HETATM   18  C   UNL     1      29.341  39.486  43.410  1.00  0.00     0.009 C 
HETATM   19  C   UNL     1      26.733  40.676  42.694  1.00  0.00    -0.012 C 
HETATM   20  C   UNL     1      26.015  40.610  44.060  1.00  0.00     0.043 C 
HETATM   21  C   UNL     1      27.129  39.259  42.250  1.00  0.00     0.009 C 
HETATM   22  C   UNL     1      28.077  38.626  43.282  1.00  0.00    -0.012 C 
HETATM   23  C   UNL     1      27.361  38.561  44.643  1.00  0.00     0.043 C 
ENDBRANCH  10  14
ENDBRANCH   3   7
BRANCH   1  24
HETATM   24  N   UNL     1      27.864  42.194  53.005  1.00  0.00    -0.188 N 
HETATM   25  H   UNL     1      27.522  41.346  53.439  1.00  0.00     0.184 HD
BRANCH  24  26
HETATM   26  C   UNL     1      28.380  43.150  53.892  1.00  0.00     0.049 A 
HETATM   27  C   UNL     1      27.661  44.268  54.323  1.00  0.00     0.033 A 
HETATM   28  C   UNL     1      28.228  45.220  55.182  1.00  0.00     0.039 A 
HETATM   29  C   UNL     1      29.547  45.084  55.608  1.00  0.00     0.078 A 
HETATM   30  C   UNL     1      30.283  43.983  55.167  1.00  0.00     0.039 A 
HETATM   31  C   UNL     1      29.708  43.029  54.319  1.00  0.00     0.033 A 
BRANCH  29  32
HETATM   32  O   UNL     1      30.226  45.933  56.431  1.00  0.00    -0.255 OA
BRANCH  32  33
HETATM   33  C   UNL     1      30.089  45.748  57.830  1.00  0.00     0.530 C 
HETATM   34  F   UNL     1      28.802  45.898  58.214  1.00  0.00    -0.144 F 
HETATM   35  F   UNL     1      30.527  44.527  58.205  1.00  0.00    -0.144 F 
HETATM   36  F   UNL     1      30.828  46.678  58.469  1.00  0.00    -0.144 F 
ENDBRANCH  32  33
ENDBRANCH  29  32
ENDBRANCH  24  26
ENDBRANCH   1  24
BRANCH   5  37
HETATM   37  N   UNL     1      26.960  44.869  49.300  1.00  0.00    -0.258 NA
HETATM   38  H   UNL     1      27.859  44.916  48.831  1.00  0.00     0.130 HD
BRANCH  37  39
HETATM   39  C   UNL     1      26.692  46.075  50.086  1.00  0.00     0.121 C 
BRANCH  39  40
HETATM   40  C   UNL     1      25.188  46.348  50.229  1.00  0.00     0.178 C 
BRANCH  40  41
HETATM   41  O   UNL     1      24.967  47.429  51.136  1.00  0.00    -0.400 OA
HETATM   42  H   UNL     1      25.340  47.160  51.993  1.00  0.00     0.209 HD
ENDBRANCH  40  41
ENDBRANCH  39  40
ENDBRANCH  37  39
ENDBRANCH   5  37
TORSDOF 10
ENDMDL
MODEL 9
REMARK VINA RESULT:      -8.7      1.604      2.137
REMARK  10 active torsions:
REMARK  status: ('A' for Active; 'I' for Inactive)
REMARK    1  A    between atoms: C_2  and  N_3 
REMARK    2  A    between atoms: N_3  and  C_4 
REMARK    3  A    between atoms: C_6  and  N_7 
REMARK    4  A    between atoms: N_10  and  C_12 
REMARK    5  A    between atoms: C_25  and  N_26 
REMARK    6  A    between atoms: N_26  and  C_27 
REMARK    7  A    between atoms: C_27  and  C_28 
REMARK    8  A    between atoms: C_28  and  O_29 
REMARK    9  A    between atoms: C_33  and  O_34 
REMARK   10  A    between atoms: O_34  and  C_35 
ROOT
HETATM    1  C   UNL     1      24.070  45.198  48.792  1.00  0.00     0.745 A 
HETATM    2  N   UNL     1      22.851  45.020  48.294  1.00  0.00     0.130 NA
HETATM    3  C   UNL     1      22.028  46.054  48.321  1.00  0.00     0.743 A 
HETATM    4  N   UNL     1      22.361  47.220  48.854  1.00  0.00    -0.030 NA
HETATM    5  C   UNL     1      23.587  47.316  49.351  1.00  0.00     0.238 A 
HETATM    6  N   UNL     1      24.467  46.327  49.355  1.00  0.00    -0.030 NA
ENDROOT
BRANCH   3   7
HETATM    7  N   UNL     1      20.751  45.894  47.777  1.00  0.00    -0.210 N 
HETATM    8  C   UNL     1      20.489  46.638  46.540  1.00  0.00     0.169 C 
HETATM    9  C   UNL     1      20.144  48.111  46.850  1.00  0.00     0.256 C 
HETATM   10  N   UNL     1      18.941  48.188  47.827  1.00  0.00    -0.059 N 
HETATM   11  H   UNL     1      18.189  47.649  47.380  1.00  0.00     0.281 HD
HETATM   12  C   UNL     1      19.288  47.395  49.115  1.00  0.00     0.256 C 
HETATM   13  C   UNL     1      19.656  45.934  48.757  1.00  0.00     0.169 C 
BRANCH  10  14
HETATM   14  C   UNL     1      18.358  49.601  48.038  1.00  0.00     0.129 C 
HETATM   15  C   UNL     1      16.966  49.675  47.353  1.00  0.00     0.043 C 
HETATM   16  C   UNL     1      16.328  51.058  47.568  1.00  0.00    -0.012 C 
HETATM   17  C   UNL     1      17.258  52.134  46.981  1.00  0.00     0.009 C 
HETATM   18  C   UNL     1      16.145  51.304  49.071  1.00  0.00     0.009 C 
HETATM   19  C   UNL     1      18.629  52.087  47.678  1.00  0.00    -0.012 C 
HETATM   20  C   UNL     1      19.272  50.700  47.457  1.00  0.00     0.043 C 
HETATM   21  C   UNL     1      18.431  52.330  49.183  1.00  0.00     0.009 C 
HETATM   22  C   UNL     1      17.507  51.252  49.775  1.00  0.00    -0.012 C 
HETATM   23  C   UNL     1      18.147  49.870  49.553  1.00  0.00     0.043 C 
ENDBRANCH  10  14
ENDBRANCH   3   7
BRANCH   1  24
HETATM   24  N   UNL     1      24.990  44.152  48.780  1.00  0.00    -0.188 N 
HETATM   25  H   UNL     1      24.707  43.445  48.115  1.00  0.00     0.184 HD
BRANCH  24  26
HETATM   26  C   UNL     1      25.893  43.718  49.762  1.00  0.00     0.049 A 
HETATM   27  C   UNL     1      25.732  42.534  50.487  1.00  0.00     0.033 A 
HETATM   28  C   UNL     1      26.639  42.155  51.486  1.00  0.00     0.039 A 
HETATM   29  C   UNL     1      27.719  42.975  51.801  1.00  0.00     0.078 A 
HETATM   30  C   UNL     1      27.880  44.171  51.100  1.00  0.00     0.039 A 
HETATM   31  C   UNL     1      26.977  44.539  50.095  1.00  0.00     0.033 A 
BRANCH  29  32
HETATM   32  O   UNL     1      28.670  42.738  52.750  1.00  0.00    -0.255 OA
BRANCH  32  33
HETATM   33  C   UNL     1      28.463  43.284  54.043  1.00  0.00     0.530 C 
HETATM   34  F   UNL     1      29.258  42.683  54.955  1.00  0.00    -0.144 F 
HETATM   35  F   UNL     1      28.699  44.614  54.051  1.00  0.00    -0.144 F 
HETATM   36  F   UNL     1      27.180  43.079  54.405  1.00  0.00    -0.144 F 
ENDBRANCH  32  33
ENDBRANCH  29  32
ENDBRANCH  24  26
ENDBRANCH   1  24
BRANCH   5  37
HETATM   37  N   UNL     1      23.919  48.550  49.881  1.00  0.00    -0.258 NA
HETATM   38  H   UNL     1      23.421  48.665  50.758  1.00  0.00     0.130 HD
BRANCH  37  39
HETATM   39  C   UNL     1      23.746  49.707  49.000  1.00  0.00     0.121 C 
BRANCH  39  40
HETATM   40  C   UNL     1      22.725  50.708  49.558  1.00  0.00     0.178 C 
BRANCH  40  41
HETATM   41  O   UNL     1      21.600  50.014  50.100  1.00  0.00    -0.400 OA
HETATM   42  H   UNL     1      21.098  49.657  49.346  1.00  0.00     0.209 HD
ENDBRANCH  40  41
ENDBRANCH  39  40
ENDBRANCH  37  39
ENDBRANCH   5  37
TORSDOF 10
ENDMDL
MODEL 10
REMARK VINA RESULT:      -8.4     20.565     22.578
REMARK  10 active torsions:
REMARK  status: ('A' for Active; 'I' for Inactive)
REMARK    1  A    between atoms: C_2  and  N_3 
REMARK    2  A    between atoms: N_3  and  C_4 
REMARK    3  A    between atoms: C_6  and  N_7 
REMARK    4  A    between atoms: N_10  and  C_12 
REMARK    5  A    between atoms: C_25  and  N_26 
REMARK    6  A    between atoms: N_26  and  C_27 
REMARK    7  A    between atoms: C_27  and  C_28 
REMARK    8  A    between atoms: C_28  and  O_29 
REMARK    9  A    between atoms: C_33  and  O_34 
REMARK   10  A    between atoms: O_34  and  C_35 
ROOT
HETATM    1  C   UNL     1      34.538  43.075  66.608  1.00  0.00     0.745 A 
HETATM    2  N   UNL     1      35.220  43.897  67.398  1.00  0.00     0.130 NA
HETATM    3  C   UNL     1      34.729  44.124  68.604  1.00  0.00     0.743 A 
HETATM    4  N   UNL     1      33.585  43.603  69.021  1.00  0.00    -0.030 NA
HETATM    5  C   UNL     1      32.949  42.811  68.168  1.00  0.00     0.238 A 
HETATM    6  N   UNL     1      33.381  42.532  66.949  1.00  0.00    -0.030 NA
ENDROOT
BRANCH   3   7
HETATM    7  N   UNL     1      35.446  44.964  69.460  1.00  0.00    -0.210 N 
HETATM    8  C   UNL     1      35.047  46.376  69.447  1.00  0.00     0.169 C 
HETATM    9  C   UNL     1      35.674  47.111  68.242  1.00  0.00     0.256 C 
HETATM   10  N   UNL     1      37.219  46.955  68.261  1.00  0.00    -0.059 N 
HETATM   11  H   UNL     1      37.518  47.295  69.183  1.00  0.00     0.281 HD
HETATM   12  C   UNL     1      37.571  45.444  68.261  1.00  0.00     0.256 C 
HETATM   13  C   UNL     1      36.898  44.740  69.465  1.00  0.00     0.169 C 
BRANCH  10  14
HETATM   14  C   UNL     1      37.978  47.828  67.240  1.00  0.00     0.129 C 
HETATM   15  C   UNL     1      37.051  48.991  66.790  1.00  0.00     0.043 C 
HETATM   16  C   UNL     1      37.780  49.911  65.796  1.00  0.00    -0.012 C 
HETATM   17  C   UNL     1      38.214  49.084  64.573  1.00  0.00     0.009 C 
HETATM   18  C   UNL     1      39.019  50.510  66.475  1.00  0.00     0.009 C 
HETATM   19  C   UNL     1      39.157  47.949  65.009  1.00  0.00    -0.012 C 
HETATM   20  C   UNL     1      38.423  47.021  66.002  1.00  0.00     0.043 C 
HETATM   21  C   UNL     1      40.391  48.562  65.690  1.00  0.00     0.009 C 
HETATM   22  C   UNL     1      39.963  49.385  66.918  1.00  0.00    -0.012 C 
HETATM   23  C   UNL     1      39.230  48.460  67.907  1.00  0.00     0.043 C 
ENDBRANCH  10  14
ENDBRANCH   3   7
BRANCH   1  24
HETATM   24  N   UNL     1      35.010  42.781  65.330  1.00  0.00    -0.188 N 
HETATM   25  H   UNL     1      34.429  42.075  64.897  1.00  0.00     0.184 HD
BRANCH  24  26
HETATM   26  C   UNL     1      36.289  42.924  64.773  1.00  0.00     0.049 A 
HETATM   27  C   UNL     1      37.297  41.963  64.903  1.00  0.00     0.033 A 
HETATM   28  C   UNL     1      38.575  42.161  64.361  1.00  0.00     0.039 A 
HETATM   29  C   UNL     1      38.880  43.347  63.698  1.00  0.00     0.078 A 
HETATM   30  C   UNL     1      37.890  44.323  63.580  1.00  0.00     0.039 A 
HETATM   31  C   UNL     1      36.611  44.115  64.113  1.00  0.00     0.033 A 
BRANCH  29  32
HETATM   32  O   UNL     1      40.077  43.677  63.133  1.00  0.00    -0.255 OA
BRANCH  32  33
HETATM   33  C   UNL     1      40.952  44.508  63.878  1.00  0.00     0.530 C 
HETATM   34  F   UNL     1      40.649  44.473  65.194  1.00  0.00    -0.144 F 
HETATM   35  F   UNL     1      42.239  44.136  63.706  1.00  0.00    -0.144 F 
HETATM   36  F   UNL     1      40.817  45.780  63.449  1.00  0.00    -0.144 F 
ENDBRANCH  32  33
ENDBRANCH  29  32
ENDBRANCH  24  26
ENDBRANCH   1  24
BRANCH   5  37
HETATM   37  N   UNL     1      31.769  42.261  68.635  1.00  0.00    -0.258 NA
HETATM   38  H   UNL     1      31.140  42.141  67.847  1.00  0.00     0.130 HD
BRANCH  37  39
HETATM   39  C   UNL     1      31.120  42.955  69.749  1.00  0.00     0.121 C 
BRANCH  39  40
HETATM   40  C   UNL     1      30.741  41.994  70.884  1.00  0.00     0.178 C 
BRANCH  40  41
HETATM   41  O   UNL     1      29.519  41.322  70.574  1.00  0.00    -0.400 OA
HETATM   42  H   UNL     1      29.068  41.855  69.896  1.00  0.00     0.209 HD
ENDBRANCH  40  41
ENDBRANCH  39  40
ENDBRANCH  37  39
ENDBRANCH   5  37
TORSDOF 10
ENDMDL
