MODEL 1
REMARK VINA RESULT:      -8.2      0.000      0.000
REMARK  4 active torsions:
REMARK  status: ('A' for Active; 'I' for Inactive)
REMARK    1  A    between atoms: C_2  and  O_3 
REMARK    2  A    between atoms: C_2  and  C_12 
REMARK    3  A    between atoms: O_3  and  C_4 
REMARK       I    between atoms: C_12  and  N_13 
REMARK    4  A    between atoms: N_13  and  C_14 
ROOT
HETATM    1  C   UNL     1      26.445  42.804  51.908  1.00  0.00     0.050 C 
HETATM    2  C   UNL     1      27.362  44.024  51.871  1.00  0.00     0.217 C 
ENDROOT
BRANCH   2   3
HETATM    3  O   UNL     1      27.288  44.778  53.098  1.00  0.00    -0.336 OA
BRANCH   3   4
HETATM    4  C   UNL     1      28.374  44.589  53.913  1.00  0.00     0.087 A 
HETATM    5  C   UNL     1      28.710  45.468  54.949  1.00  0.00     0.047 A 
HETATM    6 BR   UNL     1      27.671  47.009  55.334  1.00  0.00    -0.048 Br
HETATM    7  C   UNL     1      29.811  45.196  55.763  1.00  0.00     0.064 A 
HETATM    8  C   UNL     1      30.543  44.033  55.553  1.00  0.00     0.117 A 
HETATM    9  F   UNL     1      31.597  43.767  56.335  1.00  0.00    -0.206 F 
HETATM   10  C   UNL     1      30.191  43.129  54.557  1.00  0.00     0.045 A 
HETATM   11  C   UNL     1      29.094  43.402  53.741  1.00  0.00     0.041 A 
ENDBRANCH   3   4
ENDBRANCH   2   3
BRANCH   2  12
HETATM   12  C   UNL     1      26.952  44.964  50.717  1.00  0.00     0.252 C 
HETATM   13  N   UNL     1      26.275  46.082  51.177  1.00  0.00    -0.309 N 
HETATM   14  H   UNL     1      26.087  46.114  52.170  1.00  0.00     0.170 HD
HETATM   15  O   UNL     1      27.273  44.730  49.556  1.00  0.00    -0.270 OA
BRANCH  13  16
HETATM   16  C   UNL     1      25.742  47.102  50.381  1.00  0.00     0.129 A 
HETATM   17  N   UNL     1      24.417  47.191  50.174  1.00  0.00    -0.242 NA
HETATM   18  C   UNL     1      23.958  48.216  49.416  1.00  0.00     0.142 A 
HETATM   19  C   UNL     1      24.776  49.170  48.840  1.00  0.00     0.051 A 
HETATM   20 CL   UNL     1      24.127  50.445  47.894  1.00  0.00    -0.083 Cl
HETATM   21  C   UNL     1      26.144  49.069  49.052  1.00  0.00     0.029 A 
HETATM   22  C   UNL     1      26.635  48.020  49.835  1.00  0.00     0.052 A 
ENDBRANCH  13  16
ENDBRANCH   2  12
TORSDOF 4
ENDMDL
MODEL 2
REMARK VINA RESULT:      -8.1      3.724      4.372
REMARK  4 active torsions:
REMARK  status: ('A' for Active; 'I' for Inactive)
REMARK    1  A    between atoms: C_2  and  O_3 
REMARK    2  A    between atoms: C_2  and  C_12 
REMARK    3  A    between atoms: O_3  and  C_4 
REMARK       I    between atoms: C_12  and  N_13 
REMARK    4  A    between atoms: N_13  and  C_14 
ROOT
HETATM    1  C   UNL     1      26.152  47.007  54.454  1.00  0.00     0.050 C 
HETATM    2  C   UNL     1      26.619  45.552  54.473  1.00  0.00     0.217 C 
ENDROOT
BRANCH   2   3
HETATM    3  O   UNL     1      27.885  45.395  53.800  1.00  0.00    -0.336 OA
BRANCH   3   4
HETATM    4  C   UNL     1      28.869  44.899  54.614  1.00  0.00     0.087 A 
HETATM    5  C   UNL     1      29.541  43.699  54.350  1.00  0.00     0.047 A 
HETATM    6 BR   UNL     1      29.156  42.650  52.817  1.00  0.00    -0.048 Br
HETATM    7  C   UNL     1      30.558  43.270  55.205  1.00  0.00     0.064 A 
HETATM    8  C   UNL     1      30.914  44.059  56.293  1.00  0.00     0.117 A 
HETATM    9  F   UNL     1      31.893  43.651  57.110  1.00  0.00    -0.206 F 
HETATM   10  C   UNL     1      30.286  45.275  56.537  1.00  0.00     0.045 A 
HETATM   11  C   UNL     1      29.267  45.702  55.687  1.00  0.00     0.041 A 
ENDBRANCH   3   4
ENDBRANCH   2   3
BRANCH   2  12
HETATM   12  C   UNL     1      25.590  44.653  53.754  1.00  0.00     0.252 C 
HETATM   13  N   UNL     1      25.898  44.485  52.414  1.00  0.00    -0.309 N 
HETATM   14  H   UNL     1      26.697  45.002  52.070  1.00  0.00     0.170 HD
HETATM   15  O   UNL     1      24.666  44.125  54.364  1.00  0.00    -0.270 OA
BRANCH  13  16
HETATM   16  C   UNL     1      25.146  43.758  51.485  1.00  0.00     0.129 A 
HETATM   17  N   UNL     1      23.910  44.158  51.136  1.00  0.00    -0.242 NA
HETATM   18  C   UNL     1      23.241  43.428  50.211  1.00  0.00     0.142 A 
HETATM   19  C   UNL     1      23.755  42.292  49.613  1.00  0.00     0.051 A 
HETATM   20 CL   UNL     1      22.854  41.417  48.446  1.00  0.00    -0.083 Cl
HETATM   21  C   UNL     1      25.027  41.880  49.983  1.00  0.00     0.029 A 
HETATM   22  C   UNL     1      25.734  42.624  50.932  1.00  0.00     0.052 A 
ENDBRANCH  13  16
ENDBRANCH   2  12
TORSDOF 4
ENDMDL
MODEL 3
REMARK VINA RESULT:      -7.9      2.791      3.250
REMARK  4 active torsions:
REMARK  status: ('A' for Active; 'I' for Inactive)
REMARK    1  A    between atoms: C_2  and  O_3 
REMARK    2  A    between atoms: C_2  and  C_12 
REMARK    3  A    between atoms: O_3  and  C_4 
REMARK       I    between atoms: C_12  and  N_13 
REMARK    4  A    between atoms: N_13  and  C_14 
ROOT
HETATM    1  C   UNL     1      26.590  43.423  54.807  1.00  0.00     0.050 C 
HETATM    2  C   UNL     1      27.584  43.210  53.666  1.00  0.00     0.217 C 
ENDROOT
BRANCH   2   3
HETATM    3  O   UNL     1      28.542  44.286  53.592  1.00  0.00    -0.336 OA
BRANCH   3   4
HETATM    4  C   UNL     1      29.360  44.355  54.688  1.00  0.00     0.087 A 
HETATM    5  C   UNL     1      29.327  45.420  55.597  1.00  0.00     0.047 A 
HETATM    6 BR   UNL     1      28.121  46.871  55.397  1.00  0.00    -0.048 Br
HETATM    7  C   UNL     1      30.166  45.409  56.712  1.00  0.00     0.064 A 
HETATM    8  C   UNL     1      31.005  44.320  56.925  1.00  0.00     0.117 A 
HETATM    9  F   UNL     1      31.807  44.305  57.997  1.00  0.00    -0.206 F 
HETATM   10  C   UNL     1      31.011  43.235  56.055  1.00  0.00     0.045 A 
HETATM   11  C   UNL     1      30.177  43.248  54.939  1.00  0.00     0.041 A 
ENDBRANCH   3   4
ENDBRANCH   2   3
BRANCH   2  12
HETATM   12  C   UNL     1      26.839  43.150  52.315  1.00  0.00     0.252 C 
HETATM   13  N   UNL     1      25.598  43.761  52.383  1.00  0.00    -0.309 N 
HETATM   14  H   UNL     1      25.317  44.105  53.291  1.00  0.00     0.170 HD
HETATM   15  O   UNL     1      27.362  42.665  51.318  1.00  0.00    -0.270 OA
BRANCH  13  16
HETATM   16  C   UNL     1      24.668  43.842  51.341  1.00  0.00     0.129 A 
HETATM   17  N   UNL     1      23.888  42.792  51.030  1.00  0.00    -0.242 NA
HETATM   18  C   UNL     1      22.987  42.941  50.029  1.00  0.00     0.142 A 
HETATM   19  C   UNL     1      22.830  44.109  49.306  1.00  0.00     0.051 A 
HETATM   20 CL   UNL     1      21.666  44.229  48.053  1.00  0.00    -0.083 Cl
HETATM   21  C   UNL     1      23.643  45.188  49.627  1.00  0.00     0.029 A 
HETATM   22  C   UNL     1      24.574  45.054  50.660  1.00  0.00     0.052 A 
ENDBRANCH  13  16
ENDBRANCH   2  12
TORSDOF 4
ENDMDL
MODEL 4
REMARK VINA RESULT:      -7.8      5.621      7.547
REMARK  4 active torsions:
REMARK  status: ('A' for Active; 'I' for Inactive)
REMARK    1  A    between atoms: C_2  and  O_3 
REMARK    2  A    between atoms: C_2  and  C_12 
REMARK    3  A    between atoms: O_3  and  C_4 
REMARK       I    between atoms: C_12  and  N_13 
REMARK    4  A    between atoms: N_13  and  C_14 
ROOT
HETATM    1  C   UNL     1      22.335  46.207  48.090  1.00  0.00     0.050 C 
HETATM    2  C   UNL     1      22.522  47.717  48.230  1.00  0.00     0.217 C 
ENDROOT
BRANCH   2   3
HETATM    3  O   UNL     1      23.109  48.062  49.502  1.00  0.00    -0.336 OA
BRANCH   3   4
HETATM    4  C   UNL     1      24.435  48.395  49.410  1.00  0.00     0.087 A 
HETATM    5  C   UNL     1      25.446  47.675  50.059  1.00  0.00     0.047 A 
HETATM    6 BR   UNL     1      25.068  46.149  51.121  1.00  0.00    -0.048 Br
HETATM    7  C   UNL     1      26.781  48.050  49.894  1.00  0.00     0.064 A 
HETATM    8  C   UNL     1      27.092  49.117  49.059  1.00  0.00     0.117 A 
HETATM    9  F   UNL     1      28.372  49.475  48.896  1.00  0.00    -0.206 F 
HETATM   10  C   UNL     1      26.100  49.808  48.373  1.00  0.00     0.045 A 
HETATM   11  C   UNL     1      24.767  49.438  48.540  1.00  0.00     0.041 A 
ENDBRANCH   3   4
ENDBRANCH   2   3
BRANCH   2  12
HETATM   12  C   UNL     1      21.158  48.434  48.132  1.00  0.00     0.252 C 
HETATM   13  N   UNL     1      21.100  49.548  48.953  1.00  0.00    -0.309 N 
HETATM   14  H   UNL     1      21.907  49.713  49.541  1.00  0.00     0.170 HD
HETATM   15  O   UNL     1      20.291  48.055  47.351  1.00  0.00    -0.270 OA
BRANCH  13  16
HETATM   16  C   UNL     1      19.993  50.387  49.118  1.00  0.00     0.129 A 
HETATM   17  N   UNL     1      18.944  50.005  49.867  1.00  0.00    -0.242 NA
HETATM   18  C   UNL     1      17.913  50.872  50.011  1.00  0.00     0.142 A 
HETATM   19  C   UNL     1      17.878  52.124  49.426  1.00  0.00     0.051 A 
HETATM   20 CL   UNL     1      16.541  53.174  49.653  1.00  0.00    -0.083 Cl
HETATM   21  C   UNL     1      18.960  52.511  48.648  1.00  0.00     0.029 A 
HETATM   22  C   UNL     1      20.035  51.631  48.493  1.00  0.00     0.052 A 
ENDBRANCH  13  16
ENDBRANCH   2  12
TORSDOF 4
ENDMDL
MODEL 5
REMARK VINA RESULT:      -7.8      4.759      5.516
REMARK  4 active torsions:
REMARK  status: ('A' for Active; 'I' for Inactive)
REMARK    1  A    between atoms: C_2  and  O_3 
REMARK    2  A    between atoms: C_2  and  C_12 
REMARK    3  A    between atoms: O_3  and  C_4 
REMARK       I    between atoms: C_12  and  N_13 
REMARK    4  A    between atoms: N_13  and  C_14 
ROOT
HETATM    1  C   UNL     1      26.551  43.413  54.458  1.00  0.00     0.050 C 
HETATM    2  C   UNL     1      27.926  43.193  53.830  1.00  0.00     0.217 C 
ENDROOT
BRANCH   2   3
HETATM    3  O   UNL     1      28.724  44.394  53.869  1.00  0.00    -0.336 OA
BRANCH   3   4
HETATM    4  C   UNL     1      29.479  44.501  55.008  1.00  0.00     0.087 A 
HETATM    5  C   UNL     1      29.310  45.533  55.938  1.00  0.00     0.047 A 
HETATM    6 BR   UNL     1      27.994  46.881  55.713  1.00  0.00    -0.048 Br
HETATM    7  C   UNL     1      30.091  45.561  57.095  1.00  0.00     0.064 A 
HETATM    8  C   UNL     1      31.009  44.542  57.323  1.00  0.00     0.117 A 
HETATM    9  F   UNL     1      31.757  44.565  58.434  1.00  0.00    -0.206 F 
HETATM   10  C   UNL     1      31.152  43.487  56.429  1.00  0.00     0.045 A 
HETATM   11  C   UNL     1      30.376  43.460  55.272  1.00  0.00     0.041 A 
ENDBRANCH   3   4
ENDBRANCH   2   3
BRANCH   2  12
HETATM   12  C   UNL     1      27.775  42.778  52.350  1.00  0.00     0.252 C 
HETATM   13  N   UNL     1      27.368  41.460  52.223  1.00  0.00    -0.309 N 
HETATM   14  H   UNL     1      27.282  40.933  53.082  1.00  0.00     0.170 HD
HETATM   15  O   UNL     1      27.943  43.583  51.440  1.00  0.00    -0.270 OA
BRANCH  13  16
HETATM   16  C   UNL     1      27.175  40.775  51.018  1.00  0.00     0.129 A 
HETATM   17  N   UNL     1      25.983  40.794  50.397  1.00  0.00    -0.242 NA
HETATM   18  C   UNL     1      25.865  40.134  49.221  1.00  0.00     0.142 A 
HETATM   19  C   UNL     1      26.901  39.437  48.626  1.00  0.00     0.051 A 
HETATM   20 CL   UNL     1      26.684  38.626  47.131  1.00  0.00    -0.083 Cl
HETATM   21  C   UNL     1      28.128  39.415  49.275  1.00  0.00     0.029 A 
HETATM   22  C   UNL     1      28.269  40.094  50.487  1.00  0.00     0.052 A 
ENDBRANCH  13  16
ENDBRANCH   2  12
TORSDOF 4
ENDMDL
MODEL 6
REMARK VINA RESULT:      -7.6      4.991      8.190
REMARK  4 active torsions:
REMARK  status: ('A' for Active; 'I' for Inactive)
REMARK    1  A    between atoms: C_2  and  O_3 
REMARK    2  A    between atoms: C_2  and  C_12 
REMARK    3  A    between atoms: O_3  and  C_4 
REMARK       I    between atoms: C_12  and  N_13 
REMARK    4  A    between atoms: N_13  and  C_14 
ROOT
HETATM    1  C   UNL     1      24.032  45.295  50.065  1.00  0.00     0.050 C 
HETATM    2  C   UNL     1      24.254  46.786  50.312  1.00  0.00     0.217 C 
ENDROOT
BRANCH   2   3
HETATM    3  O   UNL     1      24.506  47.494  49.082  1.00  0.00    -0.336 OA
BRANCH   3   4
HETATM    4  C   UNL     1      23.712  48.600  48.925  1.00  0.00     0.087 A 
HETATM    5  C   UNL     1      24.208  49.835  48.488  1.00  0.00     0.047 A 
HETATM    6 BR   UNL     1      26.038  50.086  48.055  1.00  0.00    -0.048 Br
HETATM    7  C   UNL     1      23.336  50.912  48.317  1.00  0.00     0.064 A 
HETATM    8  C   UNL     1      21.977  50.734  48.552  1.00  0.00     0.117 A 
HETATM    9  F   UNL     1      21.139  51.765  48.384  1.00  0.00    -0.206 F 
HETATM   10  C   UNL     1      21.468  49.500  48.940  1.00  0.00     0.045 A 
HETATM   11  C   UNL     1      22.338  48.425  49.115  1.00  0.00     0.041 A 
ENDBRANCH   3   4
ENDBRANCH   2   3
BRANCH   2  12
HETATM   12  C   UNL     1      25.474  46.997  51.235  1.00  0.00     0.252 C 
HETATM   13  N   UNL     1      25.467  46.123  52.309  1.00  0.00    -0.309 N 
HETATM   14  H   UNL     1      24.660  45.517  52.387  1.00  0.00     0.170 HD
HETATM   15  O   UNL     1      26.349  47.812  50.961  1.00  0.00    -0.270 OA
BRANCH  13  16
HETATM   16  C   UNL     1      26.411  46.083  53.340  1.00  0.00     0.129 A 
HETATM   17  N   UNL     1      27.282  45.063  53.438  1.00  0.00    -0.242 NA
HETATM   18  C   UNL     1      28.190  45.095  54.442  1.00  0.00     0.142 A 
HETATM   19  C   UNL     1      28.268  46.113  55.375  1.00  0.00     0.051 A 
HETATM   20 CL   UNL     1      29.447  46.091  56.619  1.00  0.00    -0.083 Cl
HETATM   21  C   UNL     1      27.362  47.160  55.272  1.00  0.00     0.029 A 
HETATM   22  C   UNL     1      26.421  47.147  54.240  1.00  0.00     0.052 A 
ENDBRANCH  13  16
ENDBRANCH   2  12
TORSDOF 4
ENDMDL
MODEL 7
REMARK VINA RESULT:      -7.5      7.037     10.261
REMARK  4 active torsions:
REMARK  status: ('A' for Active; 'I' for Inactive)
REMARK    1  A    between atoms: C_2  and  O_3 
REMARK    2  A    between atoms: C_2  and  C_12 
REMARK    3  A    between atoms: O_3  and  C_4 
REMARK       I    between atoms: C_12  and  N_13 
REMARK    4  A    between atoms: N_13  and  C_14 
ROOT
HETATM    1  C   UNL     1      19.478  46.615  48.695  1.00  0.00     0.050 C 
HETATM    2  C   UNL     1      20.048  48.031  48.728  1.00  0.00     0.217 C 
ENDROOT
BRANCH   2   3
HETATM    3  O   UNL     1      19.379  48.892  47.784  1.00  0.00    -0.336 OA
BRANCH   3   4
HETATM    4  C   UNL     1      18.709  49.928  48.382  1.00  0.00     0.087 A 
HETATM    5  C   UNL     1      17.312  49.985  48.459  1.00  0.00     0.047 A 
HETATM    6 BR   UNL     1      16.211  48.612  47.750  1.00  0.00    -0.048 Br
HETATM    7  C   UNL     1      16.695  51.053  49.113  1.00  0.00     0.064 A 
HETATM    8  C   UNL     1      17.481  52.033  49.710  1.00  0.00     0.117 A 
HETATM    9  F   UNL     1      16.891  53.055  50.342  1.00  0.00    -0.206 F 
HETATM   10  C   UNL     1      18.869  51.961  49.681  1.00  0.00     0.045 A 
HETATM   11  C   UNL     1      19.485  50.897  49.024  1.00  0.00     0.041 A 
ENDBRANCH   3   4
ENDBRANCH   2   3
BRANCH   2  12
HETATM   12  C   UNL     1      21.549  48.009  48.361  1.00  0.00     0.252 C 
HETATM   13  N   UNL     1      22.339  48.484  49.395  1.00  0.00    -0.309 N 
HETATM   14  H   UNL     1      21.850  48.831  50.210  1.00  0.00     0.170 HD
HETATM   15  O   UNL     1      21.939  47.551  47.293  1.00  0.00    -0.270 OA
BRANCH  13  16
HETATM   16  C   UNL     1      23.731  48.624  49.364  1.00  0.00     0.129 A 
HETATM   17  N   UNL     1      24.520  47.833  50.110  1.00  0.00    -0.242 NA
HETATM   18  C   UNL     1      25.861  47.999  50.017  1.00  0.00     0.142 A 
HETATM   19  C   UNL     1      26.462  48.941  49.203  1.00  0.00     0.051 A 
HETATM   20 CL   UNL     1      28.168  49.094  49.131  1.00  0.00    -0.083 Cl
HETATM   21  C   UNL     1      25.642  49.760  48.440  1.00  0.00     0.029 A 
HETATM   22  C   UNL     1      24.257  49.600  48.519  1.00  0.00     0.052 A 
ENDBRANCH  13  16
ENDBRANCH   2  12
TORSDOF 4
ENDMDL
MODEL 8
REMARK VINA RESULT:      -7.4      2.268      2.763
REMARK  4 active torsions:
REMARK  status: ('A' for Active; 'I' for Inactive)
REMARK    1  A    between atoms: C_2  and  O_3 
REMARK    2  A    between atoms: C_2  and  C_12 
REMARK    3  A    between atoms: O_3  and  C_4 
REMARK       I    between atoms: C_12  and  N_13 
REMARK    4  A    between atoms: N_13  and  C_14 
ROOT
HETATM    1  C   UNL     1      27.485  44.218  50.617  1.00  0.00     0.050 C 
HETATM    2  C   UNL     1      26.756  44.809  51.823  1.00  0.00     0.217 C 
ENDROOT
BRANCH   2   3
HETATM    3  O   UNL     1      26.680  43.865  52.910  1.00  0.00    -0.336 OA
BRANCH   3   4
HETATM    4  C   UNL     1      27.766  43.917  53.745  1.00  0.00     0.087 A 
HETATM    5  C   UNL     1      28.665  42.853  53.889  1.00  0.00     0.047 A 
HETATM    6 BR   UNL     1      28.467  41.233  52.921  1.00  0.00    -0.048 Br
HETATM    7  C   UNL     1      29.770  42.986  54.732  1.00  0.00     0.064 A 
HETATM    8  C   UNL     1      29.982  44.191  55.394  1.00  0.00     0.117 A 
HETATM    9  F   UNL     1      31.044  44.322  56.198  1.00  0.00    -0.206 F 
HETATM   10  C   UNL     1      29.122  45.269  55.220  1.00  0.00     0.045 A 
HETATM   11  C   UNL     1      28.016  45.136  54.383  1.00  0.00     0.041 A 
ENDBRANCH   3   4
ENDBRANCH   2   3
BRANCH   2  12
HETATM   12  C   UNL     1      25.313  45.196  51.435  1.00  0.00     0.252 C 
HETATM   13  N   UNL     1      25.270  45.903  50.244  1.00  0.00    -0.309 N 
HETATM   14  H   UNL     1      26.163  46.124  49.823  1.00  0.00     0.170 HD
HETATM   15  O   UNL     1      24.351  44.835  52.105  1.00  0.00    -0.270 OA
BRANCH  13  16
HETATM   16  C   UNL     1      24.120  46.425  49.643  1.00  0.00     0.129 A 
HETATM   17  N   UNL     1      23.258  45.624  48.993  1.00  0.00    -0.242 NA
HETATM   18  C   UNL     1      22.149  46.185  48.453  1.00  0.00     0.142 A 
HETATM   19  C   UNL     1      21.858  47.535  48.529  1.00  0.00     0.051 A 
HETATM   20 CL   UNL     1      20.432  48.177  47.826  1.00  0.00    -0.083 Cl
HETATM   21  C   UNL     1      22.755  48.358  49.195  1.00  0.00     0.029 A 
HETATM   22  C   UNL     1      23.903  47.796  49.761  1.00  0.00     0.052 A 
ENDBRANCH  13  16
ENDBRANCH   2  12
TORSDOF 4
ENDMDL
MODEL 9
REMARK VINA RESULT:      -7.3      1.612      2.283
REMARK  4 active torsions:
REMARK  status: ('A' for Active; 'I' for Inactive)
REMARK    1  A    between atoms: C_2  and  O_3 
REMARK    2  A    between atoms: C_2  and  C_12 
REMARK    3  A    between atoms: O_3  and  C_4 
REMARK       I    between atoms: C_12  and  N_13 
REMARK    4  A    between atoms: N_13  and  C_14 
ROOT
HETATM    1  C   UNL     1      26.993  45.357  49.753  1.00  0.00     0.050 C 
HETATM    2  C   UNL     1      26.758  45.996  51.121  1.00  0.00     0.217 C 
ENDROOT
BRANCH   2   3
HETATM    3  O   UNL     1      26.401  45.011  52.111  1.00  0.00    -0.336 OA
BRANCH   3   4
HETATM    4  C   UNL     1      27.478  44.548  52.821  1.00  0.00     0.087 A 
HETATM    5  C   UNL     1      27.902  45.129  54.023  1.00  0.00     0.047 A 
HETATM    6 BR   UNL     1      27.005  46.615  54.791  1.00  0.00    -0.048 Br
HETATM    7  C   UNL     1      28.987  44.585  54.713  1.00  0.00     0.064 A 
HETATM    8  C   UNL     1      29.614  43.449  54.213  1.00  0.00     0.117 A 
HETATM    9  F   UNL     1      30.651  42.923  54.876  1.00  0.00    -0.206 F 
HETATM   10  C   UNL     1      29.171  42.836  53.046  1.00  0.00     0.045 A 
HETATM   11  C   UNL     1      28.091  43.381  52.354  1.00  0.00     0.041 A 
ENDBRANCH   3   4
ENDBRANCH   2   3
BRANCH   2  12
HETATM   12  C   UNL     1      25.603  47.018  51.038  1.00  0.00     0.252 C 
HETATM   13  N   UNL     1      25.242  47.284  49.728  1.00  0.00    -0.309 N 
HETATM   14  H   UNL     1      25.799  46.839  49.010  1.00  0.00     0.170 HD
HETATM   15  O   UNL     1      25.064  47.458  52.049  1.00  0.00    -0.270 OA
BRANCH  13  16
HETATM   16  C   UNL     1      24.257  48.189  49.317  1.00  0.00     0.129 A 
HETATM   17  N   UNL     1      22.954  47.868  49.388  1.00  0.00    -0.242 NA
HETATM   18  C   UNL     1      22.046  48.797  49.000  1.00  0.00     0.142 A 
HETATM   19  C   UNL     1      22.387  50.052  48.530  1.00  0.00     0.051 A 
HETATM   20 CL   UNL     1      21.185  51.181  48.060  1.00  0.00    -0.083 Cl
HETATM   21  C   UNL     1      23.734  50.375  48.453  1.00  0.00     0.029 A 
HETATM   22  C   UNL     1      24.684  49.432  48.853  1.00  0.00     0.052 A 
ENDBRANCH  13  16
ENDBRANCH   2  12
TORSDOF 4
ENDMDL
MODEL 10
REMARK VINA RESULT:      -6.9      5.454      8.819
REMARK  4 active torsions:
REMARK  status: ('A' for Active; 'I' for Inactive)
REMARK    1  A    between atoms: C_2  and  O_3 
REMARK    2  A    between atoms: C_2  and  C_12 
REMARK    3  A    between atoms: O_3  and  C_4 
REMARK       I    between atoms: C_12  and  N_13 
REMARK    4  A    between atoms: N_13  and  C_14 
ROOT
HETATM    1  C   UNL     1      22.001  45.281  48.010  1.00  0.00     0.050 C 
HETATM    2  C   UNL     1      22.482  46.555  48.703  1.00  0.00     0.217 C 
ENDROOT
BRANCH   2   3
HETATM    3  O   UNL     1      22.819  47.581  47.748  1.00  0.00    -0.336 OA
BRANCH   3   4
HETATM    4  C   UNL     1      22.195  48.775  47.998  1.00  0.00     0.087 A 
HETATM    5  C   UNL     1      22.894  49.976  48.177  1.00  0.00     0.047 A 
HETATM    6 BR   UNL     1      24.786  50.060  48.072  1.00  0.00    -0.048 Br
HETATM    7  C   UNL     1      22.192  51.163  48.395  1.00  0.00     0.064 A 
HETATM    8  C   UNL     1      20.801  51.142  48.399  1.00  0.00     0.117 A 
HETATM    9  F   UNL     1      20.127  52.281  48.603  1.00  0.00    -0.206 F 
HETATM   10  C   UNL     1      20.097  49.965  48.175  1.00  0.00     0.045 A 
HETATM   11  C   UNL     1      20.797  48.778  47.962  1.00  0.00     0.041 A 
ENDBRANCH   3   4
ENDBRANCH   2   3
BRANCH   2  12
HETATM   12  C   UNL     1      23.744  46.260  49.542  1.00  0.00     0.252 C 
HETATM   13  N   UNL     1      23.631  45.072  50.245  1.00  0.00    -0.309 N 
HETATM   14  H   UNL     1      22.743  44.592  50.173  1.00  0.00     0.170 HD
HETATM   15  O   UNL     1      24.726  46.993  49.499  1.00  0.00    -0.270 OA
BRANCH  13  16
HETATM   16  C   UNL     1      24.585  44.544  51.121  1.00  0.00     0.129 A 
HETATM   17  N   UNL     1      24.557  44.841  52.431  1.00  0.00    -0.242 NA
HETATM   18  C   UNL     1      25.492  44.278  53.234  1.00  0.00     0.142 A 
HETATM   19  C   UNL     1      26.477  43.421  52.779  1.00  0.00     0.051 A 
HETATM   20 CL   UNL     1      27.628  42.740  53.852  1.00  0.00    -0.083 Cl
HETATM   21  C   UNL     1      26.506  43.123  51.424  1.00  0.00     0.029 A 
HETATM   22  C   UNL     1      25.546  43.691  50.582  1.00  0.00     0.052 A 
ENDBRANCH  13  16
ENDBRANCH   2  12
TORSDOF 4
ENDMDL
