MODEL 1
REMARK VINA RESULT:      -8.8      0.000      0.000
REMARK  6 active torsions:
REMARK  status: ('A' for Active; 'I' for Inactive)
REMARK    1  A    between atoms: C_2  and  C_3 
REMARK    2  A    between atoms: C_8  and  C_9 
REMARK    3  A    between atoms: C_9  and  N_10 
REMARK    4  A    between atoms: C_12  and  C_13 
REMARK    5  A    between atoms: C_13  and  N_14 
REMARK       I    between atoms: N_14  and  C_15 
REMARK    6  A    between atoms: C_15  and  C_16 
ROOT
HETATM    1  N   UNL     1      25.389  46.047  49.767  1.00  0.00    -0.061 N 
HETATM    2  H   UNL     1      25.804  46.173  48.838  1.00  0.00     0.280 HD
HETATM    3  C   UNL     1      26.446  45.234  50.528  1.00  0.00     0.206 C 
HETATM    4  C   UNL     1      26.668  43.930  49.742  1.00  0.00     0.035 C 
HETATM    5  C   UNL     1      25.378  43.148  49.519  1.00  0.00     0.004 C 
HETATM    6  C   UNL     1      24.329  44.010  48.831  1.00  0.00     0.028 C 
HETATM    7  C   UNL     1      24.084  45.322  49.563  1.00  0.00     0.236 C 
ENDROOT
BRANCH   1   8
HETATM    8  C   UNL     1      25.174  47.466  50.261  1.00  0.00     0.277 C 
BRANCH   8   9
HETATM    9  C   UNL     1      25.549  48.518  49.284  1.00  0.00     0.012 A 
HETATM   10  C   UNL     1      24.727  49.394  48.497  1.00  0.00     0.071 A 
HETATM   11  N   UNL     1      25.491  50.193  47.740  1.00  0.00    -0.178 NA
HETATM   12  N   UNL     1      26.753  49.869  48.028  1.00  0.00    -0.288 N 
HETATM   13  H   UNL     1      27.503  50.367  47.556  1.00  0.00     0.188 HD
HETATM   14  C   UNL     1      26.843  48.881  48.958  1.00  0.00     0.120 A 
BRANCH  10  15
HETATM   15  C   UNL     1      23.205  49.561  48.425  1.00  0.00    -0.004 C 
HETATM   16  C   UNL     1      22.504  48.235  48.030  1.00  0.00     0.021 C 
HETATM   17  C   UNL     1      22.845  50.616  47.360  1.00  0.00     0.021 C 
HETATM   18  C   UNL     1      22.606  49.986  49.777  1.00  0.00     0.021 C 
ENDBRANCH  10  15
ENDBRANCH   8   9
ENDBRANCH   1   8
BRANCH   3  19
HETATM   19  C   UNL     1      26.067  44.995  52.019  1.00  0.00     0.156 C 
BRANCH  19  20
HETATM   20  N   UNL     1      27.197  45.052  52.928  1.00  0.00    -0.355 N 
HETATM   21  C   UNL     1      27.818  43.896  53.358  1.00  0.00     0.251 C 
HETATM   22  O   UNL     1      27.472  42.787  52.966  1.00  0.00    -0.268 OA
HETATM   23  H   UNL     1      27.440  45.933  53.369  1.00  0.00     0.162 HD
BRANCH  21  24
HETATM   24  C   UNL     1      28.859  44.059  54.405  1.00  0.00     0.032 A 
HETATM   25  C   UNL     1      28.895  45.261  55.124  1.00  0.00     0.017 A 
HETATM   26  C   UNL     1      29.890  45.471  56.078  1.00  0.00     0.001 A 
HETATM   27  C   UNL     1      30.839  44.479  56.327  1.00  0.00     0.000 A 
HETATM   28  C   UNL     1      30.791  43.272  55.628  1.00  0.00     0.001 A 
HETATM   29  C   UNL     1      29.801  43.057  54.667  1.00  0.00     0.017 A 
ENDBRANCH  21  24
ENDBRANCH  19  20
ENDBRANCH   3  19
TORSDOF 6
ENDMDL
MODEL 2
REMARK VINA RESULT:      -8.2      3.323      7.151
REMARK  6 active torsions:
REMARK  status: ('A' for Active; 'I' for Inactive)
REMARK    1  A    between atoms: C_2  and  C_3 
REMARK    2  A    between atoms: C_8  and  C_9 
REMARK    3  A    between atoms: C_9  and  N_10 
REMARK    4  A    between atoms: C_12  and  C_13 
REMARK    5  A    between atoms: C_13  and  N_14 
REMARK       I    between atoms: N_14  and  C_15 
REMARK    6  A    between atoms: C_15  and  C_16 
ROOT
HETATM    1  N   UNL     1      26.191  45.078  52.103  1.00  0.00    -0.061 N 
HETATM    2  H   UNL     1      26.784  45.913  52.154  1.00  0.00     0.280 HD
HETATM    3  C   UNL     1      26.804  44.271  50.949  1.00  0.00     0.206 C 
HETATM    4  C   UNL     1      26.764  45.166  49.698  1.00  0.00     0.035 C 
HETATM    5  C   UNL     1      25.361  45.670  49.377  1.00  0.00     0.004 C 
HETATM    6  C   UNL     1      24.758  46.399  50.570  1.00  0.00     0.028 C 
HETATM    7  C   UNL     1      24.788  45.560  51.839  1.00  0.00     0.236 C 
ENDROOT
BRANCH   1   8
HETATM    8  C   UNL     1      26.325  44.457  53.480  1.00  0.00     0.277 C 
BRANCH   8   9
HETATM    9  C   UNL     1      27.424  45.020  54.303  1.00  0.00     0.012 A 
HETATM   10  C   UNL     1      28.725  44.494  54.606  1.00  0.00     0.071 A 
HETATM   11  N   UNL     1      29.397  45.342  55.396  1.00  0.00    -0.178 NA
HETATM   12  N   UNL     1      28.584  46.382  55.587  1.00  0.00    -0.288 N 
HETATM   13  H   UNL     1      28.909  47.153  56.166  1.00  0.00     0.188 HD
HETATM   14  C   UNL     1      27.395  46.246  54.943  1.00  0.00     0.120 A 
BRANCH  10  15
HETATM   15  C   UNL     1      29.424  43.203  54.163  1.00  0.00    -0.004 C 
HETATM   16  C   UNL     1      28.483  41.976  54.281  1.00  0.00     0.021 C 
HETATM   17  C   UNL     1      30.651  42.940  55.057  1.00  0.00     0.021 C 
HETATM   18  C   UNL     1      29.876  43.268  52.693  1.00  0.00     0.021 C 
ENDBRANCH  10  15
ENDBRANCH   8   9
ENDBRANCH   1   8
BRANCH   3  19
HETATM   19  C   UNL     1      26.112  42.893  50.741  1.00  0.00     0.156 C 
BRANCH  19  20
HETATM   20  N   UNL     1      27.026  41.766  50.766  1.00  0.00    -0.355 N 
HETATM   21  C   UNL     1      27.625  41.315  49.607  1.00  0.00     0.251 C 
HETATM   22  O   UNL     1      27.443  41.862  48.525  1.00  0.00    -0.268 OA
HETATM   23  H   UNL     1      27.113  41.212  51.612  1.00  0.00     0.162 HD
BRANCH  21  24
HETATM   24  C   UNL     1      28.417  40.064  49.720  1.00  0.00     0.032 A 
HETATM   25  C   UNL     1      28.831  39.653  50.993  1.00  0.00     0.017 A 
HETATM   26  C   UNL     1      29.621  38.512  51.134  1.00  0.00     0.001 A 
HETATM   27  C   UNL     1      29.985  37.772  50.008  1.00  0.00     0.000 A 
HETATM   28  C   UNL     1      29.554  38.167  48.740  1.00  0.00     0.001 A 
HETATM   29  C   UNL     1      28.769  39.312  48.592  1.00  0.00     0.017 A 
ENDBRANCH  21  24
ENDBRANCH  19  20
ENDBRANCH   3  19
TORSDOF 6
ENDMDL
MODEL 3
REMARK VINA RESULT:      -8.1      5.067      8.257
REMARK  6 active torsions:
REMARK  status: ('A' for Active; 'I' for Inactive)
REMARK    1  A    between atoms: C_2  and  C_3 
REMARK    2  A    between atoms: C_8  and  C_9 
REMARK    3  A    between atoms: C_9  and  N_10 
REMARK    4  A    between atoms: C_12  and  C_13 
REMARK    5  A    between atoms: C_13  and  N_14 
REMARK       I    between atoms: N_14  and  C_15 
REMARK    6  A    between atoms: C_15  and  C_16 
ROOT
HETATM    1  N   UNL     1      18.789  49.396  48.265  1.00  0.00    -0.061 N 
HETATM    2  H   UNL     1      18.100  48.937  48.871  1.00  0.00     0.280 HD
HETATM    3  C   UNL     1      19.953  49.706  49.216  1.00  0.00     0.206 C 
HETATM    4  C   UNL     1      19.395  50.594  50.342  1.00  0.00     0.035 C 
HETATM    5  C   UNL     1      18.717  51.855  49.819  1.00  0.00     0.004 C 
HETATM    6  C   UNL     1      17.619  51.510  48.822  1.00  0.00     0.028 C 
HETATM    7  C   UNL     1      18.118  50.618  47.695  1.00  0.00     0.236 C 
ENDROOT
BRANCH   1   8
HETATM    8  C   UNL     1      19.076  48.358  47.196  1.00  0.00     0.277 C 
BRANCH   8   9
HETATM    9  C   UNL     1      18.783  46.962  47.603  1.00  0.00     0.012 A 
HETATM   10  C   UNL     1      19.584  45.774  47.499  1.00  0.00     0.071 A 
HETATM   11  N   UNL     1      18.919  44.721  47.993  1.00  0.00    -0.178 NA
HETATM   12  N   UNL     1      17.747  45.196  48.415  1.00  0.00    -0.288 N 
HETATM   13  H   UNL     1      17.082  44.550  48.833  1.00  0.00     0.188 HD
HETATM   14  C   UNL     1      17.620  46.536  48.217  1.00  0.00     0.120 A 
BRANCH  10  15
HETATM   15  C   UNL     1      21.007  45.555  46.971  1.00  0.00    -0.004 C 
HETATM   16  C   UNL     1      21.100  45.838  45.450  1.00  0.00     0.021 C 
HETATM   17  C   UNL     1      21.430  44.091  47.202  1.00  0.00     0.021 C 
HETATM   18  C   UNL     1      22.025  46.486  47.654  1.00  0.00     0.021 C 
ENDBRANCH  10  15
ENDBRANCH   8   9
ENDBRANCH   1   8
BRANCH   3  19
HETATM   19  C   UNL     1      21.177  50.335  48.488  1.00  0.00     0.156 C 
BRANCH  19  20
HETATM   20  N   UNL     1      22.459  49.875  48.989  1.00  0.00    -0.355 N 
HETATM   21  C   UNL     1      23.590  49.933  48.200  1.00  0.00     0.251 C 
HETATM   22  O   UNL     1      23.570  50.405  47.068  1.00  0.00    -0.268 OA
HETATM   23  H   UNL     1      22.500  49.371  49.869  1.00  0.00     0.162 HD
BRANCH  21  24
HETATM   24  C   UNL     1      24.812  49.295  48.752  1.00  0.00     0.032 A 
HETATM   25  C   UNL     1      26.057  49.833  48.405  1.00  0.00     0.017 A 
HETATM   26  C   UNL     1      27.228  49.228  48.861  1.00  0.00     0.001 A 
HETATM   27  C   UNL     1      27.158  48.096  49.675  1.00  0.00     0.000 A 
HETATM   28  C   UNL     1      25.917  47.572  50.041  1.00  0.00     0.001 A 
HETATM   29  C   UNL     1      24.741  48.169  49.582  1.00  0.00     0.017 A 
ENDBRANCH  21  24
ENDBRANCH  19  20
ENDBRANCH   3  19
TORSDOF 6
ENDMDL
MODEL 4
REMARK VINA RESULT:      -8.0      2.422      3.820
REMARK  6 active torsions:
REMARK  status: ('A' for Active; 'I' for Inactive)
REMARK    1  A    between atoms: C_2  and  C_3 
REMARK    2  A    between atoms: C_8  and  C_9 
REMARK    3  A    between atoms: C_9  and  N_10 
REMARK    4  A    between atoms: C_12  and  C_13 
REMARK    5  A    between atoms: C_13  and  N_14 
REMARK       I    between atoms: N_14  and  C_15 
REMARK    6  A    between atoms: C_15  and  C_16 
ROOT
HETATM    1  N   UNL     1      25.942  42.432  50.490  1.00  0.00    -0.061 N 
HETATM    2  H   UNL     1      26.008  42.897  49.578  1.00  0.00     0.280 HD
HETATM    3  C   UNL     1      27.407  42.275  50.921  1.00  0.00     0.206 C 
HETATM    4  C   UNL     1      28.116  41.453  49.829  1.00  0.00     0.035 C 
HETATM    5  C   UNL     1      27.439  40.113  49.565  1.00  0.00     0.004 C 
HETATM    6  C   UNL     1      25.969  40.305  49.215  1.00  0.00     0.028 C 
HETATM    7  C   UNL     1      25.226  41.127  50.258  1.00  0.00     0.236 C 
ENDROOT
BRANCH   1   8
HETATM    8  C   UNL     1      25.114  43.391  51.325  1.00  0.00     0.277 C 
BRANCH   8   9
HETATM    9  C   UNL     1      24.296  44.343  50.534  1.00  0.00     0.012 A 
HETATM   10  C   UNL     1      24.569  45.693  50.130  1.00  0.00     0.071 A 
HETATM   11  N   UNL     1      23.543  46.184  49.422  1.00  0.00    -0.178 NA
HETATM   12  N   UNL     1      22.647  45.198  49.350  1.00  0.00    -0.288 N 
HETATM   13  H   UNL     1      21.780  45.365  48.845  1.00  0.00     0.188 HD
HETATM   14  C   UNL     1      23.056  44.069  49.987  1.00  0.00     0.120 A 
BRANCH  10  15
HETATM   15  C   UNL     1      25.796  46.587  50.349  1.00  0.00    -0.004 C 
HETATM   16  C   UNL     1      25.619  47.972  49.674  1.00  0.00     0.021 C 
HETATM   17  C   UNL     1      27.043  45.922  49.734  1.00  0.00     0.021 C 
HETATM   18  C   UNL     1      26.054  46.857  51.842  1.00  0.00     0.021 C 
ENDBRANCH  10  15
ENDBRANCH   8   9
ENDBRANCH   1   8
BRANCH   3  19
HETATM   19  C   UNL     1      27.557  41.663  52.344  1.00  0.00     0.156 C 
BRANCH  19  20
HETATM   20  N   UNL     1      28.005  42.610  53.348  1.00  0.00    -0.355 N 
HETATM   21  C   UNL     1      29.350  42.800  53.592  1.00  0.00     0.251 C 
HETATM   22  O   UNL     1      30.216  42.211  52.954  1.00  0.00    -0.268 OA
HETATM   23  H   UNL     1      27.328  43.029  53.977  1.00  0.00     0.162 HD
BRANCH  21  24
HETATM   24  C   UNL     1      29.693  43.673  54.743  1.00  0.00     0.032 A 
HETATM   25  C   UNL     1      28.953  44.847  54.930  1.00  0.00     0.017 A 
HETATM   26  C   UNL     1      29.280  45.719  55.968  1.00  0.00     0.001 A 
HETATM   27  C   UNL     1      30.335  45.413  56.829  1.00  0.00     0.000 A 
HETATM   28  C   UNL     1      31.060  44.233  56.659  1.00  0.00     0.001 A 
HETATM   29  C   UNL     1      30.741  43.359  55.617  1.00  0.00     0.017 A 
ENDBRANCH  21  24
ENDBRANCH  19  20
ENDBRANCH   3  19
TORSDOF 6
ENDMDL
MODEL 5
REMARK VINA RESULT:      -8.0      3.261      6.084
REMARK  6 active torsions:
REMARK  status: ('A' for Active; 'I' for Inactive)
REMARK    1  A    between atoms: C_2  and  C_3 
REMARK    2  A    between atoms: C_8  and  C_9 
REMARK    3  A    between atoms: C_9  and  N_10 
REMARK    4  A    between atoms: C_12  and  C_13 
REMARK    5  A    between atoms: C_13  and  N_14 
REMARK       I    between atoms: N_14  and  C_15 
REMARK    6  A    between atoms: C_15  and  C_16 
ROOT
HETATM    1  N   UNL     1      26.924  44.314  51.059  1.00  0.00    -0.061 N 
HETATM    2  H   UNL     1      26.361  43.566  50.641  1.00  0.00     0.280 HD
HETATM    3  C   UNL     1      26.197  44.620  52.376  1.00  0.00     0.206 C 
HETATM    4  C   UNL     1      24.756  45.025  52.016  1.00  0.00     0.035 C 
HETATM    5  C   UNL     1      24.698  46.189  51.033  1.00  0.00     0.004 C 
HETATM    6  C   UNL     1      25.492  45.877  49.772  1.00  0.00     0.028 C 
HETATM    7  C   UNL     1      26.923  45.457  50.076  1.00  0.00     0.236 C 
ENDROOT
BRANCH   1   8
HETATM    8  C   UNL     1      28.301  43.693  51.200  1.00  0.00     0.277 C 
BRANCH   8   9
HETATM    9  C   UNL     1      28.294  42.294  51.695  1.00  0.00     0.012 A 
HETATM   10  C   UNL     1      27.651  41.123  51.169  1.00  0.00     0.071 A 
HETATM   11  N   UNL     1      27.912  40.062  51.944  1.00  0.00    -0.178 NA
HETATM   12  N   UNL     1      28.701  40.510  52.921  1.00  0.00    -0.288 N 
HETATM   13  H   UNL     1      29.023  39.853  53.627  1.00  0.00     0.188 HD
HETATM   14  C   UNL     1      28.972  41.838  52.811  1.00  0.00     0.120 A 
BRANCH  10  15
HETATM   15  C   UNL     1      26.792  40.916  49.916  1.00  0.00    -0.004 C 
HETATM   16  C   UNL     1      25.395  41.572  50.068  1.00  0.00     0.021 C 
HETATM   17  C   UNL     1      26.579  39.409  49.672  1.00  0.00     0.021 C 
HETATM   18  C   UNL     1      27.436  41.541  48.666  1.00  0.00     0.021 C 
ENDBRANCH  10  15
ENDBRANCH   8   9
ENDBRANCH   1   8
BRANCH   3  19
HETATM   19  C   UNL     1      26.934  45.683  53.241  1.00  0.00     0.156 C 
BRANCH  19  20
HETATM   20  N   UNL     1      27.812  45.115  54.248  1.00  0.00    -0.355 N 
HETATM   21  C   UNL     1      28.561  45.929  55.074  1.00  0.00     0.251 C 
HETATM   22  O   UNL     1      28.491  47.152  55.020  1.00  0.00    -0.268 OA
HETATM   23  H   UNL     1      27.991  44.116  54.249  1.00  0.00     0.162 HD
BRANCH  21  24
HETATM   24  C   UNL     1      29.539  45.246  55.959  1.00  0.00     0.032 A 
HETATM   25  C   UNL     1      29.765  45.778  57.235  1.00  0.00     0.017 A 
HETATM   26  C   UNL     1      30.715  45.196  58.074  1.00  0.00     0.001 A 
HETATM   27  C   UNL     1      31.428  44.074  57.648  1.00  0.00     0.000 A 
HETATM   28  C   UNL     1      31.188  43.528  56.386  1.00  0.00     0.001 A 
HETATM   29  C   UNL     1      30.243  44.111  55.539  1.00  0.00     0.017 A 
ENDBRANCH  21  24
ENDBRANCH  19  20
ENDBRANCH   3  19
TORSDOF 6
ENDMDL
MODEL 6
REMARK VINA RESULT:      -7.9      3.323      5.771
REMARK  6 active torsions:
REMARK  status: ('A' for Active; 'I' for Inactive)
REMARK    1  A    between atoms: C_2  and  C_3 
REMARK    2  A    between atoms: C_8  and  C_9 
REMARK    3  A    between atoms: C_9  and  N_10 
REMARK    4  A    between atoms: C_12  and  C_13 
REMARK    5  A    between atoms: C_13  and  N_14 
REMARK       I    between atoms: N_14  and  C_15 
REMARK    6  A    between atoms: C_15  and  C_16 
ROOT
HETATM    1  N   UNL     1      25.988  44.502  50.975  1.00  0.00    -0.061 N 
HETATM    2  H   UNL     1      24.976  44.357  51.065  1.00  0.00     0.280 HD
HETATM    3  C   UNL     1      26.564  43.799  52.213  1.00  0.00     0.206 C 
HETATM    4  C   UNL     1      25.927  44.461  53.448  1.00  0.00     0.035 C 
HETATM    5  C   UNL     1      26.136  45.970  53.483  1.00  0.00     0.004 C 
HETATM    6  C   UNL     1      25.620  46.622  52.207  1.00  0.00     0.028 C 
HETATM    7  C   UNL     1      26.210  45.992  50.954  1.00  0.00     0.236 C 
ENDROOT
BRANCH   1   8
HETATM    8  C   UNL     1      26.327  43.861  49.642  1.00  0.00     0.277 C 
BRANCH   8   9
HETATM    9  C   UNL     1      25.367  42.820  49.201  1.00  0.00     0.012 A 
HETATM   10  C   UNL     1      25.577  41.437  48.873  1.00  0.00     0.071 A 
HETATM   11  N   UNL     1      24.421  40.862  48.518  1.00  0.00    -0.178 NA
HETATM   12  N   UNL     1      23.494  41.815  48.623  1.00  0.00    -0.288 N 
HETATM   13  H   UNL     1      22.529  41.583  48.398  1.00  0.00     0.188 HD
HETATM   14  C   UNL     1      24.005  43.003  49.042  1.00  0.00     0.120 A 
BRANCH  10  15
HETATM   15  C   UNL     1      26.843  40.572  48.900  1.00  0.00    -0.004 C 
HETATM   16  C   UNL     1      27.553  40.643  50.276  1.00  0.00     0.021 C 
HETATM   17  C   UNL     1      27.838  41.069  47.833  1.00  0.00     0.021 C 
HETATM   18  C   UNL     1      26.530  39.087  48.644  1.00  0.00     0.021 C 
ENDBRANCH  10  15
ENDBRANCH   8   9
ENDBRANCH   1   8
BRANCH   3  19
HETATM   19  C   UNL     1      28.120  43.811  52.245  1.00  0.00     0.156 C 
BRANCH  19  20
HETATM   20  N   UNL     1      28.678  44.215  53.522  1.00  0.00    -0.355 N 
HETATM   21  C   UNL     1      29.819  43.615  54.018  1.00  0.00     0.251 C 
HETATM   22  O   UNL     1      30.424  42.751  53.392  1.00  0.00    -0.268 OA
HETATM   23  H   UNL     1      28.149  44.836  54.125  1.00  0.00     0.162 HD
BRANCH  21  24
HETATM   24  C   UNL     1      30.214  43.993  55.399  1.00  0.00     0.032 A 
HETATM   25  C   UNL     1      29.684  45.169  55.943  1.00  0.00     0.017 A 
HETATM   26  C   UNL     1      30.073  45.584  57.216  1.00  0.00     0.001 A 
HETATM   27  C   UNL     1      30.977  44.819  57.954  1.00  0.00     0.000 A 
HETATM   28  C   UNL     1      31.489  43.633  57.423  1.00  0.00     0.001 A 
HETATM   29  C   UNL     1      31.109  43.216  56.146  1.00  0.00     0.017 A 
ENDBRANCH  21  24
ENDBRANCH  19  20
ENDBRANCH   3  19
TORSDOF 6
ENDMDL
MODEL 7
REMARK VINA RESULT:      -7.8     11.154     12.178
REMARK  6 active torsions:
REMARK  status: ('A' for Active; 'I' for Inactive)
REMARK    1  A    between atoms: C_2  and  C_3 
REMARK    2  A    between atoms: C_8  and  C_9 
REMARK    3  A    between atoms: C_9  and  N_10 
REMARK    4  A    between atoms: C_12  and  C_13 
REMARK    5  A    between atoms: C_13  and  N_14 
REMARK       I    between atoms: N_14  and  C_15 
REMARK    6  A    between atoms: C_15  and  C_16 
ROOT
HETATM    1  N   UNL     1      28.484  47.468  39.622  1.00  0.00    -0.061 N 
HETATM    2  H   UNL     1      27.795  47.603  38.876  1.00  0.00     0.280 HD
HETATM    3  C   UNL     1      29.747  47.025  38.870  1.00  0.00     0.206 C 
HETATM    4  C   UNL     1      29.386  45.748  38.091  1.00  0.00     0.035 C 
HETATM    5  C   UNL     1      28.824  44.649  38.985  1.00  0.00     0.004 C 
HETATM    6  C   UNL     1      27.619  45.149  39.771  1.00  0.00     0.028 C 
HETATM    7  C   UNL     1      27.921  46.422  40.548  1.00  0.00     0.236 C 
ENDROOT
BRANCH   1   8
HETATM    8  C   UNL     1      28.564  48.829  40.289  1.00  0.00     0.277 C 
BRANCH   8   9
HETATM    9  C   UNL     1      28.045  49.947  39.464  1.00  0.00     0.012 A 
HETATM   10  C   UNL     1      28.410  51.336  39.442  1.00  0.00     0.071 A 
HETATM   11  N   UNL     1      27.677  51.995  38.534  1.00  0.00    -0.178 NA
HETATM   12  N   UNL     1      26.883  51.081  37.976  1.00  0.00    -0.288 N 
HETATM   13  H   UNL     1      26.238  51.377  37.247  1.00  0.00     0.188 HD
HETATM   14  C   UNL     1      27.073  49.835  38.487  1.00  0.00     0.120 A 
BRANCH  10  15
HETATM   15  C   UNL     1      29.467  52.118  40.231  1.00  0.00    -0.004 C 
HETATM   16  C   UNL     1      29.401  53.636  39.922  1.00  0.00     0.021 C 
HETATM   17  C   UNL     1      30.876  51.623  39.849  1.00  0.00     0.021 C 
HETATM   18  C   UNL     1      29.277  51.972  41.751  1.00  0.00     0.021 C 
ENDBRANCH  10  15
ENDBRANCH   8   9
ENDBRANCH   1   8
BRANCH   3  19
HETATM   19  C   UNL     1      30.977  46.845  39.807  1.00  0.00     0.156 C 
BRANCH  19  20
HETATM   20  N   UNL     1      31.402  48.069  40.461  1.00  0.00    -0.355 N 
HETATM   21  C   UNL     1      32.545  48.098  41.235  1.00  0.00     0.251 C 
HETATM   22  O   UNL     1      33.263  47.113  41.372  1.00  0.00    -0.268 OA
HETATM   23  H   UNL     1      30.781  48.871  40.473  1.00  0.00     0.162 HD
BRANCH  21  24
HETATM   24  C   UNL     1      32.802  49.355  41.982  1.00  0.00     0.032 A 
HETATM   25  C   UNL     1      33.967  50.075  41.690  1.00  0.00     0.017 A 
HETATM   26  C   UNL     1      34.269  51.233  42.407  1.00  0.00     0.001 A 
HETATM   27  C   UNL     1      33.402  51.681  43.405  1.00  0.00     0.000 A 
HETATM   28  C   UNL     1      32.229  50.978  43.682  1.00  0.00     0.001 A 
HETATM   29  C   UNL     1      31.924  49.814  42.972  1.00  0.00     0.017 A 
ENDBRANCH  21  24
ENDBRANCH  19  20
ENDBRANCH   3  19
TORSDOF 6
ENDMDL
MODEL 8
REMARK VINA RESULT:      -7.8      3.366      5.110
REMARK  6 active torsions:
REMARK  status: ('A' for Active; 'I' for Inactive)
REMARK    1  A    between atoms: C_2  and  C_3 
REMARK    2  A    between atoms: C_8  and  C_9 
REMARK    3  A    between atoms: C_9  and  N_10 
REMARK    4  A    between atoms: C_12  and  C_13 
REMARK    5  A    between atoms: C_13  and  N_14 
REMARK       I    between atoms: N_14  and  C_15 
REMARK    6  A    between atoms: C_15  and  C_16 
ROOT
HETATM    1  N   UNL     1      26.097  44.637  51.154  1.00  0.00    -0.061 N 
HETATM    2  H   UNL     1      25.089  44.457  51.205  1.00  0.00     0.280 HD
HETATM    3  C   UNL     1      26.680  43.739  52.254  1.00  0.00     0.206 C 
HETATM    4  C   UNL     1      26.019  44.159  53.580  1.00  0.00     0.035 C 
HETATM    5  C   UNL     1      26.193  45.643  53.883  1.00  0.00     0.004 C 
HETATM    6  C   UNL     1      25.672  46.498  52.736  1.00  0.00     0.028 C 
HETATM    7  C   UNL     1      26.286  46.112  51.398  1.00  0.00     0.236 C 
ENDROOT
BRANCH   1   8
HETATM    8  C   UNL     1      26.460  44.249  49.732  1.00  0.00     0.277 C 
BRANCH   8   9
HETATM    9  C   UNL     1      26.245  42.816  49.414  1.00  0.00     0.012 A 
HETATM   10  C   UNL     1      25.050  42.115  49.037  1.00  0.00     0.071 A 
HETATM   11  N   UNL     1      25.315  40.815  48.845  1.00  0.00    -0.178 NA
HETATM   12  N   UNL     1      26.622  40.674  49.068  1.00  0.00    -0.288 N 
HETATM   13  H   UNL     1      27.035  39.749  48.972  1.00  0.00     0.188 HD
HETATM   14  C   UNL     1      27.229  41.845  49.399  1.00  0.00     0.120 A 
BRANCH  10  15
HETATM   15  C   UNL     1      23.617  42.608  48.805  1.00  0.00    -0.004 C 
HETATM   16  C   UNL     1      23.579  43.812  47.829  1.00  0.00     0.021 C 
HETATM   17  C   UNL     1      23.000  43.067  50.141  1.00  0.00     0.021 C 
HETATM   18  C   UNL     1      22.724  41.516  48.189  1.00  0.00     0.021 C 
ENDBRANCH  10  15
ENDBRANCH   8   9
ENDBRANCH   1   8
BRANCH   3  19
HETATM   19  C   UNL     1      28.235  43.778  52.305  1.00  0.00     0.156 C 
BRANCH  19  20
HETATM   20  N   UNL     1      28.770  44.264  53.564  1.00  0.00    -0.355 N 
HETATM   21  C   UNL     1      29.865  43.661  54.148  1.00  0.00     0.251 C 
HETATM   22  O   UNL     1      30.450  42.722  53.619  1.00  0.00    -0.268 OA
HETATM   23  H   UNL     1      28.250  44.957  54.094  1.00  0.00     0.162 HD
BRANCH  21  24
HETATM   24  C   UNL     1      30.232  44.136  55.506  1.00  0.00     0.032 A 
HETATM   25  C   UNL     1      31.173  43.400  56.236  1.00  0.00     0.017 A 
HETATM   26  C   UNL     1      31.504  43.786  57.535  1.00  0.00     0.001 A 
HETATM   27  C   UNL     1      30.908  44.914  58.101  1.00  0.00     0.000 A 
HETATM   28  C   UNL     1      29.987  45.663  57.367  1.00  0.00     0.001 A 
HETATM   29  C   UNL     1      29.647  45.278  56.068  1.00  0.00     0.017 A 
ENDBRANCH  21  24
ENDBRANCH  19  20
ENDBRANCH   3  19
TORSDOF 6
ENDMDL
MODEL 9
REMARK VINA RESULT:      -7.7      3.056      5.072
REMARK  6 active torsions:
REMARK  status: ('A' for Active; 'I' for Inactive)
REMARK    1  A    between atoms: C_2  and  C_3 
REMARK    2  A    between atoms: C_8  and  C_9 
REMARK    3  A    between atoms: C_9  and  N_10 
REMARK    4  A    between atoms: C_12  and  C_13 
REMARK    5  A    between atoms: C_13  and  N_14 
REMARK       I    between atoms: N_14  and  C_15 
REMARK    6  A    between atoms: C_15  and  C_16 
ROOT
HETATM    1  N   UNL     1      26.554  40.604  49.015  1.00  0.00    -0.061 N 
HETATM    2  H   UNL     1      26.495  40.992  48.068  1.00  0.00     0.280 HD
HETATM    3  C   UNL     1      27.975  40.972  49.466  1.00  0.00     0.206 C 
HETATM    4  C   UNL     1      28.950  40.347  48.452  1.00  0.00     0.035 C 
HETATM    5  C   UNL     1      28.758  38.843  48.299  1.00  0.00     0.004 C 
HETATM    6  C   UNL     1      27.319  38.512  47.925  1.00  0.00     0.028 C 
HETATM    7  C   UNL     1      26.313  39.122  48.890  1.00  0.00     0.236 C 
ENDROOT
BRANCH   1   8
HETATM    8  C   UNL     1      25.430  41.298  49.761  1.00  0.00     0.277 C 
BRANCH   8   9
HETATM    9  C   UNL     1      24.869  42.480  49.061  1.00  0.00     0.012 A 
HETATM   10  C   UNL     1      24.908  43.873  49.409  1.00  0.00     0.071 A 
HETATM   11  N   UNL     1      24.265  44.600  48.485  1.00  0.00    -0.178 NA
HETATM   12  N   UNL     1      23.840  43.730  47.568  1.00  0.00    -0.288 N 
HETATM   13  H   UNL     1      23.322  44.082  46.767  1.00  0.00     0.188 HD
HETATM   14  C   UNL     1      24.188  42.448  47.858  1.00  0.00     0.120 A 
BRANCH  10  15
HETATM   15  C   UNL     1      25.561  44.605  50.587  1.00  0.00    -0.004 C 
HETATM   16  C   UNL     1      25.144  43.984  51.946  1.00  0.00     0.021 C 
HETATM   17  C   UNL     1      25.121  46.082  50.593  1.00  0.00     0.021 C 
HETATM   18  C   UNL     1      27.097  44.537  50.528  1.00  0.00     0.021 C 
ENDBRANCH  10  15
ENDBRANCH   8   9
ENDBRANCH   1   8
BRANCH   3  19
HETATM   19  C   UNL     1      28.269  40.556  50.937  1.00  0.00     0.156 C 
BRANCH  19  20
HETATM   20  N   UNL     1      28.694  41.655  51.785  1.00  0.00    -0.355 N 
HETATM   21  C   UNL     1      28.720  41.520  53.158  1.00  0.00     0.251 C 
HETATM   22  O   UNL     1      28.424  40.468  53.714  1.00  0.00    -0.268 OA
HETATM   23  H   UNL     1      28.833  42.575  51.379  1.00  0.00     0.162 HD
BRANCH  21  24
HETATM   24  C   UNL     1      29.020  42.750  53.935  1.00  0.00     0.032 A 
HETATM   25  C   UNL     1      30.239  42.823  54.618  1.00  0.00     0.017 A 
HETATM   26  C   UNL     1      30.534  43.939  55.401  1.00  0.00     0.001 A 
HETATM   27  C   UNL     1      29.619  44.990  55.489  1.00  0.00     0.000 A 
HETATM   28  C   UNL     1      28.412  44.930  54.790  1.00  0.00     0.001 A 
HETATM   29  C   UNL     1      28.109  43.811  54.011  1.00  0.00     0.017 A 
ENDBRANCH  21  24
ENDBRANCH  19  20
ENDBRANCH   3  19
TORSDOF 6
ENDMDL
MODEL 10
REMARK VINA RESULT:      -7.7     10.985     12.219
REMARK  6 active torsions:
REMARK  status: ('A' for Active; 'I' for Inactive)
REMARK    1  A    between atoms: C_2  and  C_3 
REMARK    2  A    between atoms: C_8  and  C_9 
REMARK    3  A    between atoms: C_9  and  N_10 
REMARK    4  A    between atoms: C_12  and  C_13 
REMARK    5  A    between atoms: C_13  and  N_14 
REMARK       I    between atoms: N_14  and  C_15 
REMARK    6  A    between atoms: C_15  and  C_16 
ROOT
HETATM    1  N   UNL     1      28.665  48.610  39.096  1.00  0.00    -0.061 N 
HETATM    2  H   UNL     1      28.934  48.342  38.144  1.00  0.00     0.280 HD
HETATM    3  C   UNL     1      29.687  47.880  39.978  1.00  0.00     0.206 C 
HETATM    4  C   UNL     1      29.558  46.377  39.674  1.00  0.00     0.035 C 
HETATM    5  C   UNL     1      28.139  45.854  39.869  1.00  0.00     0.004 C 
HETATM    6  C   UNL     1      27.145  46.652  39.036  1.00  0.00     0.028 C 
HETATM    7  C   UNL     1      27.244  48.149  39.291  1.00  0.00     0.236 C 
ENDROOT
BRANCH   1   8
HETATM    8  C   UNL     1      28.771  50.124  39.087  1.00  0.00     0.277 C 
BRANCH   8   9
HETATM    9  C   UNL     1      30.161  50.641  39.058  1.00  0.00     0.012 A 
HETATM   10  C   UNL     1      30.723  51.837  39.619  1.00  0.00     0.071 A 
HETATM   11  N   UNL     1      32.033  51.908  39.347  1.00  0.00    -0.178 NA
HETATM   12  N   UNL     1      32.320  50.805  38.655  1.00  0.00    -0.288 N 
HETATM   13  H   UNL     1      33.279  50.660  38.347  1.00  0.00     0.188 HD
HETATM   14  C   UNL     1      31.237  50.005  38.466  1.00  0.00     0.120 A 
BRANCH  10  15
HETATM   15  C   UNL     1      30.092  52.955  40.458  1.00  0.00    -0.004 C 
HETATM   16  C   UNL     1      29.049  53.761  39.640  1.00  0.00     0.021 C 
HETATM   17  C   UNL     1      31.183  53.938  40.924  1.00  0.00     0.021 C 
HETATM   18  C   UNL     1      29.351  52.404  41.690  1.00  0.00     0.021 C 
ENDBRANCH  10  15
ENDBRANCH   8   9
ENDBRANCH   1   8
BRANCH   3  19
HETATM   19  C   UNL     1      29.530  48.215  41.490  1.00  0.00     0.156 C 
BRANCH  19  20
HETATM   20  N   UNL     1      30.427  49.255  41.959  1.00  0.00    -0.355 N 
HETATM   21  C   UNL     1      31.793  49.055  41.977  1.00  0.00     0.251 C 
HETATM   22  O   UNL     1      32.305  48.018  41.569  1.00  0.00    -0.268 OA
HETATM   23  H   UNL     1      30.045  50.077  42.414  1.00  0.00     0.162 HD
BRANCH  21  24
HETATM   24  C   UNL     1      32.605  50.120  42.619  1.00  0.00     0.032 A 
HETATM   25  C   UNL     1      33.900  50.350  42.137  1.00  0.00     0.017 A 
HETATM   26  C   UNL     1      34.711  51.305  42.748  1.00  0.00     0.001 A 
HETATM   27  C   UNL     1      34.227  52.042  43.830  1.00  0.00     0.000 A 
HETATM   28  C   UNL     1      32.929  51.831  44.298  1.00  0.00     0.001 A 
HETATM   29  C   UNL     1      32.114  50.871  43.694  1.00  0.00     0.017 A 
ENDBRANCH  21  24
ENDBRANCH  19  20
ENDBRANCH   3  19
TORSDOF 6
ENDMDL
