MODEL 1
REMARK VINA RESULT:      -9.3      0.000      0.000
REMARK  5 active torsions:
REMARK  status: ('A' for Active; 'I' for Inactive)
REMARK    1  A    between atoms: C_9  and  C_10 
REMARK       I    between atoms: C_10  and  N_11 
REMARK    2  A    between atoms: N_11  and  C_12 
REMARK    3  A    between atoms: C_15  and  C_16 
REMARK    4  A    between atoms: C_16  and  C_17 
REMARK       I    between atoms: C_17  and  N_18 
REMARK    5  A    between atoms: N_18  and  C_19 
ROOT
HETATM    1  C   UNL     1      26.052  45.704  51.983  1.00  0.00     0.277 C 
HETATM    2  N   UNL     1      26.305  46.094  50.680  1.00  0.00    -0.322 N 
HETATM    3  O   UNL     1      25.395  46.322  52.812  1.00  0.00    -0.266 OA
HETATM    4  H   UNL     1      26.896  45.433  50.179  1.00  0.00     0.169 HD
ENDROOT
BRANCH   2   5
HETATM    5  C   UNL     1      25.706  47.130  49.945  1.00  0.00     0.035 A 
HETATM    6  C   UNL     1      26.396  48.237  49.449  1.00  0.00     0.030 A 
HETATM    7  C   UNL     1      25.700  49.300  48.857  1.00  0.00     0.010 A 
HETATM    8  C   UNL     1      24.304  49.269  48.753  1.00  0.00    -0.049 A 
HETATM    9  C   UNL     1      23.622  48.126  49.188  1.00  0.00     0.010 A 
HETATM   10  C   UNL     1      24.319  47.066  49.776  1.00  0.00     0.030 A 
BRANCH   8  11
HETATM   11  C   UNL     1      23.539  50.472  48.254  1.00  0.00     0.141 C 
BRANCH  11  12
HETATM   12  C   UNL     1      22.430  51.018  49.133  1.00  0.00     0.222 C 
HETATM   13  N   UNL     1      21.182  51.120  48.561  1.00  0.00    -0.357 N 
HETATM   14  H   UNL     1      21.090  50.928  47.571  1.00  0.00     0.162 HD
HETATM   15  O   UNL     1      22.644  51.261  50.320  1.00  0.00    -0.273 OA
BRANCH  13  16
HETATM   16  C   UNL     1      19.976  51.495  49.290  1.00  0.00     0.076 C 
HETATM   17  C   UNL     1      19.059  52.384  48.451  1.00  0.00     0.032 C 
HETATM   18  C   UNL     1      19.225  50.291  49.854  1.00  0.00     0.032 C 
ENDBRANCH  13  16
ENDBRANCH  11  12
ENDBRANCH   8  11
ENDBRANCH   2   5
BRANCH   1  19
HETATM   19  C   UNL     1      26.642  44.380  52.271  1.00  0.00     0.157 A 
HETATM   20  C   UNL     1      27.682  44.074  53.197  1.00  0.00     0.029 A 
HETATM   21  C   UNL     1      28.506  44.803  54.080  1.00  0.00     0.023 A 
HETATM   22  C   UNL     1      27.808  42.692  53.156  1.00  0.00     0.063 A 
HETATM   23  C   UNL     1      29.425  44.119  54.895  1.00  0.00    -0.061 A 
HETATM   24  C   UNL     1      30.309  44.873  55.845  1.00  0.00     0.048 C 
HETATM   25  C   UNL     1      29.513  42.723  54.824  1.00  0.00     0.009 A 
HETATM   26  C   UNL     1      28.709  41.980  53.952  1.00  0.00     0.032 A 
HETATM   27  N   UNL     1      26.895  42.273  52.229  1.00  0.00    -0.277 N 
HETATM   28  H   UNL     1      26.711  41.319  51.940  1.00  0.00     0.189 HD
HETATM   29  N   UNL     1      26.166  43.261  51.676  1.00  0.00    -0.168 NA
ENDBRANCH   1  19
TORSDOF 5
ENDMDL
MODEL 2
REMARK VINA RESULT:      -9.2      2.352      3.223
REMARK  5 active torsions:
REMARK  status: ('A' for Active; 'I' for Inactive)
REMARK    1  A    between atoms: C_9  and  C_10 
REMARK       I    between atoms: C_10  and  N_11 
REMARK    2  A    between atoms: N_11  and  C_12 
REMARK    3  A    between atoms: C_15  and  C_16 
REMARK    4  A    between atoms: C_16  and  C_17 
REMARK       I    between atoms: C_17  and  N_18 
REMARK    5  A    between atoms: N_18  and  C_19 
ROOT
HETATM    1  C   UNL     1      26.598  46.693  54.190  1.00  0.00     0.277 C 
HETATM    2  N   UNL     1      26.890  46.417  52.866  1.00  0.00    -0.322 N 
HETATM    3  O   UNL     1      25.571  47.209  54.616  1.00  0.00    -0.266 OA
HETATM    4  H   UNL     1      27.814  46.007  52.744  1.00  0.00     0.169 HD
ENDROOT
BRANCH   2   5
HETATM    5  C   UNL     1      26.028  46.439  51.758  1.00  0.00     0.035 A 
HETATM    6  C   UNL     1      25.886  47.530  50.900  1.00  0.00     0.030 A 
HETATM    7  C   UNL     1      24.896  47.529  49.908  1.00  0.00     0.010 A 
HETATM    8  C   UNL     1      24.035  46.435  49.760  1.00  0.00    -0.049 A 
HETATM    9  C   UNL     1      24.226  45.314  50.576  1.00  0.00     0.010 A 
HETATM   10  C   UNL     1      25.216  45.317  51.563  1.00  0.00     0.030 A 
BRANCH   8  11
HETATM   11  C   UNL     1      22.874  46.489  48.795  1.00  0.00     0.141 C 
BRANCH  11  12
HETATM   12  C   UNL     1      22.269  47.847  48.493  1.00  0.00     0.222 C 
HETATM   13  N   UNL     1      21.408  48.363  49.433  1.00  0.00    -0.357 N 
HETATM   14  H   UNL     1      21.145  47.778  50.216  1.00  0.00     0.162 HD
HETATM   15  O   UNL     1      22.622  48.471  47.493  1.00  0.00    -0.273 OA
BRANCH  13  16
HETATM   16  C   UNL     1      20.841  49.706  49.374  1.00  0.00     0.076 C 
HETATM   17  C   UNL     1      19.530  49.803  50.153  1.00  0.00     0.032 C 
HETATM   18  C   UNL     1      21.830  50.787  49.805  1.00  0.00     0.032 C 
ENDBRANCH  13  16
ENDBRANCH  11  12
ENDBRANCH   8  11
ENDBRANCH   2   5
BRANCH   1  19
HETATM   19  C   UNL     1      27.682  46.238  55.084  1.00  0.00     0.157 A 
HETATM   20  C   UNL     1      28.577  45.145  54.881  1.00  0.00     0.029 A 
HETATM   21  C   UNL     1      28.759  44.148  53.901  1.00  0.00     0.023 A 
HETATM   22  C   UNL     1      29.454  45.192  55.957  1.00  0.00     0.063 A 
HETATM   23  C   UNL     1      29.819  43.234  54.031  1.00  0.00    -0.061 A 
HETATM   24  C   UNL     1      30.034  42.166  52.998  1.00  0.00     0.048 C 
HETATM   25  C   UNL     1      30.682  43.321  55.130  1.00  0.00     0.009 A 
HETATM   26  C   UNL     1      30.517  44.299  56.117  1.00  0.00     0.032 A 
HETATM   27  N   UNL     1      29.035  46.245  56.720  1.00  0.00    -0.277 N 
HETATM   28  H   UNL     1      29.445  46.573  57.587  1.00  0.00     0.189 HD
HETATM   29  N   UNL     1      27.973  46.907  56.225  1.00  0.00    -0.168 NA
ENDBRANCH   1  19
TORSDOF 5
ENDMDL
MODEL 3
REMARK VINA RESULT:      -8.9      1.687      2.667
REMARK  5 active torsions:
REMARK  status: ('A' for Active; 'I' for Inactive)
REMARK    1  A    between atoms: C_9  and  C_10 
REMARK       I    between atoms: C_10  and  N_11 
REMARK    2  A    between atoms: N_11  and  C_12 
REMARK    3  A    between atoms: C_15  and  C_16 
REMARK    4  A    between atoms: C_16  and  C_17 
REMARK       I    between atoms: C_17  and  N_18 
REMARK    5  A    between atoms: N_18  and  C_19 
ROOT
HETATM    1  C   UNL     1      26.980  44.789  53.399  1.00  0.00     0.277 C 
HETATM    2  N   UNL     1      26.946  45.168  52.069  1.00  0.00    -0.322 N 
HETATM    3  O   UNL     1      26.095  44.965  54.228  1.00  0.00    -0.266 OA
HETATM    4  H   UNL     1      27.805  44.940  51.572  1.00  0.00     0.169 HD
ENDROOT
BRANCH   2   5
HETATM    5  C   UNL     1      25.849  45.614  51.315  1.00  0.00     0.035 A 
HETATM    6  C   UNL     1      24.868  44.773  50.789  1.00  0.00     0.030 A 
HETATM    7  C   UNL     1      23.889  45.280  49.922  1.00  0.00     0.010 A 
HETATM    8  C   UNL     1      23.879  46.635  49.571  1.00  0.00    -0.049 A 
HETATM    9  C   UNL     1      24.822  47.488  50.156  1.00  0.00     0.010 A 
HETATM   10  C   UNL     1      25.796  46.981  51.022  1.00  0.00     0.030 A 
BRANCH   8  11
HETATM   11  C   UNL     1      22.923  47.155  48.524  1.00  0.00     0.141 C 
BRANCH  11  12
HETATM   12  C   UNL     1      22.756  48.658  48.404  1.00  0.00     0.222 C 
HETATM   13  N   UNL     1      21.934  49.265  49.325  1.00  0.00    -0.357 N 
HETATM   14  H   UNL     1      21.409  48.677  49.961  1.00  0.00     0.162 HD
HETATM   15  O   UNL     1      23.410  49.288  47.572  1.00  0.00    -0.273 OA
BRANCH  13  16
HETATM   16  C   UNL     1      21.763  50.709  49.445  1.00  0.00     0.076 C 
HETATM   17  C   UNL     1      20.654  51.226  48.531  1.00  0.00     0.032 C 
HETATM   18  C   UNL     1      21.558  51.165  50.888  1.00  0.00     0.032 C 
ENDBRANCH  13  16
ENDBRANCH  11  12
ENDBRANCH   8  11
ENDBRANCH   2   5
BRANCH   1  19
HETATM   19  C   UNL     1      28.233  44.074  53.721  1.00  0.00     0.157 A 
HETATM   20  C   UNL     1      29.122  44.323  54.808  1.00  0.00     0.029 A 
HETATM   21  C   UNL     1      29.201  45.252  55.866  1.00  0.00     0.023 A 
HETATM   22  C   UNL     1      30.090  43.331  54.717  1.00  0.00     0.063 A 
HETATM   23  C   UNL     1      30.246  45.150  56.800  1.00  0.00    -0.061 A 
HETATM   24  C   UNL     1      30.349  46.125  57.937  1.00  0.00     0.048 C 
HETATM   25  C   UNL     1      31.198  44.131  56.673  1.00  0.00     0.009 A 
HETATM   26  C   UNL     1      31.142  43.201  55.628  1.00  0.00     0.032 A 
HETATM   27  N   UNL     1      29.753  42.597  53.615  1.00  0.00    -0.277 N 
HETATM   28  H   UNL     1      30.242  41.788  53.246  1.00  0.00     0.189 HD
HETATM   29  N   UNL     1      28.634  43.008  52.989  1.00  0.00    -0.168 NA
ENDBRANCH   1  19
TORSDOF 5
ENDMDL
MODEL 4
REMARK VINA RESULT:      -8.8      1.886      2.383
REMARK  5 active torsions:
REMARK  status: ('A' for Active; 'I' for Inactive)
REMARK    1  A    between atoms: C_9  and  C_10 
REMARK       I    between atoms: C_10  and  N_11 
REMARK    2  A    between atoms: N_11  and  C_12 
REMARK    3  A    between atoms: C_15  and  C_16 
REMARK    4  A    between atoms: C_16  and  C_17 
REMARK       I    between atoms: C_17  and  N_18 
REMARK    5  A    between atoms: N_18  and  C_19 
ROOT
HETATM    1  C   UNL     1      25.862  44.339  52.316  1.00  0.00     0.277 C 
HETATM    2  N   UNL     1      25.945  45.195  51.232  1.00  0.00    -0.322 N 
HETATM    3  O   UNL     1      24.872  44.138  53.010  1.00  0.00    -0.266 OA
HETATM    4  H   UNL     1      26.876  45.220  50.819  1.00  0.00     0.169 HD
ENDROOT
BRANCH   2   5
HETATM    5  C   UNL     1      24.903  45.836  50.543  1.00  0.00     0.035 A 
HETATM    6  C   UNL     1      23.979  45.175  49.732  1.00  0.00     0.030 A 
HETATM    7  C   UNL     1      23.063  45.904  48.961  1.00  0.00     0.010 A 
HETATM    8  C   UNL     1      23.059  47.303  48.990  1.00  0.00    -0.049 A 
HETATM    9  C   UNL     1      23.941  47.960  49.857  1.00  0.00     0.010 A 
HETATM   10  C   UNL     1      24.851  47.231  50.628  1.00  0.00     0.030 A 
BRANCH   8  11
HETATM   11  C   UNL     1      22.179  48.094  48.052  1.00  0.00     0.141 C 
BRANCH  11  12
HETATM   12  C   UNL     1      20.714  48.245  48.415  1.00  0.00     0.222 C 
HETATM   13  N   UNL     1      20.430  48.979  49.544  1.00  0.00    -0.357 N 
HETATM   14  H   UNL     1      21.201  49.288  50.123  1.00  0.00     0.162 HD
HETATM   15  O   UNL     1      19.843  47.802  47.667  1.00  0.00    -0.273 OA
BRANCH  13  16
HETATM   16  C   UNL     1      19.082  49.339  49.968  1.00  0.00     0.076 C 
HETATM   17  C   UNL     1      18.678  48.615  51.251  1.00  0.00     0.032 C 
HETATM   18  C   UNL     1      18.881  50.848  50.089  1.00  0.00     0.032 C 
ENDBRANCH  13  16
ENDBRANCH  11  12
ENDBRANCH   8  11
ENDBRANCH   2   5
BRANCH   1  19
HETATM   19  C   UNL     1      27.137  43.624  52.532  1.00  0.00     0.157 A 
HETATM   20  C   UNL     1      28.134  43.899  53.515  1.00  0.00     0.029 A 
HETATM   21  C   UNL     1      28.325  44.860  54.529  1.00  0.00     0.023 A 
HETATM   22  C   UNL     1      29.082  42.896  53.359  1.00  0.00     0.063 A 
HETATM   23  C   UNL     1      29.459  44.779  55.356  1.00  0.00    -0.061 A 
HETATM   24  C   UNL     1      29.682  45.789  56.444  1.00  0.00     0.048 C 
HETATM   25  C   UNL     1      30.387  43.747  55.166  1.00  0.00     0.009 A 
HETATM   26  C   UNL     1      30.219  42.786  54.163  1.00  0.00     0.032 A 
HETATM   27  N   UNL     1      28.630  42.130  52.321  1.00  0.00    -0.277 N 
HETATM   28  H   UNL     1      29.074  41.306  51.932  1.00  0.00     0.189 HD
HETATM   29  N   UNL     1      27.456  42.531  51.799  1.00  0.00    -0.168 NA
ENDBRANCH   1  19
TORSDOF 5
ENDMDL
MODEL 5
REMARK VINA RESULT:      -8.7      2.063      9.730
REMARK  5 active torsions:
REMARK  status: ('A' for Active; 'I' for Inactive)
REMARK    1  A    between atoms: C_9  and  C_10 
REMARK       I    between atoms: C_10  and  N_11 
REMARK    2  A    between atoms: N_11  and  C_12 
REMARK    3  A    between atoms: C_15  and  C_16 
REMARK    4  A    between atoms: C_16  and  C_17 
REMARK       I    between atoms: C_17  and  N_18 
REMARK    5  A    between atoms: N_18  and  C_19 
ROOT
HETATM    1  C   UNL     1      23.642  47.713  49.333  1.00  0.00     0.277 C 
HETATM    2  N   UNL     1      24.900  47.811  49.901  1.00  0.00    -0.322 N 
HETATM    3  O   UNL     1      23.074  46.680  48.999  1.00  0.00    -0.266 OA
HETATM    4  H   UNL     1      25.179  48.775  50.076  1.00  0.00     0.169 HD
ENDROOT
BRANCH   2   5
HETATM    5  C   UNL     1      25.703  46.788  50.429  1.00  0.00     0.035 A 
HETATM    6  C   UNL     1      26.535  45.973  49.661  1.00  0.00     0.030 A 
HETATM    7  C   UNL     1      27.189  44.878  50.243  1.00  0.00     0.010 A 
HETATM    8  C   UNL     1      27.019  44.584  51.601  1.00  0.00    -0.049 A 
HETATM    9  C   UNL     1      26.239  45.444  52.383  1.00  0.00     0.010 A 
HETATM   10  C   UNL     1      25.590  46.537  51.801  1.00  0.00     0.030 A 
BRANCH   8  11
HETATM   11  C   UNL     1      27.598  43.323  52.198  1.00  0.00     0.141 C 
BRANCH  11  12
HETATM   12  C   UNL     1      27.983  43.348  53.665  1.00  0.00     0.222 C 
HETATM   13  N   UNL     1      29.053  44.143  54.009  1.00  0.00    -0.357 N 
HETATM   14  H   UNL     1      29.583  44.582  53.268  1.00  0.00     0.162 HD
HETATM   15  O   UNL     1      27.299  42.750  54.494  1.00  0.00    -0.273 OA
BRANCH  13  16
HETATM   16  C   UNL     1      29.478  44.393  55.382  1.00  0.00     0.076 C 
HETATM   17  C   UNL     1      30.822  43.736  55.688  1.00  0.00     0.032 C 
HETATM   18  C   UNL     1      29.486  45.878  55.739  1.00  0.00     0.032 C 
ENDBRANCH  13  16
ENDBRANCH  11  12
ENDBRANCH   8  11
ENDBRANCH   2   5
BRANCH   1  19
HETATM   19  C   UNL     1      23.005  49.040  49.209  1.00  0.00     0.157 A 
HETATM   20  C   UNL     1      21.610  49.336  49.177  1.00  0.00     0.029 A 
HETATM   21  C   UNL     1      20.411  48.593  49.202  1.00  0.00     0.023 A 
HETATM   22  C   UNL     1      21.535  50.722  49.140  1.00  0.00     0.063 A 
HETATM   23  C   UNL     1      19.178  49.267  49.195  1.00  0.00    -0.061 A 
HETATM   24  C   UNL     1      17.889  48.498  49.226  1.00  0.00     0.048 C 
HETATM   25  C   UNL     1      19.150  50.667  49.163  1.00  0.00     0.009 A 
HETATM   26  C   UNL     1      20.327  51.424  49.133  1.00  0.00     0.032 A 
HETATM   27  N   UNL     1      22.831  51.154  49.126  1.00  0.00    -0.277 N 
HETATM   28  H   UNL     1      23.155  52.115  49.100  1.00  0.00     0.189 HD
HETATM   29  N   UNL     1      23.749  50.171  49.174  1.00  0.00    -0.168 NA
ENDBRANCH   1  19
TORSDOF 5
ENDMDL
MODEL 6
REMARK VINA RESULT:      -8.6      2.754      4.612
REMARK  5 active torsions:
REMARK  status: ('A' for Active; 'I' for Inactive)
REMARK    1  A    between atoms: C_9  and  C_10 
REMARK       I    between atoms: C_10  and  N_11 
REMARK    2  A    between atoms: N_11  and  C_12 
REMARK    3  A    between atoms: C_15  and  C_16 
REMARK    4  A    between atoms: C_16  and  C_17 
REMARK       I    between atoms: C_17  and  N_18 
REMARK    5  A    between atoms: N_18  and  C_19 
ROOT
HETATM    1  C   UNL     1      23.964  48.077  49.705  1.00  0.00     0.277 C 
HETATM    2  N   UNL     1      22.600  48.167  49.491  1.00  0.00    -0.322 N 
HETATM    3  O   UNL     1      24.791  48.960  49.505  1.00  0.00    -0.266 OA
HETATM    4  H   UNL     1      22.110  47.300  49.705  1.00  0.00     0.169 HD
ENDROOT
BRANCH   2   5
HETATM    5  C   UNL     1      21.829  49.310  49.227  1.00  0.00     0.035 A 
HETATM    6  C   UNL     1      21.433  50.227  50.201  1.00  0.00     0.030 A 
HETATM    7  C   UNL     1      20.540  51.260  49.883  1.00  0.00     0.010 A 
HETATM    8  C   UNL     1      20.033  51.389  48.584  1.00  0.00    -0.049 A 
HETATM    9  C   UNL     1      20.487  50.510  47.594  1.00  0.00     0.010 A 
HETATM   10  C   UNL     1      21.379  49.483  47.914  1.00  0.00     0.030 A 
BRANCH   8  11
HETATM   11  C   UNL     1      18.959  52.404  48.271  1.00  0.00     0.141 C 
BRANCH  11  12
HETATM   12  C   UNL     1      17.534  52.072  48.672  1.00  0.00     0.222 C 
HETATM   13  N   UNL     1      16.671  53.133  48.824  1.00  0.00    -0.357 N 
HETATM   14  H   UNL     1      17.048  54.071  48.764  1.00  0.00     0.162 HD
HETATM   15  O   UNL     1      17.174  50.899  48.759  1.00  0.00    -0.273 OA
BRANCH  13  16
HETATM   16  C   UNL     1      15.241  52.997  49.073  1.00  0.00     0.076 C 
HETATM   17  C   UNL     1      14.919  53.026  50.566  1.00  0.00     0.032 C 
HETATM   18  C   UNL     1      14.404  54.013  48.300  1.00  0.00     0.032 C 
ENDBRANCH  13  16
ENDBRANCH  11  12
ENDBRANCH   8  11
ENDBRANCH   2   5
BRANCH   1  19
HETATM   19  C   UNL     1      24.332  46.764  50.273  1.00  0.00     0.157 A 
HETATM   20  C   UNL     1      25.033  46.507  51.488  1.00  0.00     0.029 A 
HETATM   21  C   UNL     1      25.629  47.284  52.503  1.00  0.00     0.023 A 
HETATM   22  C   UNL     1      25.048  45.123  51.611  1.00  0.00     0.063 A 
HETATM   23  C   UNL     1      26.213  46.646  53.611  1.00  0.00    -0.061 A 
HETATM   24  C   UNL     1      26.849  47.452  54.706  1.00  0.00     0.048 C 
HETATM   25  C   UNL     1      26.200  45.248  53.697  1.00  0.00     0.009 A 
HETATM   26  C   UNL     1      25.620  44.457  52.699  1.00  0.00     0.032 A 
HETATM   27  N   UNL     1      24.406  44.655  50.499  1.00  0.00    -0.277 N 
HETATM   28  H   UNL     1      24.233  43.685  50.257  1.00  0.00     0.189 HD
HETATM   29  N   UNL     1      23.953  45.613  49.670  1.00  0.00    -0.168 NA
ENDBRANCH   1  19
TORSDOF 5
ENDMDL
MODEL 7
REMARK VINA RESULT:      -8.5      1.673      2.438
REMARK  5 active torsions:
REMARK  status: ('A' for Active; 'I' for Inactive)
REMARK    1  A    between atoms: C_9  and  C_10 
REMARK       I    between atoms: C_10  and  N_11 
REMARK    2  A    between atoms: N_11  and  C_12 
REMARK    3  A    between atoms: C_15  and  C_16 
REMARK    4  A    between atoms: C_16  and  C_17 
REMARK       I    between atoms: C_17  and  N_18 
REMARK    5  A    between atoms: N_18  and  C_19 
ROOT
HETATM    1  C   UNL     1      26.771  44.963  50.514  1.00  0.00     0.277 C 
HETATM    2  N   UNL     1      25.754  45.853  50.811  1.00  0.00    -0.322 N 
HETATM    3  O   UNL     1      27.287  44.790  49.416  1.00  0.00    -0.266 OA
HETATM    4  H   UNL     1      25.465  45.810  51.787  1.00  0.00     0.169 HD
ENDROOT
BRANCH   2   5
HETATM    5  C   UNL     1      25.246  46.896  50.021  1.00  0.00     0.035 A 
HETATM    6  C   UNL     1      25.974  48.032  49.664  1.00  0.00     0.030 A 
HETATM    7  C   UNL     1      25.348  49.096  49.000  1.00  0.00     0.010 A 
HETATM    8  C   UNL     1      23.986  49.037  48.683  1.00  0.00    -0.049 A 
HETATM    9  C   UNL     1      23.276  47.868  48.980  1.00  0.00     0.010 A 
HETATM   10  C   UNL     1      23.903  46.807  49.640  1.00  0.00     0.030 A 
BRANCH   8  11
HETATM   11  C   UNL     1      23.274  50.237  48.104  1.00  0.00     0.141 C 
BRANCH  11  12
HETATM   12  C   UNL     1      22.263  50.951  48.982  1.00  0.00     0.222 C 
HETATM   13  N   UNL     1      21.007  51.136  48.452  1.00  0.00    -0.357 N 
HETATM   14  H   UNL     1      20.852  50.885  47.483  1.00  0.00     0.162 HD
HETATM   15  O   UNL     1      22.553  51.254  50.138  1.00  0.00    -0.273 OA
BRANCH  13  16
HETATM   16  C   UNL     1      19.876  51.678  49.197  1.00  0.00     0.076 C 
HETATM   17  C   UNL     1      18.975  52.539  48.313  1.00  0.00     0.032 C 
HETATM   18  C   UNL     1      19.078  50.603  49.931  1.00  0.00     0.032 C 
ENDBRANCH  13  16
ENDBRANCH  11  12
ENDBRANCH   8  11
ENDBRANCH   2   5
BRANCH   1  19
HETATM   19  C   UNL     1      27.224  44.244  51.723  1.00  0.00     0.157 A 
HETATM   20  C   UNL     1      27.694  42.900  51.811  1.00  0.00     0.029 A 
HETATM   21  C   UNL     1      27.863  41.821  50.920  1.00  0.00     0.023 A 
HETATM   22  C   UNL     1      28.076  42.738  53.137  1.00  0.00     0.063 A 
HETATM   23  C   UNL     1      28.415  40.616  51.388  1.00  0.00    -0.061 A 
HETATM   24  C   UNL     1      28.607  39.454  50.457  1.00  0.00     0.048 C 
HETATM   25  C   UNL     1      28.791  40.498  52.732  1.00  0.00     0.009 A 
HETATM   26  C   UNL     1      28.628  41.554  53.635  1.00  0.00     0.032 A 
HETATM   27  N   UNL     1      27.800  43.932  53.742  1.00  0.00    -0.277 N 
HETATM   28  H   UNL     1      27.953  44.173  54.715  1.00  0.00     0.189 HD
HETATM   29  N   UNL     1      27.292  44.870  52.922  1.00  0.00    -0.168 NA
ENDBRANCH   1  19
TORSDOF 5
ENDMDL
MODEL 8
REMARK VINA RESULT:      -8.0      5.592      7.515
REMARK  5 active torsions:
REMARK  status: ('A' for Active; 'I' for Inactive)
REMARK    1  A    between atoms: C_9  and  C_10 
REMARK       I    between atoms: C_10  and  N_11 
REMARK    2  A    between atoms: N_11  and  C_12 
REMARK    3  A    between atoms: C_15  and  C_16 
REMARK    4  A    between atoms: C_16  and  C_17 
REMARK       I    between atoms: C_17  and  N_18 
REMARK    5  A    between atoms: N_18  and  C_19 
ROOT
HETATM    1  C   UNL     1      28.113  43.897  52.829  1.00  0.00     0.277 C 
HETATM    2  N   UNL     1      26.809  43.552  52.522  1.00  0.00    -0.322 N 
HETATM    3  O   UNL     1      29.113  43.605  52.183  1.00  0.00    -0.266 OA
HETATM    4  H   UNL     1      26.140  43.884  53.215  1.00  0.00     0.169 HD
ENDROOT
BRANCH   2   5
HETATM    5  C   UNL     1      26.305  43.010  51.329  1.00  0.00     0.035 A 
HETATM    6  C   UNL     1      25.611  43.746  50.369  1.00  0.00     0.030 A 
HETATM    7  C   UNL     1      25.010  43.102  49.278  1.00  0.00     0.010 A 
HETATM    8  C   UNL     1      25.097  41.712  49.134  1.00  0.00    -0.049 A 
HETATM    9  C   UNL     1      25.854  40.986  50.062  1.00  0.00     0.010 A 
HETATM   10  C   UNL     1      26.453  41.631  51.147  1.00  0.00     0.030 A 
BRANCH   8  11
HETATM   11  C   UNL     1      24.329  40.997  48.047  1.00  0.00     0.141 C 
BRANCH  11  12
HETATM   12  C   UNL     1      25.120  40.397  46.900  1.00  0.00     0.222 C 
HETATM   13  N   UNL     1      25.940  41.253  46.201  1.00  0.00    -0.357 N 
HETATM   14  H   UNL     1      25.898  42.242  46.415  1.00  0.00     0.162 HD
HETATM   15  O   UNL     1      25.080  39.186  46.689  1.00  0.00    -0.273 OA
BRANCH  13  16
HETATM   16  C   UNL     1      26.870  40.828  45.160  1.00  0.00     0.076 C 
HETATM   17  C   UNL     1      26.602  41.540  43.835  1.00  0.00     0.032 C 
HETATM   18  C   UNL     1      28.332  40.959  45.581  1.00  0.00     0.032 C 
ENDBRANCH  13  16
ENDBRANCH  11  12
ENDBRANCH   8  11
ENDBRANCH   2   5
BRANCH   1  19
HETATM   19  C   UNL     1      28.175  44.734  54.045  1.00  0.00     0.157 A 
HETATM   20  C   UNL     1      29.117  44.648  55.113  1.00  0.00     0.029 A 
HETATM   21  C   UNL     1      30.211  43.822  55.441  1.00  0.00     0.023 A 
HETATM   22  C   UNL     1      28.800  45.703  55.959  1.00  0.00     0.063 A 
HETATM   23  C   UNL     1      30.953  44.084  56.606  1.00  0.00    -0.061 A 
HETATM   24  C   UNL     1      32.124  43.220  56.973  1.00  0.00     0.048 C 
HETATM   25  C   UNL     1      30.600  45.162  57.428  1.00  0.00     0.009 A 
HETATM   26  C   UNL     1      29.516  45.992  57.124  1.00  0.00     0.032 A 
HETATM   27  N   UNL     1      27.718  46.313  55.388  1.00  0.00    -0.277 N 
HETATM   28  H   UNL     1      27.219  47.123  55.737  1.00  0.00     0.189 HD
HETATM   29  N   UNL     1      27.314  45.763  54.228  1.00  0.00    -0.168 NA
ENDBRANCH   1  19
TORSDOF 5
ENDMDL
MODEL 9
REMARK VINA RESULT:      -8.0     12.298     14.270
REMARK  5 active torsions:
REMARK  status: ('A' for Active; 'I' for Inactive)
REMARK    1  A    between atoms: C_9  and  C_10 
REMARK       I    between atoms: C_10  and  N_11 
REMARK    2  A    between atoms: N_11  and  C_12 
REMARK    3  A    between atoms: C_15  and  C_16 
REMARK    4  A    between atoms: C_16  and  C_17 
REMARK       I    between atoms: C_17  and  N_18 
REMARK    5  A    between atoms: N_18  and  C_19 
ROOT
HETATM    1  C   UNL     1      36.452  52.156  43.228  1.00  0.00     0.277 C 
HETATM    2  N   UNL     1      35.076  52.250  43.336  1.00  0.00    -0.322 N 
HETATM    3  O   UNL     1      37.095  51.140  42.991  1.00  0.00    -0.266 OA
HETATM    4  H   UNL     1      34.762  53.192  43.562  1.00  0.00     0.169 HD
ENDROOT
BRANCH   2   5
HETATM    5  C   UNL     1      34.105  51.299  42.984  1.00  0.00     0.035 A 
HETATM    6  C   UNL     1      34.251  50.381  41.943  1.00  0.00     0.030 A 
HETATM    7  C   UNL     1      33.176  49.567  41.559  1.00  0.00     0.010 A 
HETATM    8  C   UNL     1      31.941  49.660  42.212  1.00  0.00    -0.049 A 
HETATM    9  C   UNL     1      31.820  50.532  43.300  1.00  0.00     0.010 A 
HETATM   10  C   UNL     1      32.894  51.341  43.683  1.00  0.00     0.030 A 
BRANCH   8  11
HETATM   11  C   UNL     1      30.740  48.896  41.707  1.00  0.00     0.141 C 
BRANCH  11  12
HETATM   12  C   UNL     1      29.425  49.644  41.589  1.00  0.00     0.222 C 
HETATM   13  N   UNL     1      29.364  50.641  40.642  1.00  0.00    -0.357 N 
HETATM   14  H   UNL     1      30.214  50.891  40.152  1.00  0.00     0.162 HD
HETATM   15  O   UNL     1      28.452  49.292  42.255  1.00  0.00    -0.273 OA
BRANCH  13  16
HETATM   16  C   UNL     1      28.148  51.369  40.298  1.00  0.00     0.076 C 
HETATM   17  C   UNL     1      27.938  52.582  41.204  1.00  0.00     0.032 C 
HETATM   18  C   UNL     1      28.085  51.756  38.822  1.00  0.00     0.032 C 
ENDBRANCH  13  16
ENDBRANCH  11  12
ENDBRANCH   8  11
ENDBRANCH   2   5
BRANCH   1  19
HETATM   19  C   UNL     1      37.094  53.477  43.389  1.00  0.00     0.157 A 
HETATM   20  C   UNL     1      37.696  54.015  44.564  1.00  0.00     0.029 A 
HETATM   21  C   UNL     1      37.875  53.597  45.899  1.00  0.00     0.023 A 
HETATM   22  C   UNL     1      38.226  55.238  44.172  1.00  0.00     0.063 A 
HETATM   23  C   UNL     1      38.585  54.417  46.793  1.00  0.00    -0.061 A 
HETATM   24  C   UNL     1      38.792  53.990  48.217  1.00  0.00     0.048 C 
HETATM   25  C   UNL     1      39.107  55.639  46.352  1.00  0.00     0.009 A 
HETATM   26  C   UNL     1      38.937  56.077  45.034  1.00  0.00     0.032 A 
HETATM   27  N   UNL     1      37.901  55.365  42.851  1.00  0.00    -0.277 N 
HETATM   28  H   UNL     1      38.128  56.140  42.237  1.00  0.00     0.189 HD
HETATM   29  N   UNL     1      37.223  54.321  42.338  1.00  0.00    -0.168 NA
ENDBRANCH   1  19
TORSDOF 5
ENDMDL
MODEL 10
REMARK VINA RESULT:      -7.9     18.598     21.498
REMARK  5 active torsions:
REMARK  status: ('A' for Active; 'I' for Inactive)
REMARK    1  A    between atoms: C_9  and  C_10 
REMARK       I    between atoms: C_10  and  N_11 
REMARK    2  A    between atoms: N_11  and  C_12 
REMARK    3  A    between atoms: C_15  and  C_16 
REMARK    4  A    between atoms: C_16  and  C_17 
REMARK       I    between atoms: C_17  and  N_18 
REMARK    5  A    between atoms: N_18  and  C_19 
ROOT
HETATM    1  C   UNL     1      38.620  46.649  65.419  1.00  0.00     0.277 C 
HETATM    2  N   UNL     1      38.407  46.179  64.135  1.00  0.00    -0.322 N 
HETATM    3  O   UNL     1      38.722  45.971  66.434  1.00  0.00    -0.266 OA
HETATM    4  H   UNL     1      38.332  46.927  63.449  1.00  0.00     0.169 HD
ENDROOT
BRANCH   2   5
HETATM    5  C   UNL     1      38.487  44.859  63.664  1.00  0.00     0.035 A 
HETATM    6  C   UNL     1      37.396  43.994  63.572  1.00  0.00     0.030 A 
HETATM    7  C   UNL     1      37.584  42.647  63.234  1.00  0.00     0.010 A 
HETATM    8  C   UNL     1      38.867  42.147  62.983  1.00  0.00    -0.049 A 
HETATM    9  C   UNL     1      39.951  43.033  63.008  1.00  0.00     0.010 A 
HETATM   10  C   UNL     1      39.760  44.376  63.342  1.00  0.00     0.030 A 
BRANCH   8  11
HETATM   11  C   UNL     1      39.093  40.669  62.767  1.00  0.00     0.141 C 
BRANCH  11  12
HETATM   12  C   UNL     1      39.642  39.861  63.927  1.00  0.00     0.222 C 
HETATM   13  N   UNL     1      40.817  39.179  63.703  1.00  0.00    -0.357 N 
HETATM   14  H   UNL     1      41.194  39.166  62.764  1.00  0.00     0.162 HD
HETATM   15  O   UNL     1      39.094  39.907  65.027  1.00  0.00    -0.273 OA
BRANCH  13  16
HETATM   16  C   UNL     1      41.557  38.463  64.736  1.00  0.00     0.076 C 
HETATM   17  C   UNL     1      42.039  37.098  64.247  1.00  0.00     0.032 C 
HETATM   18  C   UNL     1      42.704  39.285  65.321  1.00  0.00     0.032 C 
ENDBRANCH  13  16
ENDBRANCH  11  12
ENDBRANCH   8  11
ENDBRANCH   2   5
BRANCH   1  19
HETATM   19  C   UNL     1      38.767  48.120  65.433  1.00  0.00     0.157 A 
HETATM   20  C   UNL     1      38.150  49.047  66.324  1.00  0.00     0.029 A 
HETATM   21  C   UNL     1      37.234  48.975  67.394  1.00  0.00     0.023 A 
HETATM   22  C   UNL     1      38.677  50.285  65.979  1.00  0.00     0.063 A 
HETATM   23  C   UNL     1      36.882  50.148  68.085  1.00  0.00    -0.061 A 
HETATM   24  C   UNL     1      35.912  50.095  69.229  1.00  0.00     0.048 C 
HETATM   25  C   UNL     1      37.442  51.374  67.705  1.00  0.00     0.009 A 
HETATM   26  C   UNL     1      38.349  51.470  66.644  1.00  0.00     0.032 A 
HETATM   27  N   UNL     1      39.519  50.040  64.931  1.00  0.00    -0.277 N 
HETATM   28  H   UNL     1      40.077  50.718  64.424  1.00  0.00     0.189 HD
HETATM   29  N   UNL     1      39.607  48.745  64.575  1.00  0.00    -0.168 NA
ENDBRANCH   1  19
TORSDOF 5
ENDMDL
