MODEL 1
REMARK VINA RESULT:      -8.0      0.000      0.000
REMARK  3 active torsions:
REMARK  status: ('A' for Active; 'I' for Inactive)
REMARK    1  A    between atoms: C_3  and  N_4 
REMARK       I    between atoms: N_4  and  C_5 
REMARK    2  A    between atoms: C_5  and  C_6 
REMARK    3  A    between atoms: C_6  and  C_7 
ROOT
HETATM    1  C   UNL     1      23.759  47.771  49.013  1.00  0.00     0.286 C 
HETATM    2  N   UNL     1      23.738  46.538  49.909  1.00  0.00    -0.056 N 
HETATM    3  H   UNL     1      23.491  46.883  50.861  1.00  0.00     0.278 HD
HETATM    4  H   UNL     1      22.980  45.903  49.633  1.00  0.00     0.278 HD
HETATM    5  C   UNL     1      25.067  45.826  49.933  1.00  0.00     0.209 C 
HETATM    6  C   UNL     1      26.158  46.807  50.437  1.00  0.00     0.115 C 
HETATM    7  N   UNL     1      26.125  48.083  49.722  1.00  0.00    -0.353 N 
HETATM    8  C   UNL     1      24.975  48.688  49.273  1.00  0.00     0.249 C 
HETATM    9  O   UNL     1      24.975  49.883  49.004  1.00  0.00    -0.271 OA
HETATM   10  C   UNL     1      24.955  44.568  50.791  1.00  0.00     0.035 C 
HETATM   11  C   UNL     1      24.863  44.865  52.286  1.00  0.00     0.002 C 
HETATM   12  C   UNL     1      26.009  45.758  52.747  1.00  0.00     0.002 C 
HETATM   13  C   UNL     1      26.065  47.058  51.950  1.00  0.00     0.027 C 
HETATM   14  H   UNL     1      26.895  48.733  49.865  1.00  0.00     0.163 HD
ENDROOT
BRANCH   1  15
HETATM   15  C   UNL     1      22.441  48.547  49.108  1.00  0.00     0.146 C 
BRANCH  15  16
HETATM   16  C   UNL     1      21.547  48.194  47.943  1.00  0.00     0.224 C 
HETATM   17  N   UNL     1      20.341  48.791  47.757  1.00  0.00    -0.327 N 
HETATM   18  H   UNL     1      19.764  48.303  47.077  1.00  0.00     0.169 HD
HETATM   19  O   UNL     1      21.930  47.316  47.157  1.00  0.00    -0.273 OA
BRANCH  17  20
HETATM   20  C   UNL     1      19.740  49.904  48.380  1.00  0.00     0.040 A 
HETATM   21  C   UNL     1      18.813  49.677  49.420  1.00  0.00    -0.035 A 
HETATM   22  C   UNL     1      18.478  48.296  49.919  1.00  0.00     0.050 C 
HETATM   23  C   UNL     1      18.180  50.774  50.030  1.00  0.00     0.009 A 
HETATM   24  C   UNL     1      18.450  52.076  49.617  1.00  0.00     0.001 A 
HETATM   25  C   UNL     1      19.343  52.297  48.578  1.00  0.00     0.002 A 
HETATM   26  C   UNL     1      19.978  51.218  47.958  1.00  0.00     0.030 A 
ENDBRANCH  17  20
ENDBRANCH  15  16
ENDBRANCH   1  15
TORSDOF 3
ENDMDL
MODEL 2
REMARK VINA RESULT:      -8.0      4.939      8.980
REMARK  3 active torsions:
REMARK  status: ('A' for Active; 'I' for Inactive)
REMARK    1  A    between atoms: C_3  and  N_4 
REMARK       I    between atoms: N_4  and  C_5 
REMARK    2  A    between atoms: C_5  and  C_6 
REMARK    3  A    between atoms: C_6  and  C_7 
ROOT
HETATM    1  C   UNL     1      26.195  45.603  51.112  1.00  0.00     0.286 C 
HETATM    2  N   UNL     1      24.719  45.543  50.736  1.00  0.00    -0.056 N 
HETATM    3  H   UNL     1      24.306  44.789  51.326  1.00  0.00     0.278 HD
HETATM    4  H   UNL     1      24.241  46.409  51.011  1.00  0.00     0.278 HD
HETATM    5  C   UNL     1      24.512  45.243  49.273  1.00  0.00     0.209 C 
HETATM    6  C   UNL     1      25.182  43.885  48.936  1.00  0.00     0.115 C 
HETATM    7  N   UNL     1      26.562  43.816  49.418  1.00  0.00    -0.353 N 
HETATM    8  C   UNL     1      27.003  44.397  50.583  1.00  0.00     0.249 C 
HETATM    9  O   UNL     1      28.050  44.022  51.099  1.00  0.00    -0.271 OA
HETATM   10  C   UNL     1      23.019  45.266  48.955  1.00  0.00     0.035 C 
HETATM   11  C   UNL     1      22.266  44.060  49.512  1.00  0.00     0.002 C 
HETATM   12  C   UNL     1      22.913  42.751  49.076  1.00  0.00     0.002 C 
HETATM   13  C   UNL     1      24.383  42.688  49.476  1.00  0.00     0.027 C 
HETATM   14  H   UNL     1      27.139  43.035  49.113  1.00  0.00     0.163 HD
ENDROOT
BRANCH   1  15
HETATM   15  C   UNL     1      26.375  45.779  52.624  1.00  0.00     0.146 C 
BRANCH  15  16
HETATM   16  C   UNL     1      25.874  44.554  53.351  1.00  0.00     0.224 C 
HETATM   17  N   UNL     1      26.689  43.799  54.132  1.00  0.00    -0.327 N 
HETATM   18  H   UNL     1      26.281  42.900  54.370  1.00  0.00     0.169 HD
HETATM   19  O   UNL     1      24.687  44.229  53.201  1.00  0.00    -0.273 OA
BRANCH  17  20
HETATM   20  C   UNL     1      28.002  44.016  54.601  1.00  0.00     0.040 A 
HETATM   21  C   UNL     1      28.971  43.013  54.383  1.00  0.00    -0.035 A 
HETATM   22  C   UNL     1      28.668  41.744  53.631  1.00  0.00     0.050 C 
HETATM   23  C   UNL     1      30.276  43.198  54.873  1.00  0.00     0.009 A 
HETATM   24  C   UNL     1      30.620  44.350  55.573  1.00  0.00     0.001 A 
HETATM   25  C   UNL     1      29.660  45.325  55.809  1.00  0.00     0.002 A 
HETATM   26  C   UNL     1      28.357  45.156  55.332  1.00  0.00     0.030 A 
ENDBRANCH  17  20
ENDBRANCH  15  16
ENDBRANCH   1  15
TORSDOF 3
ENDMDL
MODEL 3
REMARK VINA RESULT:      -8.0      5.483     10.224
REMARK  3 active torsions:
REMARK  status: ('A' for Active; 'I' for Inactive)
REMARK    1  A    between atoms: C_3  and  N_4 
REMARK       I    between atoms: N_4  and  C_5 
REMARK    2  A    between atoms: C_5  and  C_6 
REMARK    3  A    between atoms: C_6  and  C_7 
ROOT
HETATM    1  C   UNL     1      26.685  43.951  53.081  1.00  0.00     0.286 C 
HETATM    2  N   UNL     1      27.270  44.746  51.919  1.00  0.00    -0.056 N 
HETATM    3  H   UNL     1      27.407  45.715  52.279  1.00  0.00     0.278 HD
HETATM    4  H   UNL     1      28.205  44.399  51.679  1.00  0.00     0.278 HD
HETATM    5  C   UNL     1      26.361  44.752  50.716  1.00  0.00     0.209 C 
HETATM    6  C   UNL     1      24.993  45.363  51.118  1.00  0.00     0.115 C 
HETATM    7  N   UNL     1      24.450  44.750  52.330  1.00  0.00    -0.353 N 
HETATM    8  C   UNL     1      25.215  44.317  53.386  1.00  0.00     0.249 C 
HETATM    9  O   UNL     1      24.703  44.142  54.486  1.00  0.00    -0.271 OA
HETATM   10  C   UNL     1      27.037  45.506  49.572  1.00  0.00     0.035 C 
HETATM   11  C   UNL     1      27.085  47.016  49.792  1.00  0.00     0.002 C 
HETATM   12  C   UNL     1      25.701  47.579  50.094  1.00  0.00     0.002 C 
HETATM   13  C   UNL     1      25.063  46.888  51.295  1.00  0.00     0.027 C 
HETATM   14  H   UNL     1      23.490  44.966  52.589  1.00  0.00     0.163 HD
ENDROOT
BRANCH   1  15
HETATM   15  C   UNL     1      27.564  44.068  54.331  1.00  0.00     0.146 C 
BRANCH  15  16
HETATM   16  C   UNL     1      28.968  43.606  54.021  1.00  0.00     0.224 C 
HETATM   17  N   UNL     1      30.031  43.979  54.781  1.00  0.00    -0.327 N 
HETATM   18  H   UNL     1      30.921  43.783  54.333  1.00  0.00     0.169 HD
HETATM   19  O   UNL     1      29.142  42.886  53.027  1.00  0.00    -0.273 OA
BRANCH  17  20
HETATM   20  C   UNL     1      30.107  44.638  56.026  1.00  0.00     0.040 A 
HETATM   21  C   UNL     1      31.036  44.171  56.981  1.00  0.00    -0.035 A 
HETATM   22  C   UNL     1      31.978  43.029  56.704  1.00  0.00     0.050 C 
HETATM   23  C   UNL     1      31.103  44.795  58.240  1.00  0.00     0.009 A 
HETATM   24  C   UNL     1      30.262  45.859  58.556  1.00  0.00     0.001 A 
HETATM   25  C   UNL     1      29.331  46.301  57.625  1.00  0.00     0.002 A 
HETATM   26  C   UNL     1      29.249  45.689  56.371  1.00  0.00     0.030 A 
ENDBRANCH  17  20
ENDBRANCH  15  16
ENDBRANCH   1  15
TORSDOF 3
ENDMDL
MODEL 4
REMARK VINA RESULT:      -8.0      6.056     10.439
REMARK  3 active torsions:
REMARK  status: ('A' for Active; 'I' for Inactive)
REMARK    1  A    between atoms: C_3  and  N_4 
REMARK       I    between atoms: N_4  and  C_5 
REMARK    2  A    between atoms: C_5  and  C_6 
REMARK    3  A    between atoms: C_6  and  C_7 
ROOT
HETATM    1  C   UNL     1      28.107  43.276  52.134  1.00  0.00     0.286 C 
HETATM    2  N   UNL     1      27.365  44.544  51.728  1.00  0.00    -0.056 N 
HETATM    3  H   UNL     1      26.561  44.625  52.386  1.00  0.00     0.278 HD
HETATM    4  H   UNL     1      27.949  45.372  51.891  1.00  0.00     0.278 HD
HETATM    5  C   UNL     1      26.879  44.489  50.302  1.00  0.00     0.209 C 
HETATM    6  C   UNL     1      25.936  43.269  50.136  1.00  0.00     0.115 C 
HETATM    7  N   UNL     1      26.529  42.038  50.660  1.00  0.00    -0.353 N 
HETATM    8  C   UNL     1      27.345  41.984  51.764  1.00  0.00     0.249 C 
HETATM    9  O   UNL     1      27.520  40.920  52.347  1.00  0.00    -0.271 OA
HETATM   10  C   UNL     1      26.207  45.813  49.942  1.00  0.00     0.035 C 
HETATM   11  C   UNL     1      24.847  45.999  50.609  1.00  0.00     0.002 C 
HETATM   12  C   UNL     1      23.928  44.813  50.339  1.00  0.00     0.002 C 
HETATM   13  C   UNL     1      24.561  43.499  50.783  1.00  0.00     0.027 C 
HETATM   14  H   UNL     1      26.062  41.156  50.458  1.00  0.00     0.163 HD
ENDROOT
BRANCH   1  15
HETATM   15  C   UNL     1      28.476  43.302  53.622  1.00  0.00     0.146 C 
BRANCH  15  16
HETATM   16  C   UNL     1      29.958  43.062  53.791  1.00  0.00     0.224 C 
HETATM   17  N   UNL     1      30.685  43.705  54.742  1.00  0.00    -0.327 N 
HETATM   18  H   UNL     1      31.686  43.617  54.595  1.00  0.00     0.169 HD
HETATM   19  O   UNL     1      30.515  42.271  53.017  1.00  0.00    -0.273 OA
BRANCH  17  20
HETATM   20  C   UNL     1      30.297  44.510  55.834  1.00  0.00     0.040 A 
HETATM   21  C   UNL     1      30.931  44.310  57.079  1.00  0.00    -0.035 A 
HETATM   22  C   UNL     1      32.035  43.305  57.274  1.00  0.00     0.050 C 
HETATM   23  C   UNL     1      30.534  45.082  58.186  1.00  0.00     0.009 A 
HETATM   24  C   UNL     1      29.522  46.031  58.069  1.00  0.00     0.001 A 
HETATM   25  C   UNL     1      28.882  46.209  56.850  1.00  0.00     0.002 A 
HETATM   26  C   UNL     1      29.262  45.448  55.741  1.00  0.00     0.030 A 
ENDBRANCH  17  20
ENDBRANCH  15  16
ENDBRANCH   1  15
TORSDOF 3
ENDMDL
MODEL 5
REMARK VINA RESULT:      -7.9      3.532      6.252
REMARK  3 active torsions:
REMARK  status: ('A' for Active; 'I' for Inactive)
REMARK    1  A    between atoms: C_3  and  N_4 
REMARK       I    between atoms: N_4  and  C_5 
REMARK    2  A    between atoms: C_5  and  C_6 
REMARK    3  A    between atoms: C_6  and  C_7 
ROOT
HETATM    1  C   UNL     1      26.213  44.371  52.183  1.00  0.00     0.286 C 
HETATM    2  N   UNL     1      27.037  45.043  53.274  1.00  0.00    -0.056 N 
HETATM    3  H   UNL     1      27.973  45.227  52.851  1.00  0.00     0.278 HD
HETATM    4  H   UNL     1      26.647  45.964  53.507  1.00  0.00     0.278 HD
HETATM    5  C   UNL     1      27.174  44.179  54.503  1.00  0.00     0.209 C 
HETATM    6  C   UNL     1      27.845  42.838  54.105  1.00  0.00     0.115 C 
HETATM    7  N   UNL     1      27.196  42.216  52.951  1.00  0.00    -0.353 N 
HETATM    8  C   UNL     1      26.653  42.917  51.901  1.00  0.00     0.249 C 
HETATM    9  O   UNL     1      26.445  42.356  50.830  1.00  0.00    -0.271 OA
HETATM   10  C   UNL     1      27.951  44.939  55.576  1.00  0.00     0.035 C 
HETATM   11  C   UNL     1      29.438  45.072  55.262  1.00  0.00     0.002 C 
HETATM   12  C   UNL     1      30.068  43.716  54.968  1.00  0.00     0.002 C 
HETATM   13  C   UNL     1      29.349  42.995  53.832  1.00  0.00     0.027 C 
HETATM   14  H   UNL     1      27.457  41.263  52.710  1.00  0.00     0.163 HD
ENDROOT
BRANCH   1  15
HETATM   15  C   UNL     1      26.199  45.212  50.901  1.00  0.00     0.146 C 
BRANCH  15  16
HETATM   16  C   UNL     1      24.788  45.649  50.585  1.00  0.00     0.224 C 
HETATM   17  N   UNL     1      24.514  46.885  50.092  1.00  0.00    -0.327 N 
HETATM   18  H   UNL     1      23.526  47.115  50.140  1.00  0.00     0.169 HD
HETATM   19  O   UNL     1      23.864  44.855  50.811  1.00  0.00    -0.273 OA
BRANCH  17  20
HETATM   20  C   UNL     1      25.354  47.905  49.599  1.00  0.00     0.040 A 
HETATM   21  C   UNL     1      24.784  48.928  48.812  1.00  0.00    -0.035 A 
HETATM   22  C   UNL     1      23.308  48.997  48.518  1.00  0.00     0.050 C 
HETATM   23  C   UNL     1      25.612  49.936  48.285  1.00  0.00     0.009 A 
HETATM   24  C   UNL     1      26.983  49.931  48.524  1.00  0.00     0.001 A 
HETATM   25  C   UNL     1      27.547  48.910  49.278  1.00  0.00     0.002 A 
HETATM   26  C   UNL     1      26.739  47.899  49.805  1.00  0.00     0.030 A 
ENDBRANCH  17  20
ENDBRANCH  15  16
ENDBRANCH   1  15
TORSDOF 3
ENDMDL
MODEL 6
REMARK VINA RESULT:      -7.9      7.542      9.838
REMARK  3 active torsions:
REMARK  status: ('A' for Active; 'I' for Inactive)
REMARK    1  A    between atoms: C_3  and  N_4 
REMARK       I    between atoms: N_4  and  C_5 
REMARK    2  A    between atoms: C_5  and  C_6 
REMARK    3  A    between atoms: C_6  and  C_7 
ROOT
HETATM    1  C   UNL     1      26.771  42.543  50.960  1.00  0.00     0.286 C 
HETATM    2  N   UNL     1      27.159  41.071  50.892  1.00  0.00    -0.056 N 
HETATM    3  H   UNL     1      28.189  41.056  50.730  1.00  0.00     0.278 HD
HETATM    4  H   UNL     1      27.009  40.615  51.800  1.00  0.00     0.278 HD
HETATM    5  C   UNL     1      26.439  40.340  49.787  1.00  0.00     0.209 C 
HETATM    6  C   UNL     1      26.769  41.020  48.433  1.00  0.00     0.115 C 
HETATM    7  N   UNL     1      26.572  42.469  48.480  1.00  0.00    -0.353 N 
HETATM    8  C   UNL     1      26.821  43.247  49.586  1.00  0.00     0.249 C 
HETATM    9  O   UNL     1      26.971  44.457  49.465  1.00  0.00    -0.271 OA
HETATM   10  C   UNL     1      26.822  38.862  49.820  1.00  0.00     0.035 C 
HETATM   11  C   UNL     1      28.245  38.598  49.337  1.00  0.00     0.002 C 
HETATM   12  C   UNL     1      28.489  39.210  47.963  1.00  0.00     0.002 C 
HETATM   13  C   UNL     1      28.194  40.706  47.952  1.00  0.00     0.027 C 
HETATM   14  H   UNL     1      26.608  42.988  47.605  1.00  0.00     0.163 HD
ENDROOT
BRANCH   1  15
HETATM   15  C   UNL     1      27.610  43.290  52.004  1.00  0.00     0.146 C 
BRANCH  15  16
HETATM   16  C   UNL     1      26.708  43.928  53.032  1.00  0.00     0.224 C 
HETATM   17  N   UNL     1      27.148  44.236  54.280  1.00  0.00    -0.327 N 
HETATM   18  H   UNL     1      26.389  44.447  54.922  1.00  0.00     0.169 HD
HETATM   19  O   UNL     1      25.529  44.150  52.721  1.00  0.00    -0.273 OA
BRANCH  17  20
HETATM   20  C   UNL     1      28.442  44.247  54.842  1.00  0.00     0.040 A 
HETATM   21  C   UNL     1      28.897  45.428  55.465  1.00  0.00    -0.035 A 
HETATM   22  C   UNL     1      28.040  46.660  55.593  1.00  0.00     0.050 C 
HETATM   23  C   UNL     1      30.197  45.468  56.001  1.00  0.00     0.009 A 
HETATM   24  C   UNL     1      31.038  44.361  55.918  1.00  0.00     0.001 A 
HETATM   25  C   UNL     1      30.598  43.208  55.284  1.00  0.00     0.002 A 
HETATM   26  C   UNL     1      29.310  43.153  54.742  1.00  0.00     0.030 A 
ENDBRANCH  17  20
ENDBRANCH  15  16
ENDBRANCH   1  15
TORSDOF 3
ENDMDL
MODEL 7
REMARK VINA RESULT:      -7.8      7.569     10.555
REMARK  3 active torsions:
REMARK  status: ('A' for Active; 'I' for Inactive)
REMARK    1  A    between atoms: C_3  and  N_4 
REMARK       I    between atoms: N_4  and  C_5 
REMARK    2  A    between atoms: C_5  and  C_6 
REMARK    3  A    between atoms: C_6  and  C_7 
ROOT
HETATM    1  C   UNL     1      27.692  42.821  52.730  1.00  0.00     0.286 C 
HETATM    2  N   UNL     1      28.085  41.931  51.557  1.00  0.00    -0.056 N 
HETATM    3  H   UNL     1      28.348  42.580  50.784  1.00  0.00     0.278 HD
HETATM    4  H   UNL     1      28.934  41.397  51.778  1.00  0.00     0.278 HD
HETATM    5  C   UNL     1      26.962  41.023  51.126  1.00  0.00     0.209 C 
HETATM    6  C   UNL     1      25.738  41.887  50.726  1.00  0.00     0.115 C 
HETATM    7  N   UNL     1      25.405  42.880  51.747  1.00  0.00    -0.353 N 
HETATM    8  C   UNL     1      26.334  43.530  52.523  1.00  0.00     0.249 C 
HETATM    9  O   UNL     1      26.036  44.573  53.095  1.00  0.00    -0.271 OA
HETATM   10  C   UNL     1      27.446  40.116  49.997  1.00  0.00     0.035 C 
HETATM   11  C   UNL     1      27.626  40.849  48.671  1.00  0.00     0.002 C 
HETATM   12  C   UNL     1      26.364  41.609  48.279  1.00  0.00     0.002 C 
HETATM   13  C   UNL     1      25.932  42.583  49.369  1.00  0.00     0.027 C 
HETATM   14  H   UNL     1      24.528  43.389  51.655  1.00  0.00     0.163 HD
ENDROOT
BRANCH   1  15
HETATM   15  C   UNL     1      28.803  43.823  53.064  1.00  0.00     0.146 C 
BRANCH  15  16
HETATM   16  C   UNL     1      30.013  43.095  53.598  1.00  0.00     0.224 C 
HETATM   17  N   UNL     1      30.616  43.462  54.759  1.00  0.00    -0.327 N 
HETATM   18  H   UNL     1      31.531  43.036  54.875  1.00  0.00     0.169 HD
HETATM   19  O   UNL     1      30.469  42.152  52.936  1.00  0.00    -0.273 OA
BRANCH  17  20
HETATM   20  C   UNL     1      30.230  44.363  55.772  1.00  0.00     0.040 A 
HETATM   21  C   UNL     1      30.892  44.304  57.017  1.00  0.00    -0.035 A 
HETATM   22  C   UNL     1      32.023  43.348  57.289  1.00  0.00     0.050 C 
HETATM   23  C   UNL     1      30.496  45.174  58.050  1.00  0.00     0.009 A 
HETATM   24  C   UNL     1      29.459  46.083  57.861  1.00  0.00     0.001 A 
HETATM   25  C   UNL     1      28.793  46.124  56.644  1.00  0.00     0.002 A 
HETATM   26  C   UNL     1      29.170  45.264  55.609  1.00  0.00     0.030 A 
ENDBRANCH  17  20
ENDBRANCH  15  16
ENDBRANCH   1  15
TORSDOF 3
ENDMDL
MODEL 8
REMARK VINA RESULT:      -7.8      7.287      9.411
REMARK  3 active torsions:
REMARK  status: ('A' for Active; 'I' for Inactive)
REMARK    1  A    between atoms: C_3  and  N_4 
REMARK       I    between atoms: N_4  and  C_5 
REMARK    2  A    between atoms: C_5  and  C_6 
REMARK    3  A    between atoms: C_6  and  C_7 
ROOT
HETATM    1  C   UNL     1      27.138  42.186  50.992  1.00  0.00     0.286 C 
HETATM    2  N   UNL     1      27.449  40.724  50.694  1.00  0.00    -0.056 N 
HETATM    3  H   UNL     1      28.437  40.706  50.359  1.00  0.00     0.278 HD
HETATM    4  H   UNL     1      27.434  40.168  51.557  1.00  0.00     0.278 HD
HETATM    5  C   UNL     1      26.527  40.144  49.651  1.00  0.00     0.209 C 
HETATM    6  C   UNL     1      26.656  40.972  48.346  1.00  0.00     0.115 C 
HETATM    7  N   UNL     1      26.528  42.409  48.589  1.00  0.00    -0.353 N 
HETATM    8  C   UNL     1      26.988  43.045  49.717  1.00  0.00     0.249 C 
HETATM    9  O   UNL     1      27.165  44.258  49.710  1.00  0.00    -0.271 OA
HETATM   10  C   UNL     1      26.851  38.665  49.452  1.00  0.00     0.035 C 
HETATM   11  C   UNL     1      28.162  38.430  48.708  1.00  0.00     0.002 C 
HETATM   12  C   UNL     1      28.199  39.194  47.390  1.00  0.00     0.002 C 
HETATM   13  C   UNL     1      27.968  40.687  47.599  1.00  0.00     0.027 C 
HETATM   14  H   UNL     1      26.439  43.026  47.785  1.00  0.00     0.163 HD
ENDROOT
BRANCH   1  15
HETATM   15  C   UNL     1      28.168  42.787  51.956  1.00  0.00     0.146 C 
BRANCH  15  16
HETATM   16  C   UNL     1      27.951  42.245  53.349  1.00  0.00     0.224 C 
HETATM   17  N   UNL     1      27.881  43.061  54.433  1.00  0.00    -0.327 N 
HETATM   18  H   UNL     1      27.958  42.554  55.309  1.00  0.00     0.169 HD
HETATM   19  O   UNL     1      27.860  41.018  53.492  1.00  0.00    -0.273 OA
BRANCH  17  20
HETATM   20  C   UNL     1      27.791  44.464  54.546  1.00  0.00     0.040 A 
HETATM   21  C   UNL     1      28.873  45.166  55.118  1.00  0.00    -0.035 A 
HETATM   22  C   UNL     1      30.136  44.481  55.569  1.00  0.00     0.050 C 
HETATM   23  C   UNL     1      28.787  46.562  55.269  1.00  0.00     0.009 A 
HETATM   24  C   UNL     1      27.648  47.255  54.868  1.00  0.00     0.001 A 
HETATM   25  C   UNL     1      26.574  46.560  54.328  1.00  0.00     0.002 A 
HETATM   26  C   UNL     1      26.641  45.173  54.175  1.00  0.00     0.030 A 
ENDBRANCH  17  20
ENDBRANCH  15  16
ENDBRANCH   1  15
TORSDOF 3
ENDMDL
MODEL 9
REMARK VINA RESULT:      -7.7      6.239      8.559
REMARK  3 active torsions:
REMARK  status: ('A' for Active; 'I' for Inactive)
REMARK    1  A    between atoms: C_3  and  N_4 
REMARK       I    between atoms: N_4  and  C_5 
REMARK    2  A    between atoms: C_5  and  C_6 
REMARK    3  A    between atoms: C_6  and  C_7 
ROOT
HETATM    1  C   UNL     1      28.391  44.308  54.163  1.00  0.00     0.286 C 
HETATM    2  N   UNL     1      29.428  43.699  55.100  1.00  0.00    -0.056 N 
HETATM    3  H   UNL     1      28.917  43.477  55.982  1.00  0.00     0.278 HD
HETATM    4  H   UNL     1      29.763  42.801  54.733  1.00  0.00     0.278 HD
HETATM    5  C   UNL     1      30.573  44.641  55.376  1.00  0.00     0.209 C 
HETATM    6  C   UNL     1      30.015  45.944  56.005  1.00  0.00     0.115 C 
HETATM    7  N   UNL     1      28.901  46.497  55.235  1.00  0.00    -0.353 N 
HETATM    8  C   UNL     1      27.966  45.735  54.576  1.00  0.00     0.249 C 
HETATM    9  O   UNL     1      26.890  46.226  54.253  1.00  0.00    -0.271 OA
HETATM   10  C   UNL     1      31.602  43.944  56.263  1.00  0.00     0.035 C 
HETATM   11  C   UNL     1      31.136  43.772  57.706  1.00  0.00     0.002 C 
HETATM   12  C   UNL     1      30.684  45.098  58.306  1.00  0.00     0.002 C 
HETATM   13  C   UNL     1      29.589  45.752  57.469  1.00  0.00     0.027 C 
HETATM   14  H   UNL     1      28.568  47.429  55.472  1.00  0.00     0.163 HD
ENDROOT
BRANCH   1  15
HETATM   15  C   UNL     1      27.178  43.385  54.003  1.00  0.00     0.146 C 
BRANCH  15  16
HETATM   16  C   UNL     1      27.467  42.326  52.966  1.00  0.00     0.224 C 
HETATM   17  N   UNL     1      27.116  42.483  51.663  1.00  0.00    -0.327 N 
HETATM   18  H   UNL     1      27.168  41.616  51.137  1.00  0.00     0.169 HD
HETATM   19  O   UNL     1      28.020  41.281  53.335  1.00  0.00    -0.273 OA
BRANCH  17  20
HETATM   20  C   UNL     1      26.638  43.602  50.949  1.00  0.00     0.040 A 
HETATM   21  C   UNL     1      25.281  43.627  50.562  1.00  0.00    -0.035 A 
HETATM   22  C   UNL     1      24.316  42.528  50.922  1.00  0.00     0.050 C 
HETATM   23  C   UNL     1      24.795  44.719  49.821  1.00  0.00     0.009 A 
HETATM   24  C   UNL     1      25.636  45.768  49.461  1.00  0.00     0.001 A 
HETATM   25  C   UNL     1      26.976  45.732  49.821  1.00  0.00     0.002 A 
HETATM   26  C   UNL     1      27.476  44.652  50.553  1.00  0.00     0.030 A 
ENDBRANCH  17  20
ENDBRANCH  15  16
ENDBRANCH   1  15
TORSDOF 3
ENDMDL
MODEL 10
REMARK VINA RESULT:      -7.6     10.802     12.442
REMARK  3 active torsions:
REMARK  status: ('A' for Active; 'I' for Inactive)
REMARK    1  A    between atoms: C_3  and  N_4 
REMARK       I    between atoms: N_4  and  C_5 
REMARK    2  A    between atoms: C_5  and  C_6 
REMARK    3  A    between atoms: C_6  and  C_7 
ROOT
HETATM    1  C   UNL     1      30.107  50.816  39.754  1.00  0.00     0.286 C 
HETATM    2  N   UNL     1      30.469  50.832  41.235  1.00  0.00    -0.056 N 
HETATM    3  H   UNL     1      30.783  51.805  41.440  1.00  0.00     0.278 HD
HETATM    4  H   UNL     1      29.635  50.676  41.813  1.00  0.00     0.278 HD
HETATM    5  C   UNL     1      31.559  49.844  41.567  1.00  0.00     0.209 C 
HETATM    6  C   UNL     1      32.819  50.179  40.727  1.00  0.00     0.115 C 
HETATM    7  N   UNL     1      32.509  50.339  39.307  1.00  0.00    -0.353 N 
HETATM    8  C   UNL     1      31.341  50.884  38.828  1.00  0.00     0.249 C 
HETATM    9  O   UNL     1      31.286  51.305  37.678  1.00  0.00    -0.271 OA
HETATM   10  C   UNL     1      31.822  49.864  43.071  1.00  0.00     0.035 C 
HETATM   11  C   UNL     1      32.548  51.123  43.538  1.00  0.00     0.002 C 
HETATM   12  C   UNL     1      33.826  51.356  42.741  1.00  0.00     0.002 C 
HETATM   13  C   UNL     1      33.551  51.428  41.243  1.00  0.00     0.027 C 
HETATM   14  H   UNL     1      33.284  50.404  38.650  1.00  0.00     0.163 HD
ENDROOT
BRANCH   1  15
HETATM   15  C   UNL     1      29.093  51.917  39.420  1.00  0.00     0.146 C 
BRANCH  15  16
HETATM   16  C   UNL     1      27.936  51.866  40.390  1.00  0.00     0.224 C 
HETATM   17  N   UNL     1      26.898  51.006  40.223  1.00  0.00    -0.327 N 
HETATM   18  H   UNL     1      26.102  51.236  40.811  1.00  0.00     0.169 HD
HETATM   19  O   UNL     1      27.939  52.654  41.346  1.00  0.00    -0.273 OA
BRANCH  17  20
HETATM   20  C   UNL     1      26.713  49.918  39.345  1.00  0.00     0.040 A 
HETATM   21  C   UNL     1      27.118  48.634  39.768  1.00  0.00    -0.035 A 
HETATM   22  C   UNL     1      27.695  48.375  41.135  1.00  0.00     0.050 C 
HETATM   23  C   UNL     1      26.972  47.542  38.893  1.00  0.00     0.009 A 
HETATM   24  C   UNL     1      26.442  47.715  37.617  1.00  0.00     0.001 A 
HETATM   25  C   UNL     1      26.067  48.983  37.193  1.00  0.00     0.002 A 
HETATM   26  C   UNL     1      26.209  50.078  38.049  1.00  0.00     0.030 A 
ENDBRANCH  17  20
ENDBRANCH  15  16
ENDBRANCH   1  15
TORSDOF 3
ENDMDL
