MODEL 1
REMARK VINA RESULT:      -9.4      0.000      0.000
REMARK  3 active torsions:
REMARK  status: ('A' for Active; 'I' for Inactive)
REMARK    1  A    between atoms: C_4  and  C_5 
REMARK    2  A    between atoms: C_5  and  N_6 
REMARK    3  A    between atoms: C_16  and  C_17 
ROOT
HETATM    1  N   UNL     1      26.384  40.713  48.072  1.00  0.00    -0.065 N 
HETATM    2  H   UNL     1      25.950  41.197  47.264  1.00  0.00     0.280 HD
HETATM    3  C   UNL     1      27.477  41.602  48.585  1.00  0.00     0.238 C 
HETATM    4  C   UNL     1      26.878  42.644  49.512  1.00  0.00     0.077 C 
HETATM    5  C   UNL     1      26.253  42.002  50.789  1.00  0.00     0.218 C 
HETATM    6  N   UNL     1      25.088  42.838  51.202  1.00  0.00     0.102 N 
HETATM    7  C   UNL     1      25.516  44.183  51.664  1.00  0.00     0.291 C 
HETATM    8  C   UNL     1      26.645  44.247  52.732  1.00  0.00     0.160 C 
HETATM    9  N   UNL     1      27.525  43.054  52.751  1.00  0.00    -0.331 N 
HETATM   10  C   UNL     1      27.289  41.996  51.949  1.00  0.00     0.123 A 
HETATM   11  C   UNL     1      28.586  42.772  53.646  1.00  0.00     0.061 A 
HETATM   12  C   UNL     1      28.868  41.440  53.406  1.00  0.00     0.120 A 
HETATM   13  N   UNL     1      28.073  41.004  52.373  1.00  0.00    -0.351 N 
HETATM   14  H   UNL     1      28.081  40.045  52.036  1.00  0.00     0.166 HD
HETATM   15  C   UNL     1      25.721  40.581  50.460  1.00  0.00     0.077 C 
HETATM   16  C   UNL     1      25.231  40.469  49.022  1.00  0.00     0.238 C 
HETATM   17  H   UNL     1      24.588  42.393  51.980  1.00  0.00     0.317 HD
ENDROOT
BRANCH   1  18
HETATM   18  C   UNL     1      26.922  39.451  47.402  1.00  0.00     0.299 C 
BRANCH  18  19
HETATM   19  C   UNL     1      27.288  38.403  48.382  1.00  0.00     0.079 A 
HETATM   20  O   UNL     1      28.456  38.599  49.064  1.00  0.00    -0.318 OA
HETATM   21  C   UNL     1      28.592  37.550  49.924  1.00  0.00     0.049 A 
HETATM   22  C   UNL     1      29.791  37.540  50.790  1.00  0.00     0.076 C 
HETATM   23  C   UNL     1      27.521  36.692  49.797  1.00  0.00     0.035 A 
HETATM   24  C   UNL     1      26.679  37.242  48.802  1.00  0.00     0.037 A 
ENDBRANCH  18  19
ENDBRANCH   1  18
BRANCH  11  25
HETATM   25  C   UNL     1      29.311  43.632  54.654  1.00  0.00    -0.008 A 
HETATM   26  C   UNL     1      30.503  43.223  55.255  1.00  0.00     0.014 A 
HETATM   27  C   UNL     1      31.119  44.020  56.229  1.00  0.00     0.001 A 
HETATM   28  C   UNL     1      30.551  45.230  56.611  1.00  0.00     0.000 A 
HETATM   29  C   UNL     1      29.368  45.652  56.018  1.00  0.00     0.001 A 
HETATM   30  C   UNL     1      28.749  44.860  55.046  1.00  0.00     0.014 A 
ENDBRANCH  11  25
TORSDOF 3
ENDMDL
MODEL 2
REMARK VINA RESULT:      -9.2      5.549      8.856
REMARK  3 active torsions:
REMARK  status: ('A' for Active; 'I' for Inactive)
REMARK    1  A    between atoms: C_4  and  C_5 
REMARK    2  A    between atoms: C_5  and  N_6 
REMARK    3  A    between atoms: C_16  and  C_17 
ROOT
HETATM    1  N   UNL     1      26.490  45.108  52.056  1.00  0.00    -0.065 N 
HETATM    2  H   UNL     1      27.330  45.381  52.599  1.00  0.00     0.280 HD
HETATM    3  C   UNL     1      25.443  46.151  52.305  1.00  0.00     0.238 C 
HETATM    4  C   UNL     1      25.679  47.328  51.376  1.00  0.00     0.077 C 
HETATM    5  C   UNL     1      25.502  46.935  49.877  1.00  0.00     0.218 C 
HETATM    6  N   UNL     1      26.441  47.767  49.068  1.00  0.00     0.102 N 
HETATM    7  C   UNL     1      26.064  49.203  49.098  1.00  0.00     0.291 C 
HETATM    8  C   UNL     1      24.587  49.562  48.767  1.00  0.00     0.160 C 
HETATM    9  N   UNL     1      23.629  48.456  49.009  1.00  0.00    -0.331 N 
HETATM   10  C   UNL     1      24.051  47.239  49.410  1.00  0.00     0.123 A 
HETATM   11  C   UNL     1      22.239  48.437  48.737  1.00  0.00     0.061 A 
HETATM   12  C   UNL     1      21.900  47.103  48.878  1.00  0.00     0.120 A 
HETATM   13  N   UNL     1      23.013  46.410  49.290  1.00  0.00    -0.351 N 
HETATM   14  H   UNL     1      23.016  45.404  49.433  1.00  0.00     0.166 HD
HETATM   15  C   UNL     1      25.894  45.447  49.671  1.00  0.00     0.077 C 
HETATM   16  C   UNL     1      26.989  45.002  50.631  1.00  0.00     0.238 C 
HETATM   17  H   UNL     1      26.428  47.468  48.087  1.00  0.00     0.317 HD
ENDROOT
BRANCH   1  18
HETATM   18  C   UNL     1      26.149  43.768  52.702  1.00  0.00     0.299 C 
BRANCH  18  19
HETATM   19  C   UNL     1      27.356  43.012  53.105  1.00  0.00     0.079 A 
HETATM   20  O   UNL     1      28.243  43.676  53.906  1.00  0.00    -0.318 OA
HETATM   21  C   UNL     1      29.255  42.806  54.182  1.00  0.00     0.049 A 
HETATM   22  C   UNL     1      30.347  43.296  55.051  1.00  0.00     0.076 C 
HETATM   23  C   UNL     1      29.019  41.595  53.567  1.00  0.00     0.035 A 
HETATM   24  C   UNL     1      27.794  41.727  52.872  1.00  0.00     0.037 A 
ENDBRANCH  18  19
ENDBRANCH   1  18
BRANCH  11  25
HETATM   25  C   UNL     1      21.266  49.534  48.376  1.00  0.00    -0.008 A 
HETATM   26  C   UNL     1      21.233  50.750  49.062  1.00  0.00     0.014 A 
HETATM   27  C   UNL     1      20.279  51.723  48.738  1.00  0.00     0.001 A 
HETATM   28  C   UNL     1      19.352  51.492  47.729  1.00  0.00     0.000 A 
HETATM   29  C   UNL     1      19.376  50.289  47.034  1.00  0.00     0.001 A 
HETATM   30  C   UNL     1      20.326  49.314  47.354  1.00  0.00     0.014 A 
ENDBRANCH  11  25
TORSDOF 3
ENDMDL
MODEL 3
REMARK VINA RESULT:      -9.1     16.253     19.096
REMARK  3 active torsions:
REMARK  status: ('A' for Active; 'I' for Inactive)
REMARK    1  A    between atoms: C_4  and  C_5 
REMARK    2  A    between atoms: C_5  and  N_6 
REMARK    3  A    between atoms: C_16  and  C_17 
ROOT
HETATM    1  N   UNL     1      37.460  48.330  65.864  1.00  0.00    -0.065 N 
HETATM    2  H   UNL     1      36.993  48.627  66.741  1.00  0.00     0.280 HD
HETATM    3  C   UNL     1      38.354  47.177  66.207  1.00  0.00     0.238 C 
HETATM    4  C   UNL     1      37.537  45.898  66.223  1.00  0.00     0.077 C 
HETATM    5  C   UNL     1      36.964  45.553  64.815  1.00  0.00     0.218 C 
HETATM    6  N   UNL     1      35.652  44.866  65.007  1.00  0.00     0.102 N 
HETATM    7  C   UNL     1      35.818  43.538  65.649  1.00  0.00     0.291 C 
HETATM    8  C   UNL     1      36.861  42.566  65.026  1.00  0.00     0.160 C 
HETATM    9  N   UNL     1      37.930  43.244  64.254  1.00  0.00    -0.331 N 
HETATM   10  C   UNL     1      37.922  44.580  64.069  1.00  0.00     0.123 A 
HETATM   11  C   UNL     1      38.974  42.645  63.507  1.00  0.00     0.061 A 
HETATM   12  C   UNL     1      39.492  43.697  62.773  1.00  0.00     0.120 A 
HETATM   13  N   UNL     1      38.840  44.850  63.141  1.00  0.00    -0.351 N 
HETATM   14  H   UNL     1      39.030  45.752  62.713  1.00  0.00     0.166 HD
HETATM   15  C   UNL     1      36.701  46.857  64.016  1.00  0.00     0.077 C 
HETATM   16  C   UNL     1      36.316  48.019  64.922  1.00  0.00     0.238 C 
HETATM   17  H   UNL     1      35.195  44.712  64.101  1.00  0.00     0.317 HD
ENDROOT
BRANCH   1  18
HETATM   18  C   UNL     1      38.240  49.592  65.507  1.00  0.00     0.299 C 
BRANCH  18  19
HETATM   19  C   UNL     1      37.946  50.716  66.425  1.00  0.00     0.079 A 
HETATM   20  O   UNL     1      38.063  51.971  65.897  1.00  0.00    -0.318 OA
HETATM   21  C   UNL     1      37.727  52.849  66.884  1.00  0.00     0.049 A 
HETATM   22  C   UNL     1      37.768  54.289  66.548  1.00  0.00     0.076 C 
HETATM   23  C   UNL     1      37.393  52.164  68.033  1.00  0.00     0.035 A 
HETATM   24  C   UNL     1      37.534  50.788  67.737  1.00  0.00     0.037 A 
ENDBRANCH  18  19
ENDBRANCH   1  18
BRANCH  11  25
HETATM   25  C   UNL     1      39.486  41.226  63.447  1.00  0.00    -0.008 A 
HETATM   26  C   UNL     1      39.201  40.381  62.372  1.00  0.00     0.014 A 
HETATM   27  C   UNL     1      39.643  39.052  62.376  1.00  0.00     0.001 A 
HETATM   28  C   UNL     1      40.373  38.555  63.449  1.00  0.00     0.000 A 
HETATM   29  C   UNL     1      40.669  39.386  64.523  1.00  0.00     0.001 A 
HETATM   30  C   UNL     1      40.229  40.713  64.525  1.00  0.00     0.014 A 
ENDBRANCH  11  25
TORSDOF 3
ENDMDL
MODEL 4
REMARK VINA RESULT:      -9.0      3.541      7.517
REMARK  3 active torsions:
REMARK  status: ('A' for Active; 'I' for Inactive)
REMARK    1  A    between atoms: C_4  and  C_5 
REMARK    2  A    between atoms: C_5  and  N_6 
REMARK    3  A    between atoms: C_16  and  C_17 
ROOT
HETATM    1  N   UNL     1      29.256  42.246  53.621  1.00  0.00    -0.065 N 
HETATM    2  H   UNL     1      29.791  41.437  53.252  1.00  0.00     0.280 HD
HETATM    3  C   UNL     1      29.528  43.408  52.715  1.00  0.00     0.238 C 
HETATM    4  C   UNL     1      28.606  43.329  51.512  1.00  0.00     0.077 C 
HETATM    5  C   UNL     1      27.107  43.478  51.913  1.00  0.00     0.218 C 
HETATM    6  N   UNL     1      26.293  42.658  50.968  1.00  0.00     0.102 N 
HETATM    7  C   UNL     1      26.339  43.206  49.588  1.00  0.00     0.291 C 
HETATM    8  C   UNL     1      26.031  44.720  49.409  1.00  0.00     0.160 C 
HETATM    9  N   UNL     1      26.276  45.534  50.624  1.00  0.00    -0.331 N 
HETATM   10  C   UNL     1      26.661  44.962  51.784  1.00  0.00     0.123 A 
HETATM   11  C   UNL     1      26.023  46.915  50.810  1.00  0.00     0.061 A 
HETATM   12  C   UNL     1      26.157  47.087  52.175  1.00  0.00     0.120 A 
HETATM   13  N   UNL     1      26.548  45.893  52.732  1.00  0.00    -0.351 N 
HETATM   14  H   UNL     1      26.682  45.767  53.731  1.00  0.00     0.166 HD
HETATM   15  C   UNL     1      26.882  42.912  53.341  1.00  0.00     0.077 C 
HETATM   16  C   UNL     1      27.824  41.757  53.657  1.00  0.00     0.238 C 
HETATM   17  H   UNL     1      25.309  42.649  51.259  1.00  0.00     0.317 HD
ENDROOT
BRANCH   1  18
HETATM   18  C   UNL     1      29.895  42.413  54.997  1.00  0.00     0.299 C 
BRANCH  18  19
HETATM   19  C   UNL     1      29.967  43.832  55.418  1.00  0.00     0.079 A 
HETATM   20  O   UNL     1      28.813  44.554  55.296  1.00  0.00    -0.318 OA
HETATM   21  C   UNL     1      29.082  45.809  55.756  1.00  0.00     0.049 A 
HETATM   22  C   UNL     1      27.972  46.787  55.735  1.00  0.00     0.076 C 
HETATM   23  C   UNL     1      30.393  45.890  56.172  1.00  0.00     0.035 A 
HETATM   24  C   UNL     1      30.965  44.614  55.954  1.00  0.00     0.037 A 
ENDBRANCH  18  19
ENDBRANCH   1  18
BRANCH  11  25
HETATM   25  C   UNL     1      25.684  48.018  49.837  1.00  0.00    -0.008 A 
HETATM   26  C   UNL     1      24.369  48.288  49.451  1.00  0.00     0.014 A 
HETATM   27  C   UNL     1      24.096  49.281  48.502  1.00  0.00     0.001 A 
HETATM   28  C   UNL     1      25.130  50.014  47.931  1.00  0.00     0.000 A 
HETATM   29  C   UNL     1      26.443  49.761  48.309  1.00  0.00     0.001 A 
HETATM   30  C   UNL     1      26.721  48.769  49.255  1.00  0.00     0.014 A 
ENDBRANCH  11  25
TORSDOF 3
ENDMDL
MODEL 5
REMARK VINA RESULT:      -8.8     12.023     13.669
REMARK  3 active torsions:
REMARK  status: ('A' for Active; 'I' for Inactive)
REMARK    1  A    between atoms: C_4  and  C_5 
REMARK    2  A    between atoms: C_5  and  N_6 
REMARK    3  A    between atoms: C_16  and  C_17 
ROOT
HETATM    1  N   UNL     1      26.523  49.125  38.104  1.00  0.00    -0.065 N 
HETATM    2  H   UNL     1      26.021  49.720  37.419  1.00  0.00     0.280 HD
HETATM    3  C   UNL     1      27.952  49.575  38.119  1.00  0.00     0.238 C 
HETATM    4  C   UNL     1      28.088  50.774  39.040  1.00  0.00     0.077 C 
HETATM    5  C   UNL     1      27.768  50.412  40.523  1.00  0.00     0.218 C 
HETATM    6  N   UNL     1      27.161  51.613  41.169  1.00  0.00     0.102 N 
HETATM    7  C   UNL     1      28.138  52.724  41.287  1.00  0.00     0.291 C 
HETATM    8  C   UNL     1      29.521  52.398  41.921  1.00  0.00     0.160 C 
HETATM    9  N   UNL     1      29.909  50.971  41.819  1.00  0.00    -0.331 N 
HETATM   10  C   UNL     1      29.077  50.055  41.283  1.00  0.00     0.123 A 
HETATM   11  C   UNL     1      31.058  50.343  42.359  1.00  0.00     0.061 A 
HETATM   12  C   UNL     1      30.785  48.994  42.222  1.00  0.00     0.120 A 
HETATM   13  N   UNL     1      29.586  48.855  41.564  1.00  0.00    -0.351 N 
HETATM   14  H   UNL     1      29.162  47.952  41.374  1.00  0.00     0.166 HD
HETATM   15  C   UNL     1      26.720  49.269  40.574  1.00  0.00     0.077 C 
HETATM   16  C   UNL     1      25.756  49.318  39.395  1.00  0.00     0.238 C 
HETATM   17  H   UNL     1      26.843  51.384  42.118  1.00  0.00     0.317 HD
ENDROOT
BRANCH   1  18
HETATM   18  C   UNL     1      26.349  47.746  37.473  1.00  0.00     0.299 C 
BRANCH  18  19
HETATM   19  C   UNL     1      27.271  46.741  38.050  1.00  0.00     0.079 A 
HETATM   20  O   UNL     1      26.809  46.055  39.139  1.00  0.00    -0.318 OA
HETATM   21  C   UNL     1      27.785  45.172  39.494  1.00  0.00     0.049 A 
HETATM   22  C   UNL     1      27.513  44.298  40.655  1.00  0.00     0.076 C 
HETATM   23  C   UNL     1      28.861  45.287  38.640  1.00  0.00     0.035 A 
HETATM   24  C   UNL     1      28.530  46.299  37.708  1.00  0.00     0.037 A 
ENDBRANCH  18  19
ENDBRANCH   1  18
BRANCH  11  25
HETATM   25  C   UNL     1      32.325  50.903  42.960  1.00  0.00    -0.008 A 
HETATM   26  C   UNL     1      32.332  51.572  44.185  1.00  0.00     0.014 A 
HETATM   27  C   UNL     1      33.515  52.129  44.686  1.00  0.00     0.001 A 
HETATM   28  C   UNL     1      34.702  52.024  43.969  1.00  0.00     0.000 A 
HETATM   29  C   UNL     1      34.712  51.356  42.750  1.00  0.00     0.001 A 
HETATM   30  C   UNL     1      33.532  50.799  42.246  1.00  0.00     0.014 A 
ENDBRANCH  11  25
TORSDOF 3
ENDMDL
MODEL 6
REMARK VINA RESULT:      -8.7      1.716      2.511
REMARK  3 active torsions:
REMARK  status: ('A' for Active; 'I' for Inactive)
REMARK    1  A    between atoms: C_4  and  C_5 
REMARK    2  A    between atoms: C_5  and  N_6 
REMARK    3  A    between atoms: C_16  and  C_17 
ROOT
HETATM    1  N   UNL     1      25.095  43.089  48.692  1.00  0.00    -0.065 N 
HETATM    2  H   UNL     1      24.872  43.731  47.908  1.00  0.00     0.280 HD
HETATM    3  C   UNL     1      26.456  43.462  49.198  1.00  0.00     0.238 C 
HETATM    4  C   UNL     1      26.327  44.623  50.167  1.00  0.00     0.077 C 
HETATM    5  C   UNL     1      25.519  44.233  51.443  1.00  0.00     0.218 C 
HETATM    6  N   UNL     1      24.781  45.444  51.909  1.00  0.00     0.102 N 
HETATM    7  C   UNL     1      25.708  46.498  52.393  1.00  0.00     0.291 C 
HETATM    8  C   UNL     1      26.788  46.079  53.432  1.00  0.00     0.160 C 
HETATM    9  N   UNL     1      27.131  44.637  53.397  1.00  0.00    -0.331 N 
HETATM   10  C   UNL     1      26.487  43.784  52.574  1.00  0.00     0.123 A 
HETATM   11  C   UNL     1      28.010  43.933  54.255  1.00  0.00     0.061 A 
HETATM   12  C   UNL     1      27.744  42.605  53.973  1.00  0.00     0.120 A 
HETATM   13  N   UNL     1      26.826  42.551  52.951  1.00  0.00    -0.351 N 
HETATM   14  H   UNL     1      26.453  41.677  52.590  1.00  0.00     0.166 HD
HETATM   15  C   UNL     1      24.469  43.146  51.093  1.00  0.00     0.077 C 
HETATM   16  C   UNL     1      23.953  43.283  49.666  1.00  0.00     0.238 C 
HETATM   17  H   UNL     1      24.158  45.204  52.688  1.00  0.00     0.317 HD
ENDROOT
BRANCH   1  18
HETATM   18  C   UNL     1      25.085  41.741  47.975  1.00  0.00     0.299 C 
BRANCH  18  19
HETATM   19  C   UNL     1      26.410  41.079  48.001  1.00  0.00     0.079 A 
HETATM   20  O   UNL     1      26.718  40.392  49.142  1.00  0.00    -0.318 OA
HETATM   21  C   UNL     1      27.950  39.842  48.952  1.00  0.00     0.049 A 
HETATM   22  C   UNL     1      28.505  39.032  50.058  1.00  0.00     0.076 C 
HETATM   23  C   UNL     1      28.427  40.169  47.700  1.00  0.00     0.035 A 
HETATM   24  C   UNL     1      27.433  40.967  47.086  1.00  0.00     0.037 A 
ENDBRANCH  18  19
ENDBRANCH   1  18
BRANCH  11  25
HETATM   25  C   UNL     1      29.028  44.406  55.265  1.00  0.00    -0.008 A 
HETATM   26  C   UNL     1      28.843  45.569  56.015  1.00  0.00     0.014 A 
HETATM   27  C   UNL     1      29.834  46.010  56.901  1.00  0.00     0.001 A 
HETATM   28  C   UNL     1      31.017  45.295  57.047  1.00  0.00     0.000 A 
HETATM   29  C   UNL     1      31.213  44.132  56.312  1.00  0.00     0.001 A 
HETATM   30  C   UNL     1      30.227  43.689  55.425  1.00  0.00     0.014 A 
ENDBRANCH  11  25
TORSDOF 3
ENDMDL
MODEL 7
REMARK VINA RESULT:      -8.6      1.995      2.550
REMARK  3 active torsions:
REMARK  status: ('A' for Active; 'I' for Inactive)
REMARK    1  A    between atoms: C_4  and  C_5 
REMARK    2  A    between atoms: C_5  and  N_6 
REMARK    3  A    between atoms: C_16  and  C_17 
ROOT
HETATM    1  N   UNL     1      27.054  39.504  47.764  1.00  0.00    -0.065 N 
HETATM    2  H   UNL     1      27.111  39.784  46.767  1.00  0.00     0.280 HD
HETATM    3  C   UNL     1      28.229  40.118  48.464  1.00  0.00     0.238 C 
HETATM    4  C   UNL     1      27.897  41.552  48.833  1.00  0.00     0.077 C 
HETATM    5  C   UNL     1      26.730  41.636  49.864  1.00  0.00     0.218 C 
HETATM    6  N   UNL     1      25.966  42.890  49.594  1.00  0.00     0.102 N 
HETATM    7  C   UNL     1      26.776  44.098  49.888  1.00  0.00     0.291 C 
HETATM    8  C   UNL     1      27.478  44.170  51.275  1.00  0.00     0.160 C 
HETATM    9  N   UNL     1      27.724  42.846  51.895  1.00  0.00    -0.331 N 
HETATM   10  C   UNL     1      27.296  41.708  51.311  1.00  0.00     0.123 A 
HETATM   11  C   UNL     1      28.269  42.573  53.174  1.00  0.00     0.061 A 
HETATM   12  C   UNL     1      28.012  41.227  53.355  1.00  0.00     0.120 A 
HETATM   13  N   UNL     1      27.431  40.734  52.211  1.00  0.00    -0.351 N 
HETATM   14  H   UNL     1      27.125  39.769  52.118  1.00  0.00     0.166 HD
HETATM   15  C   UNL     1      25.760  40.441  49.664  1.00  0.00     0.077 C 
HETATM   16  C   UNL     1      25.692  39.993  48.209  1.00  0.00     0.238 C 
HETATM   17  H   UNL     1      25.129  42.932  50.187  1.00  0.00     0.317 HD
ENDROOT
BRANCH   1  18
HETATM   18  C   UNL     1      27.168  37.987  47.647  1.00  0.00     0.299 C 
BRANCH  18  19
HETATM   19  C   UNL     1      27.961  37.569  46.468  1.00  0.00     0.079 A 
HETATM   20  O   UNL     1      27.979  38.441  45.415  1.00  0.00    -0.318 OA
HETATM   21  C   UNL     1      28.776  37.888  44.457  1.00  0.00     0.049 A 
HETATM   22  C   UNL     1      28.962  38.659  43.209  1.00  0.00     0.076 C 
HETATM   23  C   UNL     1      29.267  36.676  44.892  1.00  0.00     0.035 A 
HETATM   24  C   UNL     1      28.741  36.470  46.189  1.00  0.00     0.037 A 
ENDBRANCH  18  19
ENDBRANCH   1  18
BRANCH  11  25
HETATM   25  C   UNL     1      28.976  43.453  54.177  1.00  0.00    -0.008 A 
HETATM   26  C   UNL     1      30.219  43.112  54.714  1.00  0.00     0.014 A 
HETATM   27  C   UNL     1      30.821  43.921  55.686  1.00  0.00     0.001 A 
HETATM   28  C   UNL     1      30.189  45.078  56.129  1.00  0.00     0.000 A 
HETATM   29  C   UNL     1      28.955  45.433  55.599  1.00  0.00     0.001 A 
HETATM   30  C   UNL     1      28.349  44.627  54.630  1.00  0.00     0.014 A 
ENDBRANCH  11  25
TORSDOF 3
ENDMDL
MODEL 8
REMARK VINA RESULT:      -8.5     11.990     15.077
REMARK  3 active torsions:
REMARK  status: ('A' for Active; 'I' for Inactive)
REMARK    1  A    between atoms: C_4  and  C_5 
REMARK    2  A    between atoms: C_5  and  N_6 
REMARK    3  A    between atoms: C_16  and  C_17 
ROOT
HETATM    1  N   UNL     1      29.019  53.165  40.193  1.00  0.00    -0.065 N 
HETATM    2  H   UNL     1      28.414  53.998  40.323  1.00  0.00     0.280 HD
HETATM    3  C   UNL     1      28.579  52.137  41.192  1.00  0.00     0.238 C 
HETATM    4  C   UNL     1      27.388  51.378  40.636  1.00  0.00     0.077 C 
HETATM    5  C   UNL     1      27.759  50.562  39.360  1.00  0.00     0.218 C 
HETATM    6  N   UNL     1      26.559  50.522  38.473  1.00  0.00     0.102 N 
HETATM    7  C   UNL     1      25.456  49.735  39.080  1.00  0.00     0.291 C 
HETATM    8  C   UNL     1      25.797  48.312  39.608  1.00  0.00     0.160 C 
HETATM    9  N   UNL     1      27.226  48.124  39.954  1.00  0.00    -0.331 N 
HETATM   10  C   UNL     1      28.132  49.102  39.746  1.00  0.00     0.123 A 
HETATM   11  C   UNL     1      27.867  46.936  40.384  1.00  0.00     0.061 A 
HETATM   12  C   UNL     1      29.212  47.241  40.287  1.00  0.00     0.120 A 
HETATM   13  N   UNL     1      29.338  48.556  39.907  1.00  0.00    -0.351 N 
HETATM   14  H   UNL     1      30.236  49.000  39.742  1.00  0.00     0.166 HD
HETATM   15  C   UNL     1      28.895  51.280  38.584  1.00  0.00     0.077 C 
HETATM   16  C   UNL     1      28.829  52.794  38.738  1.00  0.00     0.238 C 
HETATM   17  H   UNL     1      26.792  50.079  37.577  1.00  0.00     0.317 HD
ENDROOT
BRANCH   1  18
HETATM   18  C   UNL     1      30.392  53.748  40.517  1.00  0.00     0.299 C 
BRANCH  18  19
HETATM   19  C   UNL     1      31.309  52.742  41.099  1.00  0.00     0.079 A 
HETATM   20  O   UNL     1      31.525  52.831  42.446  1.00  0.00    -0.318 OA
HETATM   21  C   UNL     1      32.365  51.811  42.780  1.00  0.00     0.049 A 
HETATM   22  C   UNL     1      32.744  51.689  44.205  1.00  0.00     0.076 C 
HETATM   23  C   UNL     1      32.682  51.072  41.660  1.00  0.00     0.035 A 
HETATM   24  C   UNL     1      32.002  51.673  40.575  1.00  0.00     0.037 A 
ENDBRANCH  18  19
ENDBRANCH   1  18
BRANCH  11  25
HETATM   25  C   UNL     1      27.321  45.609  40.854  1.00  0.00    -0.008 A 
HETATM   26  C   UNL     1      26.422  45.513  41.918  1.00  0.00     0.014 A 
HETATM   27  C   UNL     1      25.980  44.261  42.365  1.00  0.00     0.001 A 
HETATM   28  C   UNL     1      26.430  43.096  41.755  1.00  0.00     0.000 A 
HETATM   29  C   UNL     1      27.321  43.176  40.691  1.00  0.00     0.001 A 
HETATM   30  C   UNL     1      27.766  44.424  40.242  1.00  0.00     0.014 A 
ENDBRANCH  11  25
TORSDOF 3
ENDMDL
MODEL 9
REMARK VINA RESULT:      -8.3      3.137      4.175
REMARK  3 active torsions:
REMARK  status: ('A' for Active; 'I' for Inactive)
REMARK    1  A    between atoms: C_4  and  C_5 
REMARK    2  A    between atoms: C_5  and  N_6 
REMARK    3  A    between atoms: C_16  and  C_17 
ROOT
HETATM    1  N   UNL     1      24.818  43.018  48.523  1.00  0.00    -0.065 N 
HETATM    2  H   UNL     1      24.586  43.647  47.731  1.00  0.00     0.280 HD
HETATM    3  C   UNL     1      26.183  43.403  49.009  1.00  0.00     0.238 C 
HETATM    4  C   UNL     1      26.061  44.579  49.961  1.00  0.00     0.077 C 
HETATM    5  C   UNL     1      25.268  44.207  51.251  1.00  0.00     0.218 C 
HETATM    6  N   UNL     1      24.531  45.423  51.705  1.00  0.00     0.102 N 
HETATM    7  C   UNL     1      25.460  46.487  52.164  1.00  0.00     0.291 C 
HETATM    8  C   UNL     1      26.552  46.087  53.197  1.00  0.00     0.160 C 
HETATM    9  N   UNL     1      26.898  44.646  53.181  1.00  0.00    -0.331 N 
HETATM   10  C   UNL     1      26.248  43.778  52.379  1.00  0.00     0.123 A 
HETATM   11  C   UNL     1      27.788  43.957  54.042  1.00  0.00     0.061 A 
HETATM   12  C   UNL     1      27.522  42.625  53.784  1.00  0.00     0.120 A 
HETATM   13  N   UNL     1      26.595  42.551  52.772  1.00  0.00    -0.351 N 
HETATM   14  H   UNL     1      26.220  41.671  52.429  1.00  0.00     0.166 HD
HETATM   15  C   UNL     1      24.216  43.112  50.929  1.00  0.00     0.077 C 
HETATM   16  C   UNL     1      23.686  43.225  49.505  1.00  0.00     0.238 C 
HETATM   17  H   UNL     1      23.917  45.193  52.495  1.00  0.00     0.317 HD
ENDROOT
BRANCH   1  18
HETATM   18  C   UNL     1      24.805  41.659  47.828  1.00  0.00     0.299 C 
BRANCH  18  19
HETATM   19  C   UNL     1      23.496  41.357  47.203  1.00  0.00     0.079 A 
HETATM   20  O   UNL     1      23.102  42.194  46.197  1.00  0.00    -0.318 OA
HETATM   21  C   UNL     1      21.901  41.732  45.746  1.00  0.00     0.049 A 
HETATM   22  C   UNL     1      21.267  42.475  44.636  1.00  0.00     0.076 C 
HETATM   23  C   UNL     1      21.531  40.608  46.452  1.00  0.00     0.035 A 
HETATM   24  C   UNL     1      22.560  40.366  47.393  1.00  0.00     0.037 A 
ENDBRANCH  18  19
ENDBRANCH   1  18
BRANCH  11  25
HETATM   25  C   UNL     1      28.815  44.448  55.033  1.00  0.00    -0.008 A 
HETATM   26  C   UNL     1      30.064  43.838  55.171  1.00  0.00     0.014 A 
HETATM   27  C   UNL     1      30.971  44.283  56.141  1.00  0.00     0.001 A 
HETATM   28  C   UNL     1      30.641  45.341  56.980  1.00  0.00     0.000 A 
HETATM   29  C   UNL     1      29.405  45.963  56.851  1.00  0.00     0.001 A 
HETATM   30  C   UNL     1      28.496  45.520  55.886  1.00  0.00     0.014 A 
ENDBRANCH  11  25
TORSDOF 3
ENDMDL
MODEL 10
REMARK VINA RESULT:      -8.3     10.222     13.847
REMARK  3 active torsions:
REMARK  status: ('A' for Active; 'I' for Inactive)
REMARK    1  A    between atoms: C_4  and  C_5 
REMARK    2  A    between atoms: C_5  and  N_6 
REMARK    3  A    between atoms: C_16  and  C_17 
ROOT
HETATM    1  N   UNL     1      22.172  49.225  49.576  1.00  0.00    -0.065 N 
HETATM    2  H   UNL     1      22.333  48.991  50.574  1.00  0.00     0.280 HD
HETATM    3  C   UNL     1      20.919  48.522  49.152  1.00  0.00     0.238 C 
HETATM    4  C   UNL     1      19.717  49.356  49.555  1.00  0.00     0.077 C 
HETATM    5  C   UNL     1      19.678  50.725  48.809  1.00  0.00     0.218 C 
HETATM    6  N   UNL     1      19.058  51.730  49.722  1.00  0.00     0.102 N 
HETATM    7  C   UNL     1      17.625  51.430  49.973  1.00  0.00     0.291 C 
HETATM    8  C   UNL     1      16.718  51.180  48.734  1.00  0.00     0.160 C 
HETATM    9  N   UNL     1      17.454  50.721  47.531  1.00  0.00    -0.331 N 
HETATM   10  C   UNL     1      18.799  50.615  47.531  1.00  0.00     0.123 A 
HETATM   11  C   UNL     1      16.936  50.483  46.235  1.00  0.00     0.061 A 
HETATM   12  C   UNL     1      18.069  50.360  45.451  1.00  0.00     0.120 A 
HETATM   13  N   UNL     1      19.175  50.439  46.264  1.00  0.00    -0.351 N 
HETATM   14  H   UNL     1      20.125  50.404  45.908  1.00  0.00     0.166 HD
HETATM   15  C   UNL     1      21.123  51.199  48.498  1.00  0.00     0.077 C 
HETATM   16  C   UNL     1      22.119  50.738  49.554  1.00  0.00     0.238 C 
HETATM   17  H   UNL     1      19.105  52.667  49.306  1.00  0.00     0.317 HD
ENDROOT
BRANCH   1  18
HETATM   18  C   UNL     1      23.424  48.633  48.934  1.00  0.00     0.299 C 
BRANCH  18  19
HETATM   19  C   UNL     1      24.025  47.558  49.756  1.00  0.00     0.079 A 
HETATM   20  O   UNL     1      24.686  47.960  50.883  1.00  0.00    -0.318 OA
HETATM   21  C   UNL     1      25.134  46.831  51.503  1.00  0.00     0.049 A 
HETATM   22  C   UNL     1      25.882  47.008  52.766  1.00  0.00     0.076 C 
HETATM   23  C   UNL     1      24.762  45.716  50.783  1.00  0.00     0.035 A 
HETATM   24  C   UNL     1      24.046  46.185  49.656  1.00  0.00     0.037 A 
ENDBRANCH  18  19
ENDBRANCH   1  18
BRANCH  11  25
HETATM   25  C   UNL     1      15.522  50.368  45.719  1.00  0.00    -0.008 A 
HETATM   26  C   UNL     1      14.793  49.180  45.814  1.00  0.00     0.014 A 
HETATM   27  C   UNL     1      13.504  49.092  45.274  1.00  0.00     0.001 A 
HETATM   28  C   UNL     1      12.931  50.185  44.635  1.00  0.00     0.000 A 
HETATM   29  C   UNL     1      13.642  51.376  44.538  1.00  0.00     0.001 A 
HETATM   30  C   UNL     1      14.930  51.468  45.075  1.00  0.00     0.014 A 
ENDBRANCH  11  25
TORSDOF 3
ENDMDL
