MODEL 1
REMARK VINA RESULT:      -7.5      0.000      0.000
REMARK  6 active torsions:
REMARK  status: ('A' for Active; 'I' for Inactive)
REMARK    1  A    between atoms: C_2  and  N_3 
REMARK    2  A    between atoms: C_2  and  C_16 
REMARK    3  A    between atoms: N_3  and  C_6 
REMARK    4  A    between atoms: C_16  and  C_17 
REMARK       I    between atoms: C_17  and  N_18 
REMARK    5  A    between atoms: N_18  and  C_19 
REMARK    6  A    between atoms: C_22  and  O_23 
ROOT
HETATM    1  C   UNL     1      28.894  46.153  39.201  1.00  0.00     0.040 C 
HETATM    2  C   UNL     1      28.984  47.548  39.801  1.00  0.00     0.191 C 
ENDROOT
BRANCH   2   3
HETATM    3  N   UNL     1      30.382  47.837  40.317  1.00  0.00    -0.063 N 
HETATM    4  H   UNL     1      30.524  47.125  41.060  1.00  0.00     0.278 HD
HETATM    5  H   UNL     1      31.082  47.608  39.602  1.00  0.00     0.278 HD
BRANCH   3   6
HETATM    6  C   UNL     1      30.743  49.161  40.963  1.00  0.00     0.221 C 
HETATM    7  C   UNL     1      31.625  50.063  40.130  1.00  0.00    -0.011 A 
HETATM    8  C   UNL     1      32.756  50.709  40.659  1.00  0.00     0.009 A 
HETATM    9  C   UNL     1      31.264  50.339  38.792  1.00  0.00     0.011 A 
HETATM   10  C   UNL     1      33.533  51.542  39.843  1.00  0.00     0.019 A 
HETATM   11  S   UNL     1      33.265  50.554  42.359  1.00  0.00    -0.129 SA
HETATM   12  C   UNL     1      33.180  51.774  38.515  1.00  0.00     0.001 A 
HETATM   13  C   UNL     1      32.040  51.179  37.992  1.00  0.00     0.001 A 
HETATM   14  C   UNL     1      31.680  50.120  43.113  1.00  0.00     0.082 C 
HETATM   15  C   UNL     1      31.146  48.882  42.419  1.00  0.00     0.048 C 
ENDBRANCH   3   6
ENDBRANCH   2   3
BRANCH   2  16
HETATM   16  C   UNL     1      27.982  47.686  40.970  1.00  0.00     0.135 C 
BRANCH  16  17
HETATM   17  C   UNL     1      26.665  48.253  40.502  1.00  0.00     0.224 C 
HETATM   18  N   UNL     1      26.486  49.569  40.228  1.00  0.00    -0.327 N 
HETATM   19  H   UNL     1      25.524  49.756  39.951  1.00  0.00     0.169 HD
HETATM   20  O   UNL     1      25.725  47.473  40.292  1.00  0.00    -0.273 OA
BRANCH  18  21
HETATM   21  C   UNL     1      27.344  50.684  40.148  1.00  0.00     0.034 A 
HETATM   22  C   UNL     1      27.786  51.298  38.980  1.00  0.00     0.032 A 
HETATM   23  C   UNL     1      28.579  52.453  39.042  1.00  0.00     0.039 A 
HETATM   24  C   UNL     1      28.941  53.016  40.265  1.00  0.00     0.068 A 
HETATM   25  C   UNL     1      28.533  52.393  41.437  1.00  0.00     0.039 A 
HETATM   26  C   UNL     1      27.743  51.236  41.375  1.00  0.00     0.032 A 
BRANCH  24  27
HETATM   27  O   UNL     1      29.688  54.156  40.175  1.00  0.00    -0.356 OA
HETATM   28  C   UNL     1      30.997  54.113  40.731  1.00  0.00     0.210 C 
ENDBRANCH  24  27
ENDBRANCH  18  21
ENDBRANCH  16  17
ENDBRANCH   2  16
TORSDOF 6
ENDMDL
MODEL 2
REMARK VINA RESULT:      -7.5     11.737     14.289
REMARK  6 active torsions:
REMARK  status: ('A' for Active; 'I' for Inactive)
REMARK    1  A    between atoms: C_2  and  N_3 
REMARK    2  A    between atoms: C_2  and  C_16 
REMARK    3  A    between atoms: N_3  and  C_6 
REMARK    4  A    between atoms: C_16  and  C_17 
REMARK       I    between atoms: C_17  and  N_18 
REMARK    5  A    between atoms: N_18  and  C_19 
REMARK    6  A    between atoms: C_22  and  O_23 
ROOT
HETATM    1  C   UNL     1      26.474  47.895  50.118  1.00  0.00     0.040 C 
HETATM    2  C   UNL     1      25.535  46.798  50.597  1.00  0.00     0.191 C 
ENDROOT
BRANCH   2   3
HETATM    3  N   UNL     1      24.081  47.205  50.431  1.00  0.00    -0.063 N 
HETATM    4  H   UNL     1      23.556  46.444  50.906  1.00  0.00     0.278 HD
HETATM    5  H   UNL     1      23.879  48.045  50.985  1.00  0.00     0.278 HD
BRANCH   3   6
HETATM    6  C   UNL     1      23.435  47.340  49.065  1.00  0.00     0.221 C 
HETATM    7  C   UNL     1      22.710  48.645  48.824  1.00  0.00    -0.011 A 
HETATM    8  C   UNL     1      21.423  48.699  48.263  1.00  0.00     0.009 A 
HETATM    9  C   UNL     1      23.374  49.863  49.091  1.00  0.00     0.011 A 
HETATM   10  C   UNL     1      20.801  49.937  48.053  1.00  0.00     0.019 A 
HETATM   11  S   UNL     1      20.512  47.252  47.763  1.00  0.00    -0.129 SA
HETATM   12  C   UNL     1      21.459  51.128  48.356  1.00  0.00     0.001 A 
HETATM   13  C   UNL     1      22.749  51.091  48.867  1.00  0.00     0.001 A 
HETATM   14  C   UNL     1      21.885  46.109  47.483  1.00  0.00     0.082 C 
HETATM   15  C   UNL     1      22.701  46.025  48.758  1.00  0.00     0.048 C 
ENDBRANCH   3   6
ENDBRANCH   2   3
BRANCH   2  16
HETATM   16  C   UNL     1      25.799  46.490  52.089  1.00  0.00     0.135 C 
BRANCH  16  17
HETATM   17  C   UNL     1      25.392  45.081  52.440  1.00  0.00     0.224 C 
HETATM   18  N   UNL     1      26.176  44.248  53.170  1.00  0.00    -0.327 N 
HETATM   19  H   UNL     1      25.737  43.336  53.278  1.00  0.00     0.169 HD
HETATM   20  O   UNL     1      24.264  44.690  52.107  1.00  0.00    -0.273 OA
BRANCH  18  21
HETATM   21  C   UNL     1      27.385  44.401  53.877  1.00  0.00     0.034 A 
HETATM   22  C   UNL     1      27.626  45.306  54.906  1.00  0.00     0.032 A 
HETATM   23  C   UNL     1      28.855  45.301  55.581  1.00  0.00     0.039 A 
HETATM   24  C   UNL     1      29.862  44.397  55.244  1.00  0.00     0.068 A 
HETATM   25  C   UNL     1      29.644  43.513  54.196  1.00  0.00     0.039 A 
HETATM   26  C   UNL     1      28.416  43.518  53.519  1.00  0.00     0.032 A 
BRANCH  24  27
HETATM   27  O   UNL     1      30.993  44.486  56.004  1.00  0.00    -0.356 OA
HETATM   28  C   UNL     1      31.314  43.360  56.814  1.00  0.00     0.210 C 
ENDBRANCH  24  27
ENDBRANCH  18  21
ENDBRANCH  16  17
ENDBRANCH   2  16
TORSDOF 6
ENDMDL
MODEL 3
REMARK VINA RESULT:      -7.5     12.633     14.976
REMARK  6 active torsions:
REMARK  status: ('A' for Active; 'I' for Inactive)
REMARK    1  A    between atoms: C_2  and  N_3 
REMARK    2  A    between atoms: C_2  and  C_16 
REMARK    3  A    between atoms: N_3  and  C_6 
REMARK    4  A    between atoms: C_16  and  C_17 
REMARK       I    between atoms: C_17  and  N_18 
REMARK    5  A    between atoms: N_18  and  C_19 
REMARK    6  A    between atoms: C_22  and  O_23 
ROOT
HETATM    1  C   UNL     1      26.208  46.378  50.646  1.00  0.00     0.040 C 
HETATM    2  C   UNL     1      25.431  45.212  51.238  1.00  0.00     0.191 C 
ENDROOT
BRANCH   2   3
HETATM    3  N   UNL     1      25.906  44.891  52.645  1.00  0.00    -0.063 N 
HETATM    4  H   UNL     1      25.091  45.134  53.242  1.00  0.00     0.278 HD
HETATM    5  H   UNL     1      26.018  43.877  52.762  1.00  0.00     0.278 HD
BRANCH   3   6
HETATM    6  C   UNL     1      27.087  45.601  53.277  1.00  0.00     0.221 C 
HETATM    7  C   UNL     1      28.242  44.706  53.665  1.00  0.00    -0.011 A 
HETATM    8  C   UNL     1      28.877  44.797  54.916  1.00  0.00     0.009 A 
HETATM    9  C   UNL     1      28.763  43.799  52.715  1.00  0.00     0.011 A 
HETATM   10  C   UNL     1      29.951  43.947  55.219  1.00  0.00     0.019 A 
HETATM   11  S   UNL     1      28.410  45.974  56.168  1.00  0.00    -0.129 SA
HETATM   12  C   UNL     1      30.427  43.034  54.281  1.00  0.00     0.001 A 
HETATM   13  C   UNL     1      29.839  42.967  53.025  1.00  0.00     0.001 A 
HETATM   14  C   UNL     1      27.648  47.240  55.126  1.00  0.00     0.082 C 
HETATM   15  C   UNL     1      26.542  46.589  54.320  1.00  0.00     0.048 C 
ENDBRANCH   3   6
ENDBRANCH   2   3
BRANCH   2  16
HETATM   16  C   UNL     1      25.607  43.956  50.354  1.00  0.00     0.135 C 
BRANCH  16  17
HETATM   17  C   UNL     1      24.686  42.843  50.790  1.00  0.00     0.224 C 
HETATM   18  N   UNL     1      25.042  41.535  50.751  1.00  0.00    -0.327 N 
HETATM   19  H   UNL     1      24.277  40.940  51.062  1.00  0.00     0.169 HD
HETATM   20  O   UNL     1      23.583  43.141  51.270  1.00  0.00    -0.273 OA
BRANCH  18  21
HETATM   21  C   UNL     1      26.242  40.848  50.479  1.00  0.00     0.034 A 
HETATM   22  C   UNL     1      27.394  40.865  51.258  1.00  0.00     0.032 A 
HETATM   23  C   UNL     1      28.497  40.072  50.912  1.00  0.00     0.039 A 
HETATM   24  C   UNL     1      28.470  39.248  49.787  1.00  0.00     0.068 A 
HETATM   25  C   UNL     1      27.338  39.249  48.983  1.00  0.00     0.039 A 
HETATM   26  C   UNL     1      26.235  40.044  49.328  1.00  0.00     0.032 A 
BRANCH  24  27
HETATM   27  O   UNL     1      29.600  38.509  49.588  1.00  0.00    -0.356 OA
HETATM   28  C   UNL     1      30.020  37.673  50.661  1.00  0.00     0.210 C 
ENDBRANCH  24  27
ENDBRANCH  18  21
ENDBRANCH  16  17
ENDBRANCH   2  16
TORSDOF 6
ENDMDL
MODEL 4
REMARK VINA RESULT:      -7.4      2.519      4.390
REMARK  6 active torsions:
REMARK  status: ('A' for Active; 'I' for Inactive)
REMARK    1  A    between atoms: C_2  and  N_3 
REMARK    2  A    between atoms: C_2  and  C_16 
REMARK    3  A    between atoms: N_3  and  C_6 
REMARK    4  A    between atoms: C_16  and  C_17 
REMARK       I    between atoms: C_17  and  N_18 
REMARK    5  A    between atoms: N_18  and  C_19 
REMARK    6  A    between atoms: C_22  and  O_23 
ROOT
HETATM    1  C   UNL     1      29.564  46.208  39.410  1.00  0.00     0.040 C 
HETATM    2  C   UNL     1      29.602  47.671  39.827  1.00  0.00     0.191 C 
ENDROOT
BRANCH   2   3
HETATM    3  N   UNL     1      29.848  48.578  38.635  1.00  0.00    -0.063 N 
HETATM    4  H   UNL     1      30.877  48.524  38.491  1.00  0.00     0.278 HD
HETATM    5  H   UNL     1      29.447  48.169  37.784  1.00  0.00     0.278 HD
BRANCH   3   6
HETATM    6  C   UNL     1      29.530  50.061  38.674  1.00  0.00     0.221 C 
HETATM    7  C   UNL     1      30.687  50.956  39.058  1.00  0.00    -0.011 A 
HETATM    8  C   UNL     1      30.560  51.986  40.005  1.00  0.00     0.009 A 
HETATM    9  C   UNL     1      31.923  50.814  38.388  1.00  0.00     0.011 A 
HETATM   10  C   UNL     1      31.663  52.792  40.316  1.00  0.00     0.019 A 
HETATM   11  S   UNL     1      29.033  52.363  40.842  1.00  0.00    -0.129 SA
HETATM   12  C   UNL     1      32.884  52.613  39.670  1.00  0.00     0.001 A 
HETATM   13  C   UNL     1      33.011  51.629  38.698  1.00  0.00     0.001 A 
HETATM   14  C   UNL     1      27.856  51.698  39.642  1.00  0.00     0.082 C 
HETATM   15  C   UNL     1      28.191  50.238  39.406  1.00  0.00     0.048 C 
ENDBRANCH   3   6
ENDBRANCH   2   3
BRANCH   2  16
HETATM   16  C   UNL     1      30.725  47.895  40.865  1.00  0.00     0.135 C 
BRANCH  16  17
HETATM   17  C   UNL     1      30.228  48.681  42.053  1.00  0.00     0.224 C 
HETATM   18  N   UNL     1      31.027  49.502  42.780  1.00  0.00    -0.327 N 
HETATM   19  H   UNL     1      30.512  49.921  43.551  1.00  0.00     0.169 HD
HETATM   20  O   UNL     1      29.022  48.629  42.334  1.00  0.00    -0.273 OA
BRANCH  18  21
HETATM   21  C   UNL     1      32.350  49.965  42.640  1.00  0.00     0.034 A 
HETATM   22  C   UNL     1      33.307  49.468  41.762  1.00  0.00     0.032 A 
HETATM   23  C   UNL     1      34.568  50.073  41.669  1.00  0.00     0.039 A 
HETATM   24  C   UNL     1      34.897  51.183  42.447  1.00  0.00     0.068 A 
HETATM   25  C   UNL     1      33.961  51.667  43.351  1.00  0.00     0.039 A 
HETATM   26  C   UNL     1      32.700  51.060  43.446  1.00  0.00     0.032 A 
BRANCH  24  27
HETATM   27  O   UNL     1      36.146  51.688  42.231  1.00  0.00    -0.356 OA
HETATM   28  C   UNL     1      36.342  52.433  41.034  1.00  0.00     0.210 C 
ENDBRANCH  24  27
ENDBRANCH  18  21
ENDBRANCH  16  17
ENDBRANCH   2  16
TORSDOF 6
ENDMDL
MODEL 5
REMARK VINA RESULT:      -7.0     11.016     13.662
REMARK  6 active torsions:
REMARK  status: ('A' for Active; 'I' for Inactive)
REMARK    1  A    between atoms: C_2  and  N_3 
REMARK    2  A    between atoms: C_2  and  C_16 
REMARK    3  A    between atoms: N_3  and  C_6 
REMARK    4  A    between atoms: C_16  and  C_17 
REMARK       I    between atoms: C_17  and  N_18 
REMARK    5  A    between atoms: N_18  and  C_19 
REMARK    6  A    between atoms: C_22  and  O_23 
ROOT
HETATM    1  C   UNL     1      18.034  47.766  45.711  1.00  0.00     0.040 C 
HETATM    2  C   UNL     1      18.591  48.632  46.831  1.00  0.00     0.191 C 
ENDROOT
BRANCH   2   3
HETATM    3  N   UNL     1      19.208  49.908  46.286  1.00  0.00    -0.063 N 
HETATM    4  H   UNL     1      19.996  50.099  46.937  1.00  0.00     0.278 HD
HETATM    5  H   UNL     1      19.659  49.730  45.381  1.00  0.00     0.278 HD
BRANCH   3   6
HETATM    6  C   UNL     1      18.432  51.209  46.210  1.00  0.00     0.221 C 
HETATM    7  C   UNL     1      17.870  51.699  47.525  1.00  0.00    -0.011 A 
HETATM    8  C   UNL     1      16.546  52.149  47.658  1.00  0.00     0.009 A 
HETATM    9  C   UNL     1      18.721  51.788  48.650  1.00  0.00     0.011 A 
HETATM   10  C   UNL     1      16.080  52.602  48.900  1.00  0.00     0.019 A 
HETATM   11  S   UNL     1      15.393  52.210  46.301  1.00  0.00    -0.129 SA
HETATM   12  C   UNL     1      16.926  52.650  50.006  1.00  0.00     0.001 A 
HETATM   13  C   UNL     1      18.249  52.251  49.879  1.00  0.00     0.001 A 
HETATM   14  C   UNL     1      16.554  52.316  44.919  1.00  0.00     0.082 C 
HETATM   15  C   UNL     1      17.494  51.129  44.996  1.00  0.00     0.048 C 
ENDBRANCH   3   6
ENDBRANCH   2   3
BRANCH   2  16
HETATM   16  C   UNL     1      19.670  47.851  47.616  1.00  0.00     0.135 C 
BRANCH  16  17
HETATM   17  C   UNL     1      19.710  48.274  49.063  1.00  0.00     0.224 C 
HETATM   18  N   UNL     1      20.833  48.744  49.661  1.00  0.00    -0.327 N 
HETATM   19  H   UNL     1      20.663  48.951  50.643  1.00  0.00     0.169 HD
HETATM   20  O   UNL     1      18.657  48.257  49.715  1.00  0.00    -0.273 OA
BRANCH  18  21
HETATM   21  C   UNL     1      22.120  49.095  49.206  1.00  0.00     0.034 A 
HETATM   22  C   UNL     1      23.290  48.373  49.414  1.00  0.00     0.032 A 
HETATM   23  C   UNL     1      24.497  48.794  48.838  1.00  0.00     0.039 A 
HETATM   24  C   UNL     1      24.557  49.939  48.044  1.00  0.00     0.068 A 
HETATM   25  C   UNL     1      23.401  50.686  47.857  1.00  0.00     0.039 A 
HETATM   26  C   UNL     1      22.195  50.266  48.435  1.00  0.00     0.032 A 
BRANCH  24  27
HETATM   27  O   UNL     1      25.789  50.214  47.523  1.00  0.00    -0.356 OA
HETATM   28  C   UNL     1      26.908  50.026  48.382  1.00  0.00     0.210 C 
ENDBRANCH  24  27
ENDBRANCH  18  21
ENDBRANCH  16  17
ENDBRANCH   2  16
TORSDOF 6
ENDMDL
MODEL 6
REMARK VINA RESULT:      -7.0     10.793     12.672
REMARK  6 active torsions:
REMARK  status: ('A' for Active; 'I' for Inactive)
REMARK    1  A    between atoms: C_2  and  N_3 
REMARK    2  A    between atoms: C_2  and  C_16 
REMARK    3  A    between atoms: N_3  and  C_6 
REMARK    4  A    between atoms: C_16  and  C_17 
REMARK       I    between atoms: C_17  and  N_18 
REMARK    5  A    between atoms: N_18  and  C_19 
REMARK    6  A    between atoms: C_22  and  O_23 
ROOT
HETATM    1  C   UNL     1      24.060  44.851  50.365  1.00  0.00     0.040 C 
HETATM    2  C   UNL     1      25.144  45.791  49.859  1.00  0.00     0.191 C 
ENDROOT
BRANCH   2   3
HETATM    3  N   UNL     1      26.516  45.364  50.350  1.00  0.00    -0.063 N 
HETATM    4  H   UNL     1      26.986  45.009  49.493  1.00  0.00     0.278 HD
HETATM    5  H   UNL     1      27.069  46.183  50.626  1.00  0.00     0.278 HD
BRANCH   3   6
HETATM    6  C   UNL     1      26.696  44.269  51.384  1.00  0.00     0.221 C 
HETATM    7  C   UNL     1      27.273  44.722  52.705  1.00  0.00    -0.011 A 
HETATM    8  C   UNL     1      28.317  44.034  53.347  1.00  0.00     0.009 A 
HETATM    9  C   UNL     1      26.696  45.828  53.369  1.00  0.00     0.011 A 
HETATM   10  C   UNL     1      28.808  44.494  54.577  1.00  0.00     0.019 A 
HETATM   11  S   UNL     1      29.062  42.554  52.692  1.00  0.00    -0.129 SA
HETATM   12  C   UNL     1      28.248  45.608  55.198  1.00  0.00     0.001 A 
HETATM   13  C   UNL     1      27.186  46.270  54.598  1.00  0.00     0.001 A 
HETATM   14  C   UNL     1      27.702  41.959  51.661  1.00  0.00     0.082 C 
HETATM   15  C   UNL     1      27.330  43.057  50.683  1.00  0.00     0.048 C 
ENDBRANCH   3   6
ENDBRANCH   2   3
BRANCH   2  16
HETATM   16  C   UNL     1      24.865  47.231  50.347  1.00  0.00     0.135 C 
BRANCH  16  17
HETATM   17  C   UNL     1      25.621  48.246  49.526  1.00  0.00     0.224 C 
HETATM   18  N   UNL     1      25.003  49.211  48.799  1.00  0.00    -0.327 N 
HETATM   19  H   UNL     1      25.683  49.779  48.297  1.00  0.00     0.169 HD
HETATM   20  O   UNL     1      26.859  48.242  49.572  1.00  0.00    -0.273 OA
BRANCH  18  21
HETATM   21  C   UNL     1      23.670  49.648  48.673  1.00  0.00     0.034 A 
HETATM   22  C   UNL     1      23.176  50.895  49.042  1.00  0.00     0.032 A 
HETATM   23  C   UNL     1      21.838  51.231  48.790  1.00  0.00     0.039 A 
HETATM   24  C   UNL     1      20.972  50.334  48.165  1.00  0.00     0.068 A 
HETATM   25  C   UNL     1      21.447  49.075  47.822  1.00  0.00     0.039 A 
HETATM   26  C   UNL     1      22.784  48.737  48.076  1.00  0.00     0.032 A 
BRANCH  24  27
HETATM   27  O   UNL     1      19.709  50.805  47.955  1.00  0.00    -0.356 OA
HETATM   28  C   UNL     1      19.408  52.096  48.475  1.00  0.00     0.210 C 
ENDBRANCH  24  27
ENDBRANCH  18  21
ENDBRANCH  16  17
ENDBRANCH   2  16
TORSDOF 6
ENDMDL
MODEL 7
REMARK VINA RESULT:      -6.9      2.261      5.419
REMARK  6 active torsions:
REMARK  status: ('A' for Active; 'I' for Inactive)
REMARK    1  A    between atoms: C_2  and  N_3 
REMARK    2  A    between atoms: C_2  and  C_16 
REMARK    3  A    between atoms: N_3  and  C_6 
REMARK    4  A    between atoms: C_16  and  C_17 
REMARK       I    between atoms: C_17  and  N_18 
REMARK    5  A    between atoms: N_18  and  C_19 
REMARK    6  A    between atoms: C_22  and  O_23 
ROOT
HETATM    1  C   UNL     1      32.551  51.922  44.618  1.00  0.00     0.040 C 
HETATM    2  C   UNL     1      32.362  51.481  43.174  1.00  0.00     0.191 C 
ENDROOT
BRANCH   2   3
HETATM    3  N   UNL     1      31.268  52.282  42.492  1.00  0.00    -0.063 N 
HETATM    4  H   UNL     1      30.408  51.722  42.661  1.00  0.00     0.278 HD
HETATM    5  H   UNL     1      31.104  53.164  42.992  1.00  0.00     0.278 HD
BRANCH   3   6
HETATM    6  C   UNL     1      31.279  52.550  40.999  1.00  0.00     0.221 C 
HETATM    7  C   UNL     1      30.160  51.896  40.221  1.00  0.00    -0.011 A 
HETATM    8  C   UNL     1      30.384  51.197  39.022  1.00  0.00     0.009 A 
HETATM    9  C   UNL     1      28.827  52.056  40.661  1.00  0.00     0.011 A 
HETATM   10  C   UNL     1      29.307  50.617  38.337  1.00  0.00     0.019 A 
HETATM   11  S   UNL     1      31.994  51.017  38.281  1.00  0.00    -0.129 SA
HETATM   12  C   UNL     1      28.003  50.757  38.806  1.00  0.00     0.001 A 
HETATM   13  C   UNL     1      27.762  51.484  39.964  1.00  0.00     0.001 A 
HETATM   14  C   UNL     1      32.818  52.462  38.987  1.00  0.00     0.082 C 
HETATM   15  C   UNL     1      32.721  52.374  40.498  1.00  0.00     0.048 C 
ENDBRANCH   3   6
ENDBRANCH   2   3
BRANCH   2  16
HETATM   16  C   UNL     1      31.986  49.982  43.125  1.00  0.00     0.135 C 
BRANCH  16  17
HETATM   17  C   UNL     1      32.666  49.282  41.974  1.00  0.00     0.224 C 
HETATM   18  N   UNL     1      32.006  48.469  41.113  1.00  0.00    -0.327 N 
HETATM   19  H   UNL     1      32.642  48.075  40.423  1.00  0.00     0.169 HD
HETATM   20  O   UNL     1      33.865  49.516  41.763  1.00  0.00    -0.273 OA
BRANCH  18  21
HETATM   21  C   UNL     1      30.650  48.141  40.910  1.00  0.00     0.034 A 
HETATM   22  C   UNL     1      30.142  47.339  39.893  1.00  0.00     0.032 A 
HETATM   23  C   UNL     1      28.775  47.027  39.852  1.00  0.00     0.039 A 
HETATM   24  C   UNL     1      27.894  47.507  40.820  1.00  0.00     0.068 A 
HETATM   25  C   UNL     1      28.386  48.335  41.820  1.00  0.00     0.039 A 
HETATM   26  C   UNL     1      29.752  48.649  41.862  1.00  0.00     0.032 A 
BRANCH  24  27
HETATM   27  O   UNL     1      26.600  47.099  40.673  1.00  0.00    -0.356 OA
HETATM   28  C   UNL     1      25.669  48.070  40.207  1.00  0.00     0.210 C 
ENDBRANCH  24  27
ENDBRANCH  18  21
ENDBRANCH  16  17
ENDBRANCH   2  16
TORSDOF 6
ENDMDL
MODEL 8
REMARK VINA RESULT:      -6.7     12.014     14.572
REMARK  6 active torsions:
REMARK  status: ('A' for Active; 'I' for Inactive)
REMARK    1  A    between atoms: C_2  and  N_3 
REMARK    2  A    between atoms: C_2  and  C_16 
REMARK    3  A    between atoms: N_3  and  C_6 
REMARK    4  A    between atoms: C_16  and  C_17 
REMARK       I    between atoms: C_17  and  N_18 
REMARK    5  A    between atoms: N_18  and  C_19 
REMARK    6  A    between atoms: C_22  and  O_23 
ROOT
HETATM    1  C   UNL     1      25.657  47.084  52.870  1.00  0.00     0.040 C 
HETATM    2  C   UNL     1      25.754  45.886  51.937  1.00  0.00     0.191 C 
ENDROOT
BRANCH   2   3
HETATM    3  N   UNL     1      24.425  45.608  51.257  1.00  0.00    -0.063 N 
HETATM    4  H   UNL     1      24.214  44.624  51.520  1.00  0.00     0.278 HD
HETATM    5  H   UNL     1      23.677  46.157  51.695  1.00  0.00     0.278 HD
BRANCH   3   6
HETATM    6  C   UNL     1      24.266  45.659  49.750  1.00  0.00     0.221 C 
HETATM    7  C   UNL     1      23.491  46.846  49.226  1.00  0.00    -0.011 A 
HETATM    8  C   UNL     1      22.474  46.717  48.264  1.00  0.00     0.009 A 
HETATM    9  C   UNL     1      23.846  48.146  49.650  1.00  0.00     0.011 A 
HETATM   10  C   UNL     1      21.793  47.854  47.806  1.00  0.00     0.019 A 
HETATM   11  S   UNL     1      21.999  45.157  47.547  1.00  0.00    -0.129 SA
HETATM   12  C   UNL     1      22.136  49.124  48.264  1.00  0.00     0.001 A 
HETATM   13  C   UNL     1      23.169  49.271  49.179  1.00  0.00     0.001 A 
HETATM   14  C   UNL     1      23.531  44.230  47.791  1.00  0.00     0.082 C 
HETATM   15  C   UNL     1      23.872  44.255  49.268  1.00  0.00     0.048 C 
ENDBRANCH   3   6
ENDBRANCH   2   3
BRANCH   2  16
HETATM   16  C   UNL     1      26.180  44.631  52.733  1.00  0.00     0.135 C 
BRANCH  16  17
HETATM   17  C   UNL     1      27.207  43.824  51.978  1.00  0.00     0.224 C 
HETATM   18  N   UNL     1      28.447  43.569  52.468  1.00  0.00    -0.327 N 
HETATM   19  H   UNL     1      28.998  43.032  51.801  1.00  0.00     0.169 HD
HETATM   20  O   UNL     1      26.882  43.313  50.897  1.00  0.00    -0.273 OA
BRANCH  18  21
HETATM   21  C   UNL     1      29.083  43.792  53.705  1.00  0.00     0.034 A 
HETATM   22  C   UNL     1      30.095  43.016  54.260  1.00  0.00     0.032 A 
HETATM   23  C   UNL     1      30.698  43.395  55.468  1.00  0.00     0.039 A 
HETATM   24  C   UNL     1      30.306  44.551  56.141  1.00  0.00     0.068 A 
HETATM   25  C   UNL     1      29.273  45.315  55.612  1.00  0.00     0.039 A 
HETATM   26  C   UNL     1      28.668  44.935  54.406  1.00  0.00     0.032 A 
BRANCH  24  27
HETATM   27  O   UNL     1      30.999  44.813  57.287  1.00  0.00    -0.356 OA
HETATM   28  C   UNL     1      30.377  45.677  58.232  1.00  0.00     0.210 C 
ENDBRANCH  24  27
ENDBRANCH  18  21
ENDBRANCH  16  17
ENDBRANCH   2  16
TORSDOF 6
ENDMDL
MODEL 9
REMARK VINA RESULT:      -6.6     10.481     12.399
REMARK  6 active torsions:
REMARK  status: ('A' for Active; 'I' for Inactive)
REMARK    1  A    between atoms: C_2  and  N_3 
REMARK    2  A    between atoms: C_2  and  C_16 
REMARK    3  A    between atoms: N_3  and  C_6 
REMARK    4  A    between atoms: C_16  and  C_17 
REMARK       I    between atoms: C_17  and  N_18 
REMARK    5  A    between atoms: N_18  and  C_19 
REMARK    6  A    between atoms: C_22  and  O_23 
ROOT
HETATM    1  C   UNL     1      23.078  44.609  47.292  1.00  0.00     0.040 C 
HETATM    2  C   UNL     1      22.659  45.985  47.789  1.00  0.00     0.191 C 
ENDROOT
BRANCH   2   3
HETATM    3  N   UNL     1      22.957  46.150  49.269  1.00  0.00    -0.063 N 
HETATM    4  H   UNL     1      22.027  46.354  49.688  1.00  0.00     0.278 HD
HETATM    5  H   UNL     1      23.235  45.252  49.682  1.00  0.00     0.278 HD
BRANCH   3   6
HETATM    6  C   UNL     1      23.873  47.242  49.788  1.00  0.00     0.221 C 
HETATM    7  C   UNL     1      23.640  48.612  49.193  1.00  0.00    -0.011 A 
HETATM    8  C   UNL     1      24.692  49.421  48.728  1.00  0.00     0.009 A 
HETATM    9  C   UNL     1      22.331  49.144  49.173  1.00  0.00     0.011 A 
HETATM   10  C   UNL     1      24.419  50.688  48.193  1.00  0.00     0.019 A 
HETATM   11  S   UNL     1      26.404  48.935  48.800  1.00  0.00    -0.129 SA
HETATM   12  C   UNL     1      23.116  51.180  48.151  1.00  0.00     0.001 A 
HETATM   13  C   UNL     1      22.073  50.411  48.649  1.00  0.00     0.001 A 
HETATM   14  C   UNL     1      26.328  47.750  50.162  1.00  0.00     0.082 C 
HETATM   15  C   UNL     1      25.306  46.686  49.810  1.00  0.00     0.048 C 
ENDBRANCH   3   6
ENDBRANCH   2   3
BRANCH   2  16
HETATM   16  C   UNL     1      21.144  46.191  47.560  1.00  0.00     0.135 C 
BRANCH  16  17
HETATM   17  C   UNL     1      20.342  45.752  48.760  1.00  0.00     0.224 C 
HETATM   18  N   UNL     1      19.477  46.572  49.407  1.00  0.00    -0.327 N 
HETATM   19  H   UNL     1      19.053  46.099  50.203  1.00  0.00     0.169 HD
HETATM   20  O   UNL     1      20.423  44.571  49.127  1.00  0.00    -0.273 OA
BRANCH  18  21
HETATM   21  C   UNL     1      18.977  47.866  49.164  1.00  0.00     0.034 A 
HETATM   22  C   UNL     1      18.456  48.334  47.961  1.00  0.00     0.032 A 
HETATM   23  C   UNL     1      17.918  49.626  47.875  1.00  0.00     0.039 A 
HETATM   24  C   UNL     1      17.889  50.472  48.982  1.00  0.00     0.068 A 
HETATM   25  C   UNL     1      18.437  50.028  50.179  1.00  0.00     0.039 A 
HETATM   26  C   UNL     1      18.977  48.737  50.265  1.00  0.00     0.032 A 
BRANCH  24  27
HETATM   27  O   UNL     1      17.310  51.688  48.762  1.00  0.00    -0.356 OA
HETATM   28  C   UNL     1      16.874  52.411  49.908  1.00  0.00     0.210 C 
ENDBRANCH  24  27
ENDBRANCH  18  21
ENDBRANCH  16  17
ENDBRANCH   2  16
TORSDOF 6
ENDMDL
MODEL 10
REMARK VINA RESULT:      -6.6      2.410      4.094
REMARK  6 active torsions:
REMARK  status: ('A' for Active; 'I' for Inactive)
REMARK    1  A    between atoms: C_2  and  N_3 
REMARK    2  A    between atoms: C_2  and  C_16 
REMARK    3  A    between atoms: N_3  and  C_6 
REMARK    4  A    between atoms: C_16  and  C_17 
REMARK       I    between atoms: C_17  and  N_18 
REMARK    5  A    between atoms: N_18  and  C_19 
REMARK    6  A    between atoms: C_22  and  O_23 
ROOT
HETATM    1  C   UNL     1      23.737  48.165  40.196  1.00  0.00     0.040 C 
HETATM    2  C   UNL     1      25.199  48.252  39.785  1.00  0.00     0.191 C 
ENDROOT
BRANCH   2   3
HETATM    3  N   UNL     1      26.119  48.029  40.972  1.00  0.00    -0.063 N 
HETATM    4  H   UNL     1      26.592  48.947  41.094  1.00  0.00     0.278 HD
HETATM    5  H   UNL     1      25.573  47.904  41.831  1.00  0.00     0.278 HD
BRANCH   3   6
HETATM    6  C   UNL     1      27.240  47.008  40.940  1.00  0.00     0.221 C 
HETATM    7  C   UNL     1      28.636  47.583  41.028  1.00  0.00    -0.011 A 
HETATM    8  C   UNL     1      29.673  47.177  40.172  1.00  0.00     0.009 A 
HETATM    9  C   UNL     1      28.941  48.500  42.058  1.00  0.00     0.011 A 
HETATM   10  C   UNL     1      30.952  47.737  40.305  1.00  0.00     0.019 A 
HETATM   11  S   UNL     1      29.470  45.940  38.906  1.00  0.00    -0.129 SA
HETATM   12  C   UNL     1      31.224  48.667  41.305  1.00  0.00     0.001 A 
HETATM   13  C   UNL     1      30.220  49.043  42.188  1.00  0.00     0.001 A 
HETATM   14  C   UNL     1      28.070  45.027  39.594  1.00  0.00     0.082 C 
HETATM   15  C   UNL     1      26.931  46.002  39.819  1.00  0.00     0.048 C 
ENDBRANCH   3   6
ENDBRANCH   2   3
BRANCH   2  16
HETATM   16  C   UNL     1      25.495  49.643  39.178  1.00  0.00     0.135 C 
BRANCH  16  17
HETATM   17  C   UNL     1      26.532  49.557  38.086  1.00  0.00     0.224 C 
HETATM   18  N   UNL     1      27.708  50.230  38.133  1.00  0.00    -0.327 N 
HETATM   19  H   UNL     1      28.259  50.061  37.294  1.00  0.00     0.169 HD
HETATM   20  O   UNL     1      26.332  48.783  37.139  1.00  0.00    -0.273 OA
BRANCH  18  21
HETATM   21  C   UNL     1      28.359  51.010  39.110  1.00  0.00     0.034 A 
HETATM   22  C   UNL     1      27.792  51.500  40.282  1.00  0.00     0.032 A 
HETATM   23  C   UNL     1      28.575  52.201  41.210  1.00  0.00     0.039 A 
HETATM   24  C   UNL     1      29.933  52.424  40.988  1.00  0.00     0.068 A 
HETATM   25  C   UNL     1      30.502  51.968  39.806  1.00  0.00     0.039 A 
HETATM   26  C   UNL     1      29.719  51.270  38.876  1.00  0.00     0.032 A 
BRANCH  24  27
HETATM   27  O   UNL     1      30.578  53.093  41.988  1.00  0.00    -0.356 OA
HETATM   28  C   UNL     1      31.420  52.323  42.838  1.00  0.00     0.210 C 
ENDBRANCH  24  27
ENDBRANCH  18  21
ENDBRANCH  16  17
ENDBRANCH   2  16
TORSDOF 6
ENDMDL
