MODEL 1
REMARK VINA RESULT:      -8.9      0.000      0.000
REMARK  7 active torsions:
REMARK  status: ('A' for Active; 'I' for Inactive)
REMARK    1  A    between atoms: C_2  and  N_3 
REMARK    2  A    between atoms: C_2  and  C_12 
REMARK       I    between atoms: N_3  and  C_4 
REMARK    3  A    between atoms: C_4  and  C_5 
REMARK    4  A    between atoms: N_17  and  C_19 
REMARK    5  A    between atoms: C_19  and  C_20 
REMARK    6  A    between atoms: C_22  and  C_23 
REMARK    7  A    between atoms: C_23  and  N_24 
ROOT
HETATM    1  C   UNL     1      27.832  42.921  52.968  1.00  0.00     0.152 A 
HETATM    2  N   UNL     1      26.855  43.727  52.422  1.00  0.00    -0.317 N 
HETATM    3  C   UNL     1      26.111  44.183  53.482  1.00  0.00     0.131 A 
HETATM    4  C   UNL     1      25.043  45.213  53.429  1.00  0.00     0.108 C 
HETATM    5  C   UNL     1      25.523  46.441  52.665  1.00  0.00     0.243 C 
HETATM    6  N   UNL     1      25.423  46.284  51.147  1.00  0.00    -0.065 N 
HETATM    7  H   UNL     1      24.473  46.602  50.908  1.00  0.00     0.280 HD
HETATM    8  C   UNL     1      25.488  44.855  50.610  1.00  0.00     0.255 C 
HETATM    9  C   UNL     1      26.736  44.072  51.024  1.00  0.00     0.159 C 
HETATM   10  N   UNL     1      26.562  43.634  54.585  1.00  0.00    -0.135 NA
HETATM   11  N   UNL     1      27.631  42.846  54.267  1.00  0.00    -0.133 NA
ENDROOT
BRANCH   6  12
HETATM   12  C   UNL     1      26.354  47.232  50.398  1.00  0.00     0.280 C 
BRANCH  12  13
HETATM   13  C   UNL     1      25.647  48.226  49.518  1.00  0.00     0.009 A 
HETATM   14  S   UNL     1      23.934  48.208  49.399  1.00  0.00    -0.096 SA
HETATM   15  C   UNL     1      23.907  49.534  48.312  1.00  0.00     0.009 A 
HETATM   16  C   UNL     1      25.186  49.988  48.054  1.00  0.00     0.017 A 
HETATM   17  C   UNL     1      26.185  49.245  48.756  1.00  0.00     0.017 A 
BRANCH  15  18
HETATM   18  C   UNL     1      22.605  50.042  47.758  1.00  0.00     0.280 C 
BRANCH  18  19
HETATM   19  N   UNL     1      21.479  50.072  48.772  1.00  0.00    -0.067 N 
HETATM   20  H   UNL     1      21.915  49.948  49.695  1.00  0.00     0.280 HD
HETATM   21  C   UNL     1      20.736  51.390  48.786  1.00  0.00     0.235 C 
HETATM   22  C   UNL     1      19.693  51.379  49.895  1.00  0.00     0.028 C 
HETATM   23  C   UNL     1      18.732  50.205  49.755  1.00  0.00     0.003 C 
HETATM   24  C   UNL     1      19.491  48.886  49.676  1.00  0.00     0.028 C 
HETATM   25  C   UNL     1      20.535  48.903  48.568  1.00  0.00     0.235 C 
ENDBRANCH  18  19
ENDBRANCH  15  18
ENDBRANCH  12  13
ENDBRANCH   6  12
BRANCH   1  26
HETATM   26  C   UNL     1      28.962  42.292  52.215  1.00  0.00     0.152 C 
HETATM   27  C   UNL     1      30.278  42.472  52.969  1.00  0.00     0.040 C 
BRANCH  26  28
HETATM   28  N   UNL     1      28.658  40.891  52.023  1.00  0.00    -0.349 N 
HETATM   29  C   UNL     1      28.325  40.413  50.775  1.00  0.00     0.222 C 
HETATM   30  O   UNL     1      28.104  41.173  49.837  1.00  0.00    -0.273 OA
HETATM   31  H   UNL     1      28.988  40.243  52.733  1.00  0.00     0.163 HD
BRANCH  29  32
HETATM   32  C   UNL     1      28.268  38.890  50.674  1.00  0.00     0.082 C 
HETATM   33  C   UNL     1      27.480  38.435  49.442  1.00  0.00     0.040 C 
HETATM   34  C   UNL     1      28.298  38.609  48.168  1.00  0.00     0.168 C 
HETATM   35  O   UNL     1      29.536  37.915  48.273  1.00  0.00    -0.391 OA
HETATM   36  C   UNL     1      30.360  38.424  49.320  1.00  0.00     0.168 C 
HETATM   37  C   UNL     1      29.670  38.271  50.671  1.00  0.00     0.040 C 
ENDBRANCH  29  32
ENDBRANCH  26  28
ENDBRANCH   1  26
TORSDOF 7
ENDMDL
MODEL 2
REMARK VINA RESULT:      -8.6      4.579     11.011
REMARK  7 active torsions:
REMARK  status: ('A' for Active; 'I' for Inactive)
REMARK    1  A    between atoms: C_2  and  N_3 
REMARK    2  A    between atoms: C_2  and  C_12 
REMARK       I    between atoms: N_3  and  C_4 
REMARK    3  A    between atoms: C_4  and  C_5 
REMARK    4  A    between atoms: N_17  and  C_19 
REMARK    5  A    between atoms: C_19  and  C_20 
REMARK    6  A    between atoms: C_22  and  C_23 
REMARK    7  A    between atoms: C_23  and  N_24 
ROOT
HETATM    1  C   UNL     1      22.623  49.381  49.198  1.00  0.00     0.152 A 
HETATM    2  N   UNL     1      23.504  48.321  49.228  1.00  0.00    -0.317 N 
HETATM    3  C   UNL     1      24.758  48.874  49.160  1.00  0.00     0.131 A 
HETATM    4  C   UNL     1      26.047  48.156  49.324  1.00  0.00     0.108 C 
HETATM    5  C   UNL     1      26.016  47.282  50.571  1.00  0.00     0.243 C 
HETATM    6  N   UNL     1      25.318  45.940  50.350  1.00  0.00    -0.065 N 
HETATM    7  H   UNL     1      26.057  45.305  50.018  1.00  0.00     0.280 HD
HETATM    8  C   UNL     1      24.263  45.902  49.245  1.00  0.00     0.255 C 
HETATM    9  C   UNL     1      23.141  46.932  49.395  1.00  0.00     0.159 C 
HETATM   10  N   UNL     1      24.642  50.174  49.027  1.00  0.00    -0.135 NA
HETATM   11  N   UNL     1      23.314  50.491  49.046  1.00  0.00    -0.133 NA
ENDROOT
BRANCH   6  12
HETATM   12  C   UNL     1      24.822  45.317  51.651  1.00  0.00     0.280 C 
BRANCH  12  13
HETATM   13  C   UNL     1      25.897  45.096  52.680  1.00  0.00     0.009 A 
HETATM   14  S   UNL     1      27.399  44.399  52.223  1.00  0.00    -0.096 SA
HETATM   15  C   UNL     1      28.026  44.488  53.816  1.00  0.00     0.009 A 
HETATM   16  C   UNL     1      27.105  45.050  54.679  1.00  0.00     0.017 A 
HETATM   17  C   UNL     1      25.887  45.412  54.025  1.00  0.00     0.017 A 
BRANCH  15  18
HETATM   18  C   UNL     1      29.404  43.971  54.125  1.00  0.00     0.280 C 
BRANCH  18  19
HETATM   19  N   UNL     1      29.774  44.056  55.592  1.00  0.00    -0.067 N 
HETATM   20  H   UNL     1      28.973  43.683  56.116  1.00  0.00     0.280 HD
HETATM   21  C   UNL     1      30.984  43.218  55.941  1.00  0.00     0.235 C 
HETATM   22  C   UNL     1      31.230  43.273  57.443  1.00  0.00     0.028 C 
HETATM   23  C   UNL     1      31.389  44.706  57.936  1.00  0.00     0.003 C 
HETATM   24  C   UNL     1      30.197  45.560  57.524  1.00  0.00     0.028 C 
HETATM   25  C   UNL     1      29.953  45.499  56.023  1.00  0.00     0.235 C 
ENDBRANCH  18  19
ENDBRANCH  15  18
ENDBRANCH  12  13
ENDBRANCH   6  12
BRANCH   1  26
HETATM   26  C   UNL     1      21.139  49.284  49.371  1.00  0.00     0.152 C 
HETATM   27  C   UNL     1      20.574  50.597  49.908  1.00  0.00     0.040 C 
BRANCH  26  28
HETATM   28  N   UNL     1      20.553  48.948  48.092  1.00  0.00    -0.349 N 
HETATM   29  C   UNL     1      19.721  47.858  47.970  1.00  0.00     0.222 C 
HETATM   30  O   UNL     1      19.593  47.045  48.880  1.00  0.00    -0.273 OA
HETATM   31  H   UNL     1      20.517  49.683  47.390  1.00  0.00     0.163 HD
BRANCH  29  32
HETATM   32  C   UNL     1      18.988  47.766  46.632  1.00  0.00     0.082 C 
HETATM   33  C   UNL     1      17.775  46.834  46.716  1.00  0.00     0.040 C 
HETATM   34  C   UNL     1      16.614  47.501  47.443  1.00  0.00     0.168 C 
HETATM   35  O   UNL     1      16.275  48.733  46.815  1.00  0.00    -0.391 OA
HETATM   36  C   UNL     1      17.341  49.680  46.860  1.00  0.00     0.168 C 
HETATM   37  C   UNL     1      18.566  49.149  46.124  1.00  0.00     0.040 C 
ENDBRANCH  29  32
ENDBRANCH  26  28
ENDBRANCH   1  26
TORSDOF 7
ENDMDL
MODEL 3
REMARK VINA RESULT:      -8.6      4.773     10.716
REMARK  7 active torsions:
REMARK  status: ('A' for Active; 'I' for Inactive)
REMARK    1  A    between atoms: C_2  and  N_3 
REMARK    2  A    between atoms: C_2  and  C_12 
REMARK       I    between atoms: N_3  and  C_4 
REMARK    3  A    between atoms: C_4  and  C_5 
REMARK    4  A    between atoms: N_17  and  C_19 
REMARK    5  A    between atoms: C_19  and  C_20 
REMARK    6  A    between atoms: C_22  and  C_23 
REMARK    7  A    between atoms: C_23  and  N_24 
ROOT
HETATM    1  C   UNL     1      23.039  49.790  48.344  1.00  0.00     0.152 A 
HETATM    2  N   UNL     1      23.879  48.771  48.739  1.00  0.00    -0.317 N 
HETATM    3  C   UNL     1      25.145  49.174  48.395  1.00  0.00     0.131 A 
HETATM    4  C   UNL     1      26.414  48.495  48.760  1.00  0.00     0.108 C 
HETATM    5  C   UNL     1      26.441  48.176  50.249  1.00  0.00     0.243 C 
HETATM    6  N   UNL     1      25.677  46.901  50.606  1.00  0.00    -0.065 N 
HETATM    7  H   UNL     1      26.366  46.141  50.511  1.00  0.00     0.280 HD
HETATM    8  C   UNL     1      24.544  46.504  49.660  1.00  0.00     0.255 C 
HETATM    9  C   UNL     1      23.477  47.581  49.454  1.00  0.00     0.159 C 
HETATM   10  N   UNL     1      25.069  50.325  47.771  1.00  0.00    -0.135 NA
HETATM   11  N   UNL     1      23.760  50.709  47.734  1.00  0.00    -0.133 NA
ENDROOT
BRANCH   6  12
HETATM   12  C   UNL     1      25.254  46.863  52.071  1.00  0.00     0.280 C 
BRANCH  12  13
HETATM   13  C   UNL     1      26.318  46.365  53.010  1.00  0.00     0.009 A 
HETATM   14  S   UNL     1      27.200  44.939  52.635  1.00  0.00    -0.096 SA
HETATM   15  C   UNL     1      28.144  45.042  54.063  1.00  0.00     0.009 A 
HETATM   16  C   UNL     1      27.797  46.153  54.807  1.00  0.00     0.017 A 
HETATM   17  C   UNL     1      26.757  46.920  54.196  1.00  0.00     0.017 A 
BRANCH  15  18
HETATM   18  C   UNL     1      29.174  43.992  54.375  1.00  0.00     0.280 C 
BRANCH  18  19
HETATM   19  N   UNL     1      29.712  44.064  55.790  1.00  0.00    -0.067 N 
HETATM   20  H   UNL     1      28.977  43.686  56.400  1.00  0.00     0.280 HD
HETATM   21  C   UNL     1      30.954  43.224  55.989  1.00  0.00     0.235 C 
HETATM   22  C   UNL     1      31.373  43.267  57.453  1.00  0.00     0.028 C 
HETATM   23  C   UNL     1      31.588  44.695  57.937  1.00  0.00     0.003 C 
HETATM   24  C   UNL     1      30.357  45.552  57.673  1.00  0.00     0.028 C 
HETATM   25  C   UNL     1      29.940  45.504  56.210  1.00  0.00     0.235 C 
ENDBRANCH  18  19
ENDBRANCH  15  18
ENDBRANCH  12  13
ENDBRANCH   6  12
BRANCH   1  26
HETATM   26  C   UNL     1      21.570  49.863  48.617  1.00  0.00     0.152 C 
HETATM   27  C   UNL     1      21.055  51.287  48.417  1.00  0.00     0.040 C 
BRANCH  26  28
HETATM   28  N   UNL     1      20.896  48.936  47.735  1.00  0.00    -0.349 N 
HETATM   29  C   UNL     1      19.764  48.271  48.153  1.00  0.00     0.222 C 
HETATM   30  O   UNL     1      19.399  48.303  49.324  1.00  0.00    -0.273 OA
HETATM   31  H   UNL     1      21.084  49.021  46.739  1.00  0.00     0.163 HD
BRANCH  29  32
HETATM   32  C   UNL     1      19.027  47.518  47.047  1.00  0.00     0.082 C 
HETATM   33  C   UNL     1      19.577  46.100  46.867  1.00  0.00     0.040 C 
HETATM   34  C   UNL     1      19.100  45.176  47.980  1.00  0.00     0.168 C 
HETATM   35  O   UNL     1      17.678  45.172  48.048  1.00  0.00    -0.391 OA
HETATM   36  C   UNL     1      17.144  46.454  48.370  1.00  0.00     0.168 C 
HETATM   37  C   UNL     1      17.516  47.477  47.303  1.00  0.00     0.040 C 
ENDBRANCH  29  32
ENDBRANCH  26  28
ENDBRANCH   1  26
TORSDOF 7
ENDMDL
MODEL 4
REMARK VINA RESULT:      -8.3      4.412     11.689
REMARK  7 active torsions:
REMARK  status: ('A' for Active; 'I' for Inactive)
REMARK    1  A    between atoms: C_2  and  N_3 
REMARK    2  A    between atoms: C_2  and  C_12 
REMARK       I    between atoms: N_3  and  C_4 
REMARK    3  A    between atoms: C_4  and  C_5 
REMARK    4  A    between atoms: N_17  and  C_19 
REMARK    5  A    between atoms: C_19  and  C_20 
REMARK    6  A    between atoms: C_22  and  C_23 
REMARK    7  A    between atoms: C_23  and  N_24 
ROOT
HETATM    1  C   UNL     1      20.287  49.398  49.606  1.00  0.00     0.152 A 
HETATM    2  N   UNL     1      21.340  48.678  49.083  1.00  0.00    -0.317 N 
HETATM    3  C   UNL     1      22.444  49.484  49.210  1.00  0.00     0.131 A 
HETATM    4  C   UNL     1      23.852  49.096  48.942  1.00  0.00     0.108 C 
HETATM    5  C   UNL     1      24.183  47.778  49.631  1.00  0.00     0.243 C 
HETATM    6  N   UNL     1      23.715  46.552  48.846  1.00  0.00    -0.065 N 
HETATM    7  H   UNL     1      24.495  46.328  48.212  1.00  0.00     0.280 HD
HETATM    8  C   UNL     1      22.520  46.762  47.916  1.00  0.00     0.255 C 
HETATM    9  C   UNL     1      21.269  47.318  48.599  1.00  0.00     0.159 C 
HETATM   10  N   UNL     1      22.072  50.638  49.711  1.00  0.00    -0.135 NA
HETATM   11  N   UNL     1      20.730  50.588  49.954  1.00  0.00    -0.133 NA
ENDROOT
BRANCH   6  12
HETATM   12  C   UNL     1      23.559  45.318  49.728  1.00  0.00     0.280 C 
BRANCH  12  13
HETATM   13  C   UNL     1      24.853  44.626  50.059  1.00  0.00     0.009 A 
HETATM   14  S   UNL     1      24.856  43.245  51.081  1.00  0.00    -0.096 SA
HETATM   15  C   UNL     1      26.556  43.055  50.967  1.00  0.00     0.009 A 
HETATM   16  C   UNL     1      27.109  44.025  50.152  1.00  0.00     0.017 A 
HETATM   17  C   UNL     1      26.129  44.920  49.621  1.00  0.00     0.017 A 
BRANCH  15  18
HETATM   18  C   UNL     1      27.254  41.953  51.715  1.00  0.00     0.280 C 
BRANCH  18  19
HETATM   19  N   UNL     1      27.962  42.419  52.971  1.00  0.00    -0.067 N 
HETATM   20  H   UNL     1      27.796  41.698  53.683  1.00  0.00     0.280 HD
HETATM   21  C   UNL     1      29.458  42.549  52.786  1.00  0.00     0.235 C 
HETATM   22  C   UNL     1      30.108  42.920  54.112  1.00  0.00     0.028 C 
HETATM   23  C   UNL     1      29.510  44.194  54.697  1.00  0.00     0.003 C 
HETATM   24  C   UNL     1      27.996  44.080  54.818  1.00  0.00     0.028 C 
HETATM   25  C   UNL     1      27.352  43.706  53.491  1.00  0.00     0.235 C 
ENDBRANCH  18  19
ENDBRANCH  15  18
ENDBRANCH  12  13
ENDBRANCH   6  12
BRANCH   1  26
HETATM   26  C   UNL     1      18.894  48.886  49.800  1.00  0.00     0.152 C 
HETATM   27  C   UNL     1      18.582  48.722  51.286  1.00  0.00     0.040 C 
BRANCH  26  28
HETATM   28  N   UNL     1      17.977  49.813  49.174  1.00  0.00    -0.349 N 
HETATM   29  C   UNL     1      16.925  49.350  48.414  1.00  0.00     0.222 C 
HETATM   30  O   UNL     1      16.836  48.168  48.099  1.00  0.00    -0.273 OA
HETATM   31  H   UNL     1      17.942  50.757  49.549  1.00  0.00     0.163 HD
BRANCH  29  32
HETATM   32  C   UNL     1      15.909  50.420  48.020  1.00  0.00     0.082 C 
HETATM   33  C   UNL     1      16.554  51.807  47.934  1.00  0.00     0.040 C 
HETATM   34  C   UNL     1      17.381  51.954  46.663  1.00  0.00     0.168 C 
HETATM   35  O   UNL     1      16.583  51.685  45.516  1.00  0.00    -0.391 OA
HETATM   36  C   UNL     1      16.095  50.345  45.493  1.00  0.00     0.168 C 
HETATM   37  C   UNL     1      15.207  50.074  46.702  1.00  0.00     0.040 C 
ENDBRANCH  29  32
ENDBRANCH  26  28
ENDBRANCH   1  26
TORSDOF 7
ENDMDL
MODEL 5
REMARK VINA RESULT:      -8.1      3.622     10.605
REMARK  7 active torsions:
REMARK  status: ('A' for Active; 'I' for Inactive)
REMARK    1  A    between atoms: C_2  and  N_3 
REMARK    2  A    between atoms: C_2  and  C_12 
REMARK       I    between atoms: N_3  and  C_4 
REMARK    3  A    between atoms: C_4  and  C_5 
REMARK    4  A    between atoms: N_17  and  C_19 
REMARK    5  A    between atoms: C_19  and  C_20 
REMARK    6  A    between atoms: C_22  and  C_23 
REMARK    7  A    between atoms: C_23  and  N_24 
ROOT
HETATM    1  C   UNL     1      22.857  49.868  48.516  1.00  0.00     0.152 A 
HETATM    2  N   UNL     1      23.803  48.901  48.785  1.00  0.00    -0.317 N 
HETATM    3  C   UNL     1      24.988  49.390  48.293  1.00  0.00     0.131 A 
HETATM    4  C   UNL     1      26.333  48.792  48.483  1.00  0.00     0.108 C 
HETATM    5  C   UNL     1      26.568  48.461  49.952  1.00  0.00     0.243 C 
HETATM    6  N   UNL     1      25.937  47.134  50.378  1.00  0.00    -0.065 N 
HETATM    7  H   UNL     1      26.656  46.423  50.183  1.00  0.00     0.280 HD
HETATM    8  C   UNL     1      24.722  46.674  49.574  1.00  0.00     0.255 C 
HETATM    9  C   UNL     1      23.571  47.681  49.523  1.00  0.00     0.159 C 
HETATM   10  N   UNL     1      24.761  50.541  47.704  1.00  0.00    -0.135 NA
HETATM   11  N   UNL     1      23.435  50.837  47.838  1.00  0.00    -0.133 NA
ENDROOT
BRANCH   6  12
HETATM   12  C   UNL     1      25.705  47.054  51.884  1.00  0.00     0.280 C 
BRANCH  12  13
HETATM   13  C   UNL     1      26.079  45.734  52.498  1.00  0.00     0.009 A 
HETATM   14  S   UNL     1      27.006  44.597  51.603  1.00  0.00    -0.096 SA
HETATM   15  C   UNL     1      27.020  43.463  52.889  1.00  0.00     0.009 A 
HETATM   16  C   UNL     1      26.338  43.951  53.987  1.00  0.00     0.017 A 
HETATM   17  C   UNL     1      25.808  45.260  53.767  1.00  0.00     0.017 A 
BRANCH  15  18
HETATM   18  C   UNL     1      27.701  42.132  52.726  1.00  0.00     0.280 C 
BRANCH  18  19
HETATM   19  N   UNL     1      27.557  41.537  51.340  1.00  0.00    -0.067 N 
HETATM   20  H   UNL     1      27.777  42.290  50.676  1.00  0.00     0.280 HD
HETATM   21  C   UNL     1      28.524  40.402  51.086  1.00  0.00     0.235 C 
HETATM   22  C   UNL     1      28.391  39.927  49.645  1.00  0.00     0.028 C 
HETATM   23  C   UNL     1      26.960  39.519  49.316  1.00  0.00     0.003 C 
HETATM   24  C   UNL     1      25.984  40.644  49.636  1.00  0.00     0.028 C 
HETATM   25  C   UNL     1      26.124  41.118  51.076  1.00  0.00     0.235 C 
ENDBRANCH  18  19
ENDBRANCH  15  18
ENDBRANCH  12  13
ENDBRANCH   6  12
BRANCH   1  26
HETATM   26  C   UNL     1      21.432  49.841  48.973  1.00  0.00     0.152 C 
HETATM   27  C   UNL     1      20.892  51.261  49.134  1.00  0.00     0.040 C 
BRANCH  26  28
HETATM   28  N   UNL     1      20.657  49.095  48.005  1.00  0.00    -0.349 N 
HETATM   29  C   UNL     1      19.806  48.094  48.415  1.00  0.00     0.222 C 
HETATM   30  O   UNL     1      19.808  47.685  49.572  1.00  0.00    -0.273 OA
HETATM   31  H   UNL     1      20.525  49.519  47.090  1.00  0.00     0.163 HD
BRANCH  29  32
HETATM   32  C   UNL     1      18.881  47.562  47.321  1.00  0.00     0.082 C 
HETATM   33  C   UNL     1      17.917  46.502  47.864  1.00  0.00     0.040 C 
HETATM   34  C   UNL     1      16.793  47.139  48.672  1.00  0.00     0.168 C 
HETATM   35  O   UNL     1      16.105  48.109  47.890  1.00  0.00    -0.391 OA
HETATM   36  C   UNL     1      16.948  49.192  47.500  1.00  0.00     0.168 C 
HETATM   37  C   UNL     1      18.103  48.694  46.640  1.00  0.00     0.040 C 
ENDBRANCH  29  32
ENDBRANCH  26  28
ENDBRANCH   1  26
TORSDOF 7
ENDMDL
MODEL 6
REMARK VINA RESULT:      -8.1      4.268      7.249
REMARK  7 active torsions:
REMARK  status: ('A' for Active; 'I' for Inactive)
REMARK    1  A    between atoms: C_2  and  N_3 
REMARK    2  A    between atoms: C_2  and  C_12 
REMARK       I    between atoms: N_3  and  C_4 
REMARK    3  A    between atoms: C_4  and  C_5 
REMARK    4  A    between atoms: N_17  and  C_19 
REMARK    5  A    between atoms: C_19  and  C_20 
REMARK    6  A    between atoms: C_22  and  C_23 
REMARK    7  A    between atoms: C_23  and  N_24 
ROOT
HETATM    1  C   UNL     1      22.262  44.232  48.528  1.00  0.00     0.152 A 
HETATM    2  N   UNL     1      22.193  45.556  48.150  1.00  0.00    -0.317 N 
HETATM    3  C   UNL     1      21.401  45.584  47.029  1.00  0.00     0.131 A 
HETATM    4  C   UNL     1      20.892  46.798  46.342  1.00  0.00     0.108 C 
HETATM    5  C   UNL     1      20.271  47.760  47.347  1.00  0.00     0.243 C 
HETATM    6  N   UNL     1      21.304  48.625  48.070  1.00  0.00    -0.065 N 
HETATM    7  H   UNL     1      21.426  49.453  47.470  1.00  0.00     0.280 HD
HETATM    8  C   UNL     1      22.709  48.038  48.194  1.00  0.00     0.255 C 
HETATM    9  C   UNL     1      22.772  46.667  48.871  1.00  0.00     0.159 C 
HETATM   10  N   UNL     1      21.072  44.355  46.711  1.00  0.00    -0.135 NA
HETATM   11  N   UNL     1      21.610  43.512  47.639  1.00  0.00    -0.133 NA
ENDROOT
BRANCH   6  12
HETATM   12  C   UNL     1      20.782  49.175  49.394  1.00  0.00     0.280 C 
BRANCH  12  13
HETATM   13  C   UNL     1      19.839  50.337  49.252  1.00  0.00     0.009 A 
HETATM   14  S   UNL     1      18.268  50.263  49.944  1.00  0.00    -0.096 SA
HETATM   15  C   UNL     1      17.859  51.838  49.404  1.00  0.00     0.009 A 
HETATM   16  C   UNL     1      18.910  52.413  48.716  1.00  0.00     0.017 A 
HETATM   17  C   UNL     1      20.052  51.557  48.639  1.00  0.00     0.017 A 
BRANCH  15  18
HETATM   18  C   UNL     1      16.497  52.411  49.681  1.00  0.00     0.280 C 
BRANCH  18  19
HETATM   19  N   UNL     1      15.884  53.131  48.497  1.00  0.00    -0.067 N 
HETATM   20  H   UNL     1      16.570  53.833  48.195  1.00  0.00     0.280 HD
HETATM   21  C   UNL     1      15.620  52.211  47.325  1.00  0.00     0.235 C 
HETATM   22  C   UNL     1      15.102  53.021  46.144  1.00  0.00     0.028 C 
HETATM   23  C   UNL     1      13.858  53.821  46.510  1.00  0.00     0.003 C 
HETATM   24  C   UNL     1      14.112  54.695  47.731  1.00  0.00     0.028 C 
HETATM   25  C   UNL     1      14.632  53.882  48.907  1.00  0.00     0.235 C 
ENDBRANCH  18  19
ENDBRANCH  15  18
ENDBRANCH  12  13
ENDBRANCH   6  12
BRANCH   1  26
HETATM   26  C   UNL     1      22.916  43.715  49.771  1.00  0.00     0.152 C 
HETATM   27  C   UNL     1      23.051  42.195  49.716  1.00  0.00     0.040 C 
BRANCH  26  28
HETATM   28  N   UNL     1      24.210  44.349  49.902  1.00  0.00    -0.349 N 
HETATM   29  C   UNL     1      24.798  44.485  51.140  1.00  0.00     0.222 C 
HETATM   30  O   UNL     1      24.181  44.242  52.173  1.00  0.00    -0.273 OA
HETATM   31  H   UNL     1      24.787  44.404  49.068  1.00  0.00     0.163 HD
BRANCH  29  32
HETATM   32  C   UNL     1      26.254  44.948  51.102  1.00  0.00     0.082 C 
HETATM   33  C   UNL     1      26.505  45.926  49.950  1.00  0.00     0.040 C 
HETATM   34  C   UNL     1      25.948  47.308  50.266  1.00  0.00     0.168 C 
HETATM   35  O   UNL     1      26.494  47.798  51.485  1.00  0.00    -0.391 OA
HETATM   36  C   UNL     1      26.143  46.987  52.605  1.00  0.00     0.168 C 
HETATM   37  C   UNL     1      26.683  45.571  52.436  1.00  0.00     0.040 C 
ENDBRANCH  29  32
ENDBRANCH  26  28
ENDBRANCH   1  26
TORSDOF 7
ENDMDL
MODEL 7
REMARK VINA RESULT:      -8.1      4.607     10.509
REMARK  7 active torsions:
REMARK  status: ('A' for Active; 'I' for Inactive)
REMARK    1  A    between atoms: C_2  and  N_3 
REMARK    2  A    between atoms: C_2  and  C_12 
REMARK       I    between atoms: N_3  and  C_4 
REMARK    3  A    between atoms: C_4  and  C_5 
REMARK    4  A    between atoms: N_17  and  C_19 
REMARK    5  A    between atoms: C_19  and  C_20 
REMARK    6  A    between atoms: C_22  and  C_23 
REMARK    7  A    between atoms: C_23  and  N_24 
ROOT
HETATM    1  C   UNL     1      21.462  47.677  48.635  1.00  0.00     0.152 A 
HETATM    2  N   UNL     1      22.700  47.140  48.917  1.00  0.00    -0.317 N 
HETATM    3  C   UNL     1      23.569  48.201  48.955  1.00  0.00     0.131 A 
HETATM    4  C   UNL     1      24.990  48.159  49.383  1.00  0.00     0.108 C 
HETATM    5  C   UNL     1      25.127  47.428  50.712  1.00  0.00     0.243 C 
HETATM    6  N   UNL     1      25.146  45.906  50.564  1.00  0.00    -0.065 N 
HETATM    7  H   UNL     1      26.136  45.664  50.418  1.00  0.00     0.280 HD
HETATM    8  C   UNL     1      24.433  45.338  49.337  1.00  0.00     0.255 C 
HETATM    9  C   UNL     1      22.965  45.748  49.203  1.00  0.00     0.159 C 
HETATM   10  N   UNL     1      22.916  49.296  48.648  1.00  0.00    -0.135 NA
HETATM   11  N   UNL     1      21.606  48.972  48.444  1.00  0.00    -0.133 NA
ENDROOT
BRANCH   6  12
HETATM   12  C   UNL     1      24.753  45.188  51.851  1.00  0.00     0.280 C 
BRANCH  12  13
HETATM   13  C   UNL     1      25.879  45.019  52.834  1.00  0.00     0.009 A 
HETATM   14  S   UNL     1      26.666  46.398  53.489  1.00  0.00    -0.096 SA
HETATM   15  C   UNL     1      27.724  45.449  54.447  1.00  0.00     0.009 A 
HETATM   16  C   UNL     1      27.472  44.101  54.275  1.00  0.00     0.017 A 
HETATM   17  C   UNL     1      26.404  43.854  53.358  1.00  0.00     0.017 A 
BRANCH  15  18
HETATM   18  C   UNL     1      28.768  46.103  55.309  1.00  0.00     0.280 C 
BRANCH  18  19
HETATM   19  N   UNL     1      29.530  45.132  56.189  1.00  0.00    -0.067 N 
HETATM   20  H   UNL     1      28.830  44.505  56.604  1.00  0.00     0.280 HD
HETATM   21  C   UNL     1      30.509  44.280  55.412  1.00  0.00     0.235 C 
HETATM   22  C   UNL     1      31.157  43.265  56.344  1.00  0.00     0.028 C 
HETATM   23  C   UNL     1      31.833  43.939  57.531  1.00  0.00     0.003 C 
HETATM   24  C   UNL     1      30.858  44.847  58.270  1.00  0.00     0.028 C 
HETATM   25  C   UNL     1      30.210  45.857  57.334  1.00  0.00     0.235 C 
ENDBRANCH  18  19
ENDBRANCH  15  18
ENDBRANCH  12  13
ENDBRANCH   6  12
BRANCH   1  26
HETATM   26  C   UNL     1      20.170  46.923  48.613  1.00  0.00     0.152 C 
HETATM   27  C   UNL     1      18.988  47.873  48.797  1.00  0.00     0.040 C 
BRANCH  26  28
HETATM   28  N   UNL     1      20.078  46.214  47.354  1.00  0.00    -0.349 N 
HETATM   29  C   UNL     1      19.323  45.067  47.252  1.00  0.00     0.222 C 
HETATM   30  O   UNL     1      18.857  44.517  48.245  1.00  0.00    -0.273 OA
HETATM   31  H   UNL     1      20.315  46.732  46.512  1.00  0.00     0.163 HD
BRANCH  29  32
HETATM   32  C   UNL     1      19.121  44.566  45.823  1.00  0.00     0.082 C 
HETATM   33  C   UNL     1      17.638  44.365  45.500  1.00  0.00     0.040 C 
HETATM   34  C   UNL     1      16.938  45.696  45.260  1.00  0.00     0.168 C 
HETATM   35  O   UNL     1      17.595  46.425  44.229  1.00  0.00    -0.391 OA
HETATM   36  C   UNL     1      18.938  46.763  44.571  1.00  0.00     0.168 C 
HETATM   37  C   UNL     1      19.769  45.506  44.799  1.00  0.00     0.040 C 
ENDBRANCH  29  32
ENDBRANCH  26  28
ENDBRANCH   1  26
TORSDOF 7
ENDMDL
MODEL 8
REMARK VINA RESULT:      -8.0      4.903      8.911
REMARK  7 active torsions:
REMARK  status: ('A' for Active; 'I' for Inactive)
REMARK    1  A    between atoms: C_2  and  N_3 
REMARK    2  A    between atoms: C_2  and  C_12 
REMARK       I    between atoms: N_3  and  C_4 
REMARK    3  A    between atoms: C_4  and  C_5 
REMARK    4  A    between atoms: N_17  and  C_19 
REMARK    5  A    between atoms: C_19  and  C_20 
REMARK    6  A    between atoms: C_22  and  C_23 
REMARK    7  A    between atoms: C_23  and  N_24 
ROOT
HETATM    1  C   UNL     1      21.659  48.055  48.687  1.00  0.00     0.152 A 
HETATM    2  N   UNL     1      20.674  48.781  49.323  1.00  0.00    -0.317 N 
HETATM    3  C   UNL     1      21.206  50.029  49.534  1.00  0.00     0.131 A 
HETATM    4  C   UNL     1      20.480  51.221  50.040  1.00  0.00     0.108 C 
HETATM    5  C   UNL     1      19.179  51.419  49.272  1.00  0.00     0.243 C 
HETATM    6  N   UNL     1      18.040  50.533  49.778  1.00  0.00    -0.065 N 
HETATM    7  H   UNL     1      17.591  51.078  50.528  1.00  0.00     0.280 HD
HETATM    8  C   UNL     1      18.450  49.226  50.456  1.00  0.00     0.255 C 
HETATM    9  C   UNL     1      19.335  48.314  49.603  1.00  0.00     0.159 C 
HETATM   10  N   UNL     1      22.451  50.035  49.119  1.00  0.00    -0.135 NA
HETATM   11  N   UNL     1      22.736  48.807  48.595  1.00  0.00    -0.133 NA
ENDROOT
BRANCH   6  12
HETATM   12  C   UNL     1      16.948  50.331  48.732  1.00  0.00     0.280 C 
BRANCH  12  13
HETATM   13  C   UNL     1      16.073  51.534  48.510  1.00  0.00     0.009 A 
HETATM   14  S   UNL     1      15.451  52.407  49.852  1.00  0.00    -0.096 SA
HETATM   15  C   UNL     1      14.638  53.538  48.852  1.00  0.00     0.009 A 
HETATM   16  C   UNL     1      14.848  53.257  47.516  1.00  0.00     0.017 A 
HETATM   17  C   UNL     1      15.683  52.114  47.319  1.00  0.00     0.017 A 
BRANCH  15  18
HETATM   18  C   UNL     1      13.814  54.640  49.458  1.00  0.00     0.280 C 
BRANCH  18  19
HETATM   19  N   UNL     1      14.609  55.590  50.331  1.00  0.00    -0.067 N 
HETATM   20  H   UNL     1      15.597  55.328  50.220  1.00  0.00     0.280 HD
HETATM   21  C   UNL     1      14.465  57.035  49.909  1.00  0.00     0.235 C 
HETATM   22  C   UNL     1      15.370  57.912  50.764  1.00  0.00     0.028 C 
HETATM   23  C   UNL     1      15.083  57.738  52.250  1.00  0.00     0.003 C 
HETATM   24  C   UNL     1      15.166  56.272  52.655  1.00  0.00     0.028 C 
HETATM   25  C   UNL     1      14.262  55.399  51.795  1.00  0.00     0.235 C 
ENDBRANCH  18  19
ENDBRANCH  15  18
ENDBRANCH  12  13
ENDBRANCH   6  12
BRANCH   1  26
HETATM   26  C   UNL     1      21.504  46.670  48.141  1.00  0.00     0.152 C 
HETATM   27  C   UNL     1      21.092  46.713  46.671  1.00  0.00     0.040 C 
BRANCH  26  28
HETATM   28  N   UNL     1      22.758  45.970  48.311  1.00  0.00    -0.349 N 
HETATM   29  C   UNL     1      22.776  44.664  48.748  1.00  0.00     0.222 C 
HETATM   30  O   UNL     1      21.763  44.117  49.172  1.00  0.00    -0.273 OA
HETATM   31  H   UNL     1      23.568  46.343  47.823  1.00  0.00     0.163 HD
BRANCH  29  32
HETATM   32  C   UNL     1      24.139  43.982  48.650  1.00  0.00     0.082 C 
HETATM   33  C   UNL     1      25.251  44.855  49.238  1.00  0.00     0.040 C 
HETATM   34  C   UNL     1      25.219  44.840  50.761  1.00  0.00     0.168 C 
HETATM   35  O   UNL     1      25.302  43.505  51.247  1.00  0.00    -0.391 OA
HETATM   36  C   UNL     1      24.192  42.707  50.840  1.00  0.00     0.168 C 
HETATM   37  C   UNL     1      24.130  42.603  49.321  1.00  0.00     0.040 C 
ENDBRANCH  29  32
ENDBRANCH  26  28
ENDBRANCH   1  26
TORSDOF 7
ENDMDL
MODEL 9
REMARK VINA RESULT:      -8.0      5.717      9.158
REMARK  7 active torsions:
REMARK  status: ('A' for Active; 'I' for Inactive)
REMARK    1  A    between atoms: C_2  and  N_3 
REMARK    2  A    between atoms: C_2  and  C_12 
REMARK       I    between atoms: N_3  and  C_4 
REMARK    3  A    between atoms: C_4  and  C_5 
REMARK    4  A    between atoms: N_17  and  C_19 
REMARK    5  A    between atoms: C_19  and  C_20 
REMARK    6  A    between atoms: C_22  and  C_23 
REMARK    7  A    between atoms: C_23  and  N_24 
ROOT
HETATM    1  C   UNL     1      24.531  47.440  49.754  1.00  0.00     0.152 A 
HETATM    2  N   UNL     1      23.498  46.611  49.371  1.00  0.00    -0.317 N 
HETATM    3  C   UNL     1      22.598  47.412  48.714  1.00  0.00     0.131 A 
HETATM    4  C   UNL     1      21.397  46.958  47.969  1.00  0.00     0.108 C 
HETATM    5  C   UNL     1      21.754  45.823  47.019  1.00  0.00     0.243 C 
HETATM    6  N   UNL     1      21.821  44.459  47.707  1.00  0.00    -0.065 N 
HETATM    7  H   UNL     1      20.860  44.090  47.662  1.00  0.00     0.280 HD
HETATM    8  C   UNL     1      22.151  44.470  49.199  1.00  0.00     0.255 C 
HETATM    9  C   UNL     1      23.459  45.178  49.559  1.00  0.00     0.159 C 
HETATM   10  N   UNL     1      23.022  48.653  48.758  1.00  0.00    -0.135 NA
HETATM   11  N   UNL     1      24.222  48.673  49.409  1.00  0.00    -0.133 NA
ENDROOT
BRANCH   6  12
HETATM   12  C   UNL     1      22.664  43.452  46.930  1.00  0.00     0.280 C 
BRANCH  12  13
HETATM   13  C   UNL     1      21.937  42.186  46.568  1.00  0.00     0.009 A 
HETATM   14  S   UNL     1      22.399  40.693  47.281  1.00  0.00    -0.096 SA
HETATM   15  C   UNL     1      21.191  39.816  46.437  1.00  0.00     0.009 A 
HETATM   16  C   UNL     1      20.442  40.653  45.633  1.00  0.00     0.017 A 
HETATM   17  C   UNL     1      20.862  42.017  45.717  1.00  0.00     0.017 A 
BRANCH  15  18
HETATM   18  C   UNL     1      21.066  38.327  46.610  1.00  0.00     0.280 C 
BRANCH  18  19
HETATM   19  N   UNL     1      19.657  37.863  46.920  1.00  0.00    -0.067 N 
HETATM   20  H   UNL     1      19.043  38.326  46.238  1.00  0.00     0.280 HD
HETATM   21  C   UNL     1      19.482  36.369  46.758  1.00  0.00     0.235 C 
HETATM   22  C   UNL     1      18.024  35.996  46.985  1.00  0.00     0.028 C 
HETATM   23  C   UNL     1      17.526  36.467  48.345  1.00  0.00     0.003 C 
HETATM   24  C   UNL     1      17.765  37.961  48.527  1.00  0.00     0.028 C 
HETATM   25  C   UNL     1      19.224  38.329  48.296  1.00  0.00     0.235 C 
ENDBRANCH  18  19
ENDBRANCH  15  18
ENDBRANCH  12  13
ENDBRANCH   6  12
BRANCH   1  26
HETATM   26  C   UNL     1      25.808  47.000  50.397  1.00  0.00     0.152 C 
HETATM   27  C   UNL     1      26.925  48.004  50.118  1.00  0.00     0.040 C 
BRANCH  26  28
HETATM   28  N   UNL     1      25.578  46.859  51.818  1.00  0.00    -0.349 N 
HETATM   29  C   UNL     1      26.122  45.802  52.512  1.00  0.00     0.222 C 
HETATM   30  O   UNL     1      26.660  44.864  51.932  1.00  0.00    -0.273 OA
HETATM   31  H   UNL     1      25.283  47.689  52.326  1.00  0.00     0.163 HD
BRANCH  29  32
HETATM   32  C   UNL     1      26.001  45.911  54.032  1.00  0.00     0.082 C 
HETATM   33  C   UNL     1      26.931  44.925  54.744  1.00  0.00     0.040 C 
HETATM   34  C   UNL     1      28.378  45.402  54.705  1.00  0.00     0.168 C 
HETATM   35  O   UNL     1      28.486  46.707  55.262  1.00  0.00    -0.391 OA
HETATM   36  C   UNL     1      27.750  47.679  54.522  1.00  0.00     0.168 C 
HETATM   37  C   UNL     1      26.263  47.341  54.517  1.00  0.00     0.040 C 
ENDBRANCH  29  32
ENDBRANCH  26  28
ENDBRANCH   1  26
TORSDOF 7
ENDMDL
MODEL 10
REMARK VINA RESULT:      -7.9      1.864      2.351
REMARK  7 active torsions:
REMARK  status: ('A' for Active; 'I' for Inactive)
REMARK    1  A    between atoms: C_2  and  N_3 
REMARK    2  A    between atoms: C_2  and  C_12 
REMARK       I    between atoms: N_3  and  C_4 
REMARK    3  A    between atoms: C_4  and  C_5 
REMARK    4  A    between atoms: N_17  and  C_19 
REMARK    5  A    between atoms: C_19  and  C_20 
REMARK    6  A    between atoms: C_22  and  C_23 
REMARK    7  A    between atoms: C_23  and  N_24 
ROOT
HETATM    1  C   UNL     1      28.250  43.663  53.418  1.00  0.00     0.152 A 
HETATM    2  N   UNL     1      27.146  44.471  53.244  1.00  0.00    -0.317 N 
HETATM    3  C   UNL     1      27.231  45.436  54.217  1.00  0.00     0.131 A 
HETATM    4  C   UNL     1      26.366  46.636  54.344  1.00  0.00     0.108 C 
HETATM    5  C   UNL     1      26.259  47.362  53.009  1.00  0.00     0.243 C 
HETATM    6  N   UNL     1      25.228  46.741  52.066  1.00  0.00    -0.065 N 
HETATM    7  H   UNL     1      24.339  47.203  52.300  1.00  0.00     0.280 HD
HETATM    8  C   UNL     1      24.943  45.252  52.263  1.00  0.00     0.255 C 
HETATM    9  C   UNL     1      26.175  44.348  52.181  1.00  0.00     0.159 C 
HETATM   10  N   UNL     1      28.276  45.188  54.971  1.00  0.00    -0.135 NA
HETATM   11  N   UNL     1      28.908  44.083  54.479  1.00  0.00    -0.133 NA
ENDROOT
BRANCH   6  12
HETATM   12  C   UNL     1      25.482  47.097  50.605  1.00  0.00     0.280 C 
BRANCH  12  13
HETATM   13  C   UNL     1      24.250  47.091  49.743  1.00  0.00     0.009 A 
HETATM   14  S   UNL     1      23.501  48.572  49.297  1.00  0.00    -0.096 SA
HETATM   15  C   UNL     1      22.281  47.783  48.387  1.00  0.00     0.009 A 
HETATM   16  C   UNL     1      22.450  46.412  48.416  1.00  0.00     0.017 A 
HETATM   17  C   UNL     1      23.588  46.015  49.184  1.00  0.00     0.017 A 
BRANCH  15  18
HETATM   18  C   UNL     1      21.203  48.578  47.703  1.00  0.00     0.280 C 
BRANCH  18  19
HETATM   19  N   UNL     1      20.681  49.737  48.529  1.00  0.00    -0.067 N 
HETATM   20  H   UNL     1      21.493  50.133  49.020  1.00  0.00     0.280 HD
HETATM   21  C   UNL     1      20.075  50.834  47.683  1.00  0.00     0.235 C 
HETATM   22  C   UNL     1      19.669  52.002  48.571  1.00  0.00     0.028 C 
HETATM   23  C   UNL     1      18.716  51.566  49.677  1.00  0.00     0.003 C 
HETATM   24  C   UNL     1      19.306  50.417  50.484  1.00  0.00     0.028 C 
HETATM   25  C   UNL     1      19.713  49.253  49.591  1.00  0.00     0.235 C 
ENDBRANCH  18  19
ENDBRANCH  15  18
ENDBRANCH  12  13
ENDBRANCH   6  12
BRANCH   1  26
HETATM   26  C   UNL     1      28.657  42.540  52.517  1.00  0.00     0.152 C 
HETATM   27  C   UNL     1      29.510  41.525  53.274  1.00  0.00     0.040 C 
BRANCH  26  28
HETATM   28  N   UNL     1      27.460  41.924  51.987  1.00  0.00    -0.349 N 
HETATM   29  C   UNL     1      27.509  41.193  50.821  1.00  0.00     0.222 C 
HETATM   30  O   UNL     1      28.509  41.189  50.109  1.00  0.00    -0.273 OA
HETATM   31  H   UNL     1      26.686  41.785  52.630  1.00  0.00     0.163 HD
BRANCH  29  32
HETATM   32  C   UNL     1      26.236  40.406  50.513  1.00  0.00     0.082 C 
HETATM   33  C   UNL     1      25.122  41.318  49.989  1.00  0.00     0.040 C 
HETATM   34  C   UNL     1      25.369  41.718  48.540  1.00  0.00     0.168 C 
HETATM   35  O   UNL     1      25.515  40.562  47.723  1.00  0.00    -0.391 OA
HETATM   36  C   UNL     1      26.644  39.771  48.093  1.00  0.00     0.168 C 
HETATM   37  C   UNL     1      26.503  39.266  49.524  1.00  0.00     0.040 C 
ENDBRANCH  29  32
ENDBRANCH  26  28
ENDBRANCH   1  26
TORSDOF 7
ENDMDL
