MODEL 1
REMARK VINA RESULT:      -8.4      0.000      0.000
REMARK  11 active torsions:
REMARK  status: ('A' for Active; 'I' for Inactive)
REMARK    1  A    between atoms: C_2  and  O_3 
REMARK    2  A    between atoms: O_3  and  C_4 
REMARK    3  A    between atoms: C_7  and  N_8 
REMARK    4  A    between atoms: C_9  and  S_10 
REMARK    5  A    between atoms: S_10  and  C_11 
REMARK    6  A    between atoms: C_11  and  C_12 
REMARK       I    between atoms: C_12  and  N_13 
REMARK    7  A    between atoms: N_13  and  C_14 
REMARK    8  A    between atoms: C_15  and  C_16 
REMARK    9  A    between atoms: C_16  and  O_17 
REMARK   10  A    between atoms: O_17  and  C_18 
REMARK   11  A    between atoms: C_29  and  N_30 
ROOT
HETATM    1  N   UNL     1      27.653  41.901  50.250  1.00  0.00    -0.276 N 
HETATM    2  C   UNL     1      28.385  41.301  51.309  1.00  0.00     0.177 C 
HETATM    3  N   UNL     1      28.706  40.038  51.392  1.00  0.00    -0.204 NA
HETATM    4  C   UNL     1      28.341  39.298  50.326  1.00  0.00     0.162 A 
HETATM    5  C   UNL     1      27.755  39.702  49.160  1.00  0.00     0.081 A 
HETATM    6  C   UNL     1      27.382  41.080  49.071  1.00  0.00     0.124 C 
HETATM    7  N   UNL     1      28.581  37.963  50.171  1.00  0.00    -0.260 N 
HETATM    8  H   UNL     1      29.020  37.329  50.832  1.00  0.00     0.191 HD
HETATM    9  N   UNL     1      28.210  37.506  48.953  1.00  0.00    -0.177 NA
HETATM   10  C   UNL     1      27.697  38.577  48.326  1.00  0.00     0.068 A 
HETATM   11  C   UNL     1      27.199  38.441  46.939  1.00  0.00     0.073 C 
ENDROOT
BRANCH   2  12
HETATM   12  S   UNL     1      29.120  42.319  52.563  1.00  0.00    -0.082 SA
BRANCH  12  13
HETATM   13  C   UNL     1      27.949  42.218  53.948  1.00  0.00     0.185 C 
BRANCH  13  14
HETATM   14  C   UNL     1      27.172  43.478  54.329  1.00  0.00     0.231 C 
HETATM   15  N   UNL     1      27.703  44.695  53.923  1.00  0.00    -0.326 N 
HETATM   16  H   UNL     1      28.691  44.648  53.716  1.00  0.00     0.169 HD
HETATM   17  O   UNL     1      26.148  43.372  55.006  1.00  0.00    -0.272 OA
BRANCH  15  18
HETATM   18  C   UNL     1      27.226  45.925  54.442  1.00  0.00     0.051 A 
HETATM   19  C   UNL     1      27.831  46.643  55.487  1.00  0.00     0.066 A 
HETATM   20  C   UNL     1      27.372  47.939  55.791  1.00  0.00     0.020 A 
HETATM   21  C   UNL     1      26.307  48.502  55.086  1.00  0.00     0.001 A 
HETATM   22  C   UNL     1      25.657  47.757  54.108  1.00  0.00     0.002 A 
HETATM   23  C   UNL     1      26.099  46.470  53.802  1.00  0.00     0.030 A 
BRANCH  19  24
HETATM   24  C   UNL     1      28.796  45.992  56.414  1.00  0.00     0.295 C 
HETATM   25  O   UNL     1      28.719  46.062  57.631  1.00  0.00    -0.259 OA
BRANCH  24  26
HETATM   26  O   UNL     1      29.808  45.425  55.706  1.00  0.00    -0.318 OA
BRANCH  26  27
HETATM   27  C   UNL     1      30.717  44.619  56.467  1.00  0.00     0.174 C 
HETATM   28  C   UNL     1      30.932  43.268  55.812  1.00  0.00     0.034 C 
ENDBRANCH  26  27
ENDBRANCH  24  26
ENDBRANCH  19  24
ENDBRANCH  15  18
ENDBRANCH  13  14
ENDBRANCH  12  13
ENDBRANCH   2  12
BRANCH   1  29
HETATM   29  C   UNL     1      26.864  43.077  50.459  1.00  0.00     0.043 A 
HETATM   30  C   UNL     1      27.242  44.331  49.970  1.00  0.00     0.033 A 
HETATM   31  C   UNL     1      26.374  45.424  50.088  1.00  0.00     0.039 A 
HETATM   32  C   UNL     1      25.107  45.272  50.656  1.00  0.00     0.068 A 
HETATM   33  C   UNL     1      24.733  44.036  51.176  1.00  0.00     0.039 A 
HETATM   34  C   UNL     1      25.606  42.950  51.078  1.00  0.00     0.033 A 
BRANCH  32  35
HETATM   35  O   UNL     1      24.326  46.393  50.682  1.00  0.00    -0.352 OA
BRANCH  35  36
HETATM   36  C   UNL     1      24.998  47.611  50.348  1.00  0.00     0.171 C 
HETATM   37  C   UNL     1      24.150  48.359  49.335  1.00  0.00     0.034 C 
ENDBRANCH  35  36
ENDBRANCH  32  35
ENDBRANCH   1  29
BRANCH   6  38
HETATM   38  N   UNL     1      26.832  41.576  47.979  1.00  0.00    -0.384 N 
HETATM   39  H   UNL     1      27.322  41.612  47.099  1.00  0.00     0.157 HD
HETATM   40  H   UNL     1      25.895  41.959  48.024  1.00  0.00     0.157 HD
ENDBRANCH   6  38
TORSDOF 11
ENDMDL
MODEL 2
REMARK VINA RESULT:      -8.3      2.830      7.274
REMARK  11 active torsions:
REMARK  status: ('A' for Active; 'I' for Inactive)
REMARK    1  A    between atoms: C_2  and  O_3 
REMARK    2  A    between atoms: O_3  and  C_4 
REMARK    3  A    between atoms: C_7  and  N_8 
REMARK    4  A    between atoms: C_9  and  S_10 
REMARK    5  A    between atoms: S_10  and  C_11 
REMARK    6  A    between atoms: C_11  and  C_12 
REMARK       I    between atoms: C_12  and  N_13 
REMARK    7  A    between atoms: N_13  and  C_14 
REMARK    8  A    between atoms: C_15  and  C_16 
REMARK    9  A    between atoms: C_16  and  O_17 
REMARK   10  A    between atoms: O_17  and  C_18 
REMARK   11  A    between atoms: C_29  and  N_30 
ROOT
HETATM    1  N   UNL     1      27.205  42.832  51.482  1.00  0.00    -0.276 N 
HETATM    2  C   UNL     1      26.948  43.741  50.421  1.00  0.00     0.177 C 
HETATM    3  N   UNL     1      26.795  43.419  49.164  1.00  0.00    -0.204 NA
HETATM    4  C   UNL     1      26.830  42.093  48.919  1.00  0.00     0.162 A 
HETATM    5  C   UNL     1      26.931  41.059  49.804  1.00  0.00     0.081 A 
HETATM    6  C   UNL     1      27.121  41.404  51.179  1.00  0.00     0.124 C 
HETATM    7  N   UNL     1      26.675  41.513  47.693  1.00  0.00    -0.260 N 
HETATM    8  H   UNL     1      26.555  41.974  46.796  1.00  0.00     0.191 HD
HETATM    9  N   UNL     1      26.637  40.162  47.759  1.00  0.00    -0.177 NA
HETATM   10  C   UNL     1      26.797  39.878  49.061  1.00  0.00     0.068 A 
HETATM   11  C   UNL     1      26.789  38.465  49.506  1.00  0.00     0.073 C 
ENDROOT
BRANCH   2  12
HETATM   12  S   UNL     1      26.608  45.445  50.779  1.00  0.00    -0.082 SA
BRANCH  12  13
HETATM   13  C   UNL     1      24.832  45.616  50.435  1.00  0.00     0.185 C 
BRANCH  13  14
HETATM   14  C   UNL     1      24.269  47.024  50.238  1.00  0.00     0.231 C 
HETATM   15  N   UNL     1      23.318  47.190  49.241  1.00  0.00    -0.326 N 
HETATM   16  H   UNL     1      23.340  46.458  48.544  1.00  0.00     0.169 HD
HETATM   17  O   UNL     1      24.703  47.948  50.928  1.00  0.00    -0.272 OA
BRANCH  15  18
HETATM   18  C   UNL     1      22.930  48.477  48.790  1.00  0.00     0.051 A 
HETATM   19  C   UNL     1      21.610  48.959  48.782  1.00  0.00     0.066 A 
HETATM   20  C   UNL     1      21.372  50.315  48.485  1.00  0.00     0.020 A 
HETATM   21  C   UNL     1      22.427  51.172  48.172  1.00  0.00     0.001 A 
HETATM   22  C   UNL     1      23.723  50.673  48.101  1.00  0.00     0.002 A 
HETATM   23  C   UNL     1      23.970  49.330  48.387  1.00  0.00     0.030 A 
BRANCH  19  24
HETATM   24  C   UNL     1      20.448  48.033  48.869  1.00  0.00     0.295 C 
HETATM   25  O   UNL     1      20.540  46.820  48.758  1.00  0.00    -0.259 OA
BRANCH  24  26
HETATM   26  O   UNL     1      19.295  48.743  48.969  1.00  0.00    -0.318 OA
BRANCH  26  27
HETATM   27  C   UNL     1      18.325  48.219  49.887  1.00  0.00     0.174 C 
HETATM   28  C   UNL     1      18.618  48.664  51.307  1.00  0.00     0.034 C 
ENDBRANCH  26  27
ENDBRANCH  24  26
ENDBRANCH  19  24
ENDBRANCH  15  18
ENDBRANCH  13  14
ENDBRANCH  12  13
ENDBRANCH   2  12
BRANCH   1  29
HETATM   29  C   UNL     1      27.905  43.240  52.662  1.00  0.00     0.043 A 
HETATM   30  C   UNL     1      29.292  43.119  52.791  1.00  0.00     0.033 A 
HETATM   31  C   UNL     1      29.944  43.651  53.910  1.00  0.00     0.039 A 
HETATM   32  C   UNL     1      29.230  44.344  54.891  1.00  0.00     0.068 A 
HETATM   33  C   UNL     1      27.846  44.442  54.789  1.00  0.00     0.039 A 
HETATM   34  C   UNL     1      27.191  43.893  53.684  1.00  0.00     0.033 A 
BRANCH  32  35
HETATM   35  O   UNL     1      29.971  44.859  55.917  1.00  0.00    -0.352 OA
BRANCH  35  36
HETATM   36  C   UNL     1      29.315  45.862  56.698  1.00  0.00     0.171 C 
HETATM   37  C   UNL     1      30.060  46.003  58.013  1.00  0.00     0.034 C 
ENDBRANCH  35  36
ENDBRANCH  32  35
ENDBRANCH   1  29
BRANCH   6  38
HETATM   38  N   UNL     1      27.206  40.480  52.117  1.00  0.00    -0.384 N 
HETATM   39  H   UNL     1      27.007  40.678  53.086  1.00  0.00     0.157 HD
HETATM   40  H   UNL     1      27.505  39.544  51.869  1.00  0.00     0.157 HD
ENDBRANCH   6  38
TORSDOF 11
ENDMDL
MODEL 3
REMARK VINA RESULT:      -8.1      2.868      6.622
REMARK  11 active torsions:
REMARK  status: ('A' for Active; 'I' for Inactive)
REMARK    1  A    between atoms: C_2  and  O_3 
REMARK    2  A    between atoms: O_3  and  C_4 
REMARK    3  A    between atoms: C_7  and  N_8 
REMARK    4  A    between atoms: C_9  and  S_10 
REMARK    5  A    between atoms: S_10  and  C_11 
REMARK    6  A    between atoms: C_11  and  C_12 
REMARK       I    between atoms: C_12  and  N_13 
REMARK    7  A    between atoms: N_13  and  C_14 
REMARK    8  A    between atoms: C_15  and  C_16 
REMARK    9  A    between atoms: C_16  and  O_17 
REMARK   10  A    between atoms: O_17  and  C_18 
REMARK   11  A    between atoms: C_29  and  N_30 
ROOT
HETATM    1  N   UNL     1      25.633  42.658  51.034  1.00  0.00    -0.276 N 
HETATM    2  C   UNL     1      24.977  43.295  49.946  1.00  0.00     0.177 C 
HETATM    3  N   UNL     1      24.901  42.831  48.727  1.00  0.00    -0.204 NA
HETATM    4  C   UNL     1      25.454  41.613  48.557  1.00  0.00     0.162 A 
HETATM    5  C   UNL     1      26.008  40.784  49.491  1.00  0.00     0.081 A 
HETATM    6  C   UNL     1      26.114  41.294  50.823  1.00  0.00     0.124 C 
HETATM    7  N   UNL     1      25.482  40.915  47.385  1.00  0.00    -0.260 N 
HETATM    8  H   UNL     1      25.141  41.211  46.476  1.00  0.00     0.191 HD
HETATM    9  N   UNL     1      25.994  39.672  47.532  1.00  0.00    -0.177 NA
HETATM   10  C   UNL     1      26.322  39.588  48.831  1.00  0.00     0.068 A 
HETATM   11  C   UNL     1      26.906  38.333  49.357  1.00  0.00     0.073 C 
ENDROOT
BRANCH   2  12
HETATM   12  S   UNL     1      23.999  44.747  50.231  1.00  0.00    -0.082 SA
BRANCH  12  13
HETATM   13  C   UNL     1      23.154  45.021  48.646  1.00  0.00     0.185 C 
BRANCH  13  14
HETATM   14  C   UNL     1      22.805  46.457  48.254  1.00  0.00     0.231 C 
HETATM   15  N   UNL     1      23.084  47.451  49.181  1.00  0.00    -0.326 N 
HETATM   16  H   UNL     1      23.174  47.101  50.125  1.00  0.00     0.169 HD
HETATM   17  O   UNL     1      22.261  46.668  47.168  1.00  0.00    -0.272 OA
BRANCH  15  18
HETATM   18  C   UNL     1      22.565  48.763  49.043  1.00  0.00     0.051 A 
HETATM   19  C   UNL     1      23.259  49.844  48.472  1.00  0.00     0.066 A 
HETATM   20  C   UNL     1      22.575  51.049  48.223  1.00  0.00     0.020 A 
HETATM   21  C   UNL     1      21.229  51.189  48.564  1.00  0.00     0.001 A 
HETATM   22  C   UNL     1      20.568  50.146  49.204  1.00  0.00     0.002 A 
HETATM   23  C   UNL     1      21.237  48.949  49.461  1.00  0.00     0.030 A 
BRANCH  19  24
HETATM   24  C   UNL     1      24.739  49.819  48.321  1.00  0.00     0.295 C 
HETATM   25  O   UNL     1      25.324  50.194  47.316  1.00  0.00    -0.259 OA
BRANCH  24  26
HETATM   26  O   UNL     1      25.305  49.221  49.402  1.00  0.00    -0.318 OA
BRANCH  26  27
HETATM   27  C   UNL     1      26.451  48.405  49.126  1.00  0.00     0.174 C 
HETATM   28  C   UNL     1      27.726  49.225  49.148  1.00  0.00     0.034 C 
ENDBRANCH  26  27
ENDBRANCH  24  26
ENDBRANCH  19  24
ENDBRANCH  15  18
ENDBRANCH  13  14
ENDBRANCH  12  13
ENDBRANCH   2  12
BRANCH   1  29
HETATM   29  C   UNL     1      26.169  43.411  52.126  1.00  0.00     0.043 A 
HETATM   30  C   UNL     1      25.398  43.785  53.231  1.00  0.00     0.033 A 
HETATM   31  C   UNL     1      26.000  44.407  54.332  1.00  0.00     0.039 A 
HETATM   32  C   UNL     1      27.380  44.626  54.363  1.00  0.00     0.068 A 
HETATM   33  C   UNL     1      28.152  44.287  53.256  1.00  0.00     0.039 A 
HETATM   34  C   UNL     1      27.550  43.686  52.149  1.00  0.00     0.033 A 
BRANCH  32  35
HETATM   35  O   UNL     1      27.867  45.200  55.503  1.00  0.00    -0.352 OA
BRANCH  35  36
HETATM   36  C   UNL     1      28.921  46.147  55.304  1.00  0.00     0.171 C 
HETATM   37  C   UNL     1      30.074  45.773  56.218  1.00  0.00     0.034 C 
ENDBRANCH  35  36
ENDBRANCH  32  35
ENDBRANCH   1  29
BRANCH   6  38
HETATM   38  N   UNL     1      26.613  40.565  51.803  1.00  0.00    -0.384 N 
HETATM   39  H   UNL     1      27.575  40.643  52.094  1.00  0.00     0.157 HD
HETATM   40  H   UNL     1      26.023  39.884  52.267  1.00  0.00     0.157 HD
ENDBRANCH   6  38
TORSDOF 11
ENDMDL
MODEL 4
REMARK VINA RESULT:      -7.9      2.037      5.888
REMARK  11 active torsions:
REMARK  status: ('A' for Active; 'I' for Inactive)
REMARK    1  A    between atoms: C_2  and  O_3 
REMARK    2  A    between atoms: O_3  and  C_4 
REMARK    3  A    between atoms: C_7  and  N_8 
REMARK    4  A    between atoms: C_9  and  S_10 
REMARK    5  A    between atoms: S_10  and  C_11 
REMARK    6  A    between atoms: C_11  and  C_12 
REMARK       I    between atoms: C_12  and  N_13 
REMARK    7  A    between atoms: N_13  and  C_14 
REMARK    8  A    between atoms: C_15  and  C_16 
REMARK    9  A    between atoms: C_16  and  O_17 
REMARK   10  A    between atoms: O_17  and  C_18 
REMARK   11  A    between atoms: C_29  and  N_30 
ROOT
HETATM    1  N   UNL     1      28.049  41.804  51.426  1.00  0.00    -0.276 N 
HETATM    2  C   UNL     1      27.638  42.244  50.139  1.00  0.00     0.177 C 
HETATM    3  N   UNL     1      27.808  41.591  49.021  1.00  0.00    -0.204 NA
HETATM    4  C   UNL     1      28.368  40.373  49.166  1.00  0.00     0.162 A 
HETATM    5  C   UNL     1      28.709  39.715  50.313  1.00  0.00     0.081 A 
HETATM    6  C   UNL     1      28.546  40.434  51.540  1.00  0.00     0.124 C 
HETATM    7  N   UNL     1      28.628  39.497  48.152  1.00  0.00    -0.260 N 
HETATM    8  H   UNL     1      28.484  39.637  47.156  1.00  0.00     0.191 HD
HETATM    9  N   UNL     1      29.083  38.304  48.598  1.00  0.00    -0.177 NA
HETATM   10  C   UNL     1      29.137  38.436  49.933  1.00  0.00     0.068 A 
HETATM   11  C   UNL     1      29.585  37.293  50.762  1.00  0.00     0.073 C 
ENDROOT
BRANCH   2  12
HETATM   12  S   UNL     1      26.641  43.703  49.981  1.00  0.00    -0.082 SA
BRANCH  12  13
HETATM   13  C   UNL     1      24.944  43.063  49.880  1.00  0.00     0.185 C 
BRANCH  13  14
HETATM   14  C   UNL     1      23.797  44.070  49.805  1.00  0.00     0.231 C 
HETATM   15  N   UNL     1      23.905  45.083  48.862  1.00  0.00    -0.326 N 
HETATM   16  H   UNL     1      24.856  45.246  48.562  1.00  0.00     0.169 HD
HETATM   17  O   UNL     1      22.857  43.971  50.597  1.00  0.00    -0.272 OA
BRANCH  15  18
HETATM   18  C   UNL     1      23.049  46.213  48.884  1.00  0.00     0.051 A 
HETATM   19  C   UNL     1      23.437  47.506  49.274  1.00  0.00     0.066 A 
HETATM   20  C   UNL     1      22.551  48.582  49.078  1.00  0.00     0.020 A 
HETATM   21  C   UNL     1      21.285  48.372  48.530  1.00  0.00     0.001 A 
HETATM   22  C   UNL     1      20.872  47.080  48.222  1.00  0.00     0.002 A 
HETATM   23  C   UNL     1      21.740  46.005  48.417  1.00  0.00     0.030 A 
BRANCH  19  24
HETATM   24  C   UNL     1      24.669  47.732  50.078  1.00  0.00     0.295 C 
HETATM   25  O   UNL     1      25.596  48.439  49.713  1.00  0.00    -0.259 OA
BRANCH  24  26
HETATM   26  O   UNL     1      24.644  46.957  51.193  1.00  0.00    -0.318 OA
BRANCH  26  27
HETATM   27  C   UNL     1      25.898  46.813  51.873  1.00  0.00     0.174 C 
HETATM   28  C   UNL     1      25.763  47.140  53.348  1.00  0.00     0.034 C 
ENDBRANCH  26  27
ENDBRANCH  24  26
ENDBRANCH  19  24
ENDBRANCH  15  18
ENDBRANCH  13  14
ENDBRANCH  12  13
ENDBRANCH   2  12
BRANCH   1  29
HETATM   29  C   UNL     1      28.360  42.732  52.469  1.00  0.00     0.043 A 
HETATM   30  C   UNL     1      27.377  43.308  53.279  1.00  0.00     0.033 A 
HETATM   31  C   UNL     1      27.742  44.108  54.369  1.00  0.00     0.039 A 
HETATM   32  C   UNL     1      29.086  44.311  54.688  1.00  0.00     0.068 A 
HETATM   33  C   UNL     1      30.073  43.770  53.870  1.00  0.00     0.039 A 
HETATM   34  C   UNL     1      29.711  42.989  52.771  1.00  0.00     0.033 A 
BRANCH  32  35
HETATM   35  O   UNL     1      29.329  45.073  55.796  1.00  0.00    -0.352 OA
BRANCH  35  36
HETATM   36  C   UNL     1      30.634  44.924  56.364  1.00  0.00     0.171 C 
HETATM   37  C   UNL     1      30.548  45.250  57.844  1.00  0.00     0.034 C 
ENDBRANCH  35  36
ENDBRANCH  32  35
ENDBRANCH   1  29
BRANCH   6  38
HETATM   38  N   UNL     1      28.824  39.881  52.705  1.00  0.00    -0.384 N 
HETATM   39  H   UNL     1      28.122  39.748  53.418  1.00  0.00     0.157 HD
HETATM   40  H   UNL     1      29.776  39.600  52.909  1.00  0.00     0.157 HD
ENDBRANCH   6  38
TORSDOF 11
ENDMDL
MODEL 5
REMARK VINA RESULT:      -7.9      4.599      8.648
REMARK  11 active torsions:
REMARK  status: ('A' for Active; 'I' for Inactive)
REMARK    1  A    between atoms: C_2  and  O_3 
REMARK    2  A    between atoms: O_3  and  C_4 
REMARK    3  A    between atoms: C_7  and  N_8 
REMARK    4  A    between atoms: C_9  and  S_10 
REMARK    5  A    between atoms: S_10  and  C_11 
REMARK    6  A    between atoms: C_11  and  C_12 
REMARK       I    between atoms: C_12  and  N_13 
REMARK    7  A    between atoms: N_13  and  C_14 
REMARK    8  A    between atoms: C_15  and  C_16 
REMARK    9  A    between atoms: C_16  and  O_17 
REMARK   10  A    between atoms: O_17  and  C_18 
REMARK   11  A    between atoms: C_29  and  N_30 
ROOT
HETATM    1  N   UNL     1      24.505  44.701  50.379  1.00  0.00    -0.276 N 
HETATM    2  C   UNL     1      24.172  45.832  49.586  1.00  0.00     0.177 C 
HETATM    3  N   UNL     1      23.608  45.796  48.408  1.00  0.00    -0.204 NA
HETATM    4  C   UNL     1      23.277  44.558  47.985  1.00  0.00     0.162 A 
HETATM    5  C   UNL     1      23.387  43.368  48.645  1.00  0.00     0.081 A 
HETATM    6  C   UNL     1      24.023  43.397  49.926  1.00  0.00     0.124 C 
HETATM    7  N   UNL     1      22.663  44.266  46.802  1.00  0.00    -0.260 N 
HETATM    8  H   UNL     1      22.404  44.909  46.060  1.00  0.00     0.191 HD
HETATM    9  N   UNL     1      22.344  42.956  46.691  1.00  0.00    -0.177 NA
HETATM   10  C   UNL     1      22.792  42.397  47.827  1.00  0.00     0.068 A 
HETATM   11  C   UNL     1      22.594  40.947  48.055  1.00  0.00     0.073 C 
ENDROOT
BRANCH   2  12
HETATM   12  S   UNL     1      24.333  47.465  50.261  1.00  0.00    -0.082 SA
BRANCH  12  13
HETATM   13  C   UNL     1      23.622  48.539  48.980  1.00  0.00     0.185 C 
BRANCH  13  14
HETATM   14  C   UNL     1      22.528  49.524  49.392  1.00  0.00     0.231 C 
HETATM   15  N   UNL     1      21.227  49.218  49.017  1.00  0.00    -0.326 N 
HETATM   16  H   UNL     1      21.179  48.568  48.245  1.00  0.00     0.169 HD
HETATM   17  O   UNL     1      22.842  50.555  49.991  1.00  0.00    -0.272 OA
BRANCH  15  18
HETATM   18  C   UNL     1      20.184  50.174  49.103  1.00  0.00     0.051 A 
HETATM   19  C   UNL     1      19.109  50.109  50.006  1.00  0.00     0.066 A 
HETATM   20  C   UNL     1      18.237  51.208  50.122  1.00  0.00     0.020 A 
HETATM   21  C   UNL     1      18.413  52.344  49.332  1.00  0.00     0.001 A 
HETATM   22  C   UNL     1      19.428  52.373  48.381  1.00  0.00     0.002 A 
HETATM   23  C   UNL     1      20.295  51.287  48.253  1.00  0.00     0.030 A 
BRANCH  19  24
HETATM   24  C   UNL     1      18.745  48.834  50.683  1.00  0.00     0.295 C 
HETATM   25  O   UNL     1      18.564  48.735  51.887  1.00  0.00    -0.259 OA
BRANCH  24  26
HETATM   26  O   UNL     1      18.763  47.812  49.788  1.00  0.00    -0.318 OA
BRANCH  26  27
HETATM   27  C   UNL     1      17.534  47.586  49.085  1.00  0.00     0.174 C 
HETATM   28  C   UNL     1      17.686  47.882  47.605  1.00  0.00     0.034 C 
ENDBRANCH  26  27
ENDBRANCH  24  26
ENDBRANCH  19  24
ENDBRANCH  15  18
ENDBRANCH  13  14
ENDBRANCH  12  13
ENDBRANCH   2  12
BRANCH   1  29
HETATM   29  C   UNL     1      25.577  44.742  51.325  1.00  0.00     0.043 A 
HETATM   30  C   UNL     1      25.379  45.058  52.672  1.00  0.00     0.033 A 
HETATM   31  C   UNL     1      26.437  44.957  53.583  1.00  0.00     0.039 A 
HETATM   32  C   UNL     1      27.693  44.504  53.172  1.00  0.00     0.068 A 
HETATM   33  C   UNL     1      27.912  44.219  51.828  1.00  0.00     0.039 A 
HETATM   34  C   UNL     1      26.862  44.338  50.914  1.00  0.00     0.033 A 
BRANCH  32  35
HETATM   35  O   UNL     1      28.641  44.404  54.151  1.00  0.00    -0.352 OA
BRANCH  35  36
HETATM   36  C   UNL     1      29.628  43.389  53.941  1.00  0.00     0.171 C 
HETATM   37  C   UNL     1      30.478  43.285  55.194  1.00  0.00     0.034 C 
ENDBRANCH  35  36
ENDBRANCH  32  35
ENDBRANCH   1  29
BRANCH   6  38
HETATM   38  N   UNL     1      24.158  42.306  50.654  1.00  0.00    -0.384 N 
HETATM   39  H   UNL     1      23.976  41.386  50.283  1.00  0.00     0.157 HD
HETATM   40  H   UNL     1      24.429  42.387  51.628  1.00  0.00     0.157 HD
ENDBRANCH   6  38
TORSDOF 11
ENDMDL
MODEL 6
REMARK VINA RESULT:      -7.7      3.659      7.898
REMARK  11 active torsions:
REMARK  status: ('A' for Active; 'I' for Inactive)
REMARK    1  A    between atoms: C_2  and  O_3 
REMARK    2  A    between atoms: O_3  and  C_4 
REMARK    3  A    between atoms: C_7  and  N_8 
REMARK    4  A    between atoms: C_9  and  S_10 
REMARK    5  A    between atoms: S_10  and  C_11 
REMARK    6  A    between atoms: C_11  and  C_12 
REMARK       I    between atoms: C_12  and  N_13 
REMARK    7  A    between atoms: N_13  and  C_14 
REMARK    8  A    between atoms: C_15  and  C_16 
REMARK    9  A    between atoms: C_16  and  O_17 
REMARK   10  A    between atoms: O_17  and  C_18 
REMARK   11  A    between atoms: C_29  and  N_30 
ROOT
HETATM    1  N   UNL     1      26.649  43.886  51.081  1.00  0.00    -0.276 N 
HETATM    2  C   UNL     1      25.563  44.694  50.651  1.00  0.00     0.177 C 
HETATM    3  N   UNL     1      25.057  45.702  51.310  1.00  0.00    -0.204 NA
HETATM    4  C   UNL     1      25.697  45.996  52.460  1.00  0.00     0.162 A 
HETATM    5  C   UNL     1      26.829  45.434  52.980  1.00  0.00     0.081 A 
HETATM    6  C   UNL     1      27.376  44.317  52.275  1.00  0.00     0.124 C 
HETATM    7  N   UNL     1      25.369  47.012  53.309  1.00  0.00    -0.260 N 
HETATM    8  H   UNL     1      24.591  47.660  53.234  1.00  0.00     0.191 HD
HETATM    9  N   UNL     1      26.254  47.149  54.323  1.00  0.00    -0.177 NA
HETATM   10  C   UNL     1      27.156  46.174  54.124  1.00  0.00     0.068 A 
HETATM   11  C   UNL     1      28.299  46.036  55.056  1.00  0.00     0.073 C 
ENDROOT
BRANCH   2  12
HETATM   12  S   UNL     1      24.911  44.500  49.012  1.00  0.00    -0.082 SA
BRANCH  12  13
HETATM   13  C   UNL     1      23.204  45.107  49.148  1.00  0.00     0.185 C 
BRANCH  13  14
HETATM   14  C   UNL     1      22.883  46.489  48.578  1.00  0.00     0.231 C 
HETATM   15  N   UNL     1      23.109  47.581  49.403  1.00  0.00    -0.326 N 
HETATM   16  H   UNL     1      23.143  47.338  50.384  1.00  0.00     0.169 HD
HETATM   17  O   UNL     1      22.404  46.576  47.445  1.00  0.00    -0.272 OA
BRANCH  15  18
HETATM   18  C   UNL     1      22.602  48.867  49.090  1.00  0.00     0.051 A 
HETATM   19  C   UNL     1      23.312  49.862  48.395  1.00  0.00     0.066 A 
HETATM   20  C   UNL     1      22.641  51.029  47.983  1.00  0.00     0.020 A 
HETATM   21  C   UNL     1      21.292  51.219  48.282  1.00  0.00     0.001 A 
HETATM   22  C   UNL     1      20.613  50.271  49.041  1.00  0.00     0.002 A 
HETATM   23  C   UNL     1      21.270  49.113  49.460  1.00  0.00     0.030 A 
BRANCH  19  24
HETATM   24  C   UNL     1      24.794  49.809  48.271  1.00  0.00     0.295 C 
HETATM   25  O   UNL     1      25.399  50.090  47.248  1.00  0.00    -0.259 OA
BRANCH  24  26
HETATM   26  O   UNL     1      25.337  49.300  49.408  1.00  0.00    -0.318 OA
BRANCH  26  27
HETATM   27  C   UNL     1      26.421  48.382  49.217  1.00  0.00     0.174 C 
HETATM   28  C   UNL     1      27.756  49.100  49.227  1.00  0.00     0.034 C 
ENDBRANCH  26  27
ENDBRANCH  24  26
ENDBRANCH  19  24
ENDBRANCH  15  18
ENDBRANCH  13  14
ENDBRANCH  12  13
ENDBRANCH   2  12
BRANCH   1  29
HETATM   29  C   UNL     1      26.786  42.528  50.652  1.00  0.00     0.043 A 
HETATM   30  C   UNL     1      26.022  41.489  51.192  1.00  0.00     0.033 A 
HETATM   31  C   UNL     1      26.099  40.201  50.648  1.00  0.00     0.039 A 
HETATM   32  C   UNL     1      26.905  39.942  49.537  1.00  0.00     0.068 A 
HETATM   33  C   UNL     1      27.694  40.960  49.011  1.00  0.00     0.039 A 
HETATM   34  C   UNL     1      27.634  42.240  49.566  1.00  0.00     0.033 A 
BRANCH  32  35
HETATM   35  O   UNL     1      26.872  38.661  49.061  1.00  0.00    -0.352 OA
BRANCH  35  36
HETATM   36  C   UNL     1      26.124  38.478  47.856  1.00  0.00     0.171 C 
HETATM   37  C   UNL     1      26.058  36.991  47.558  1.00  0.00     0.034 C 
ENDBRANCH  35  36
ENDBRANCH  32  35
ENDBRANCH   1  29
BRANCH   6  38
HETATM   38  N   UNL     1      28.479  43.718  52.680  1.00  0.00    -0.384 N 
HETATM   39  H   UNL     1      29.339  43.763  52.155  1.00  0.00     0.157 HD
HETATM   40  H   UNL     1      28.465  43.172  53.534  1.00  0.00     0.157 HD
ENDBRANCH   6  38
TORSDOF 11
ENDMDL
MODEL 7
REMARK VINA RESULT:      -7.7      5.516      8.624
REMARK  11 active torsions:
REMARK  status: ('A' for Active; 'I' for Inactive)
REMARK    1  A    between atoms: C_2  and  O_3 
REMARK    2  A    between atoms: O_3  and  C_4 
REMARK    3  A    between atoms: C_7  and  N_8 
REMARK    4  A    between atoms: C_9  and  S_10 
REMARK    5  A    between atoms: S_10  and  C_11 
REMARK    6  A    between atoms: C_11  and  C_12 
REMARK       I    between atoms: C_12  and  N_13 
REMARK    7  A    between atoms: N_13  and  C_14 
REMARK    8  A    between atoms: C_15  and  C_16 
REMARK    9  A    between atoms: C_16  and  O_17 
REMARK   10  A    between atoms: O_17  and  C_18 
REMARK   11  A    between atoms: C_29  and  N_30 
ROOT
HETATM    1  N   UNL     1      20.971  48.891  47.962  1.00  0.00    -0.276 N 
HETATM    2  C   UNL     1      22.203  48.477  48.537  1.00  0.00     0.177 C 
HETATM    3  N   UNL     1      22.754  47.302  48.390  1.00  0.00    -0.204 NA
HETATM    4  C   UNL     1      22.088  46.472  47.562  1.00  0.00     0.162 A 
HETATM    5  C   UNL     1      20.972  46.719  46.815  1.00  0.00     0.081 A 
HETATM    6  C   UNL     1      20.350  47.996  46.987  1.00  0.00     0.124 C 
HETATM    7  N   UNL     1      22.474  45.204  47.236  1.00  0.00    -0.260 N 
HETATM    8  H   UNL     1      23.275  44.688  47.587  1.00  0.00     0.191 HD
HETATM    9  N   UNL     1      21.681  44.645  46.293  1.00  0.00    -0.177 NA
HETATM   10  C   UNL     1      20.750  45.577  46.032  1.00  0.00     0.068 A 
HETATM   11  C   UNL     1      19.709  45.303  45.015  1.00  0.00     0.073 C 
ENDROOT
BRANCH   2  12
HETATM   12  S   UNL     1      23.225  49.657  49.380  1.00  0.00    -0.082 SA
BRANCH  12  13
HETATM   13  C   UNL     1      24.903  49.273  48.799  1.00  0.00     0.185 C 
BRANCH  13  14
HETATM   14  C   UNL     1      25.723  48.251  49.586  1.00  0.00     0.231 C 
HETATM   15  N   UNL     1      25.021  47.260  50.257  1.00  0.00    -0.326 N 
HETATM   16  H   UNL     1      24.055  47.504  50.430  1.00  0.00     0.169 HD
HETATM   17  O   UNL     1      26.949  48.369  49.630  1.00  0.00    -0.272 OA
BRANCH  15  18
HETATM   18  C   UNL     1      25.644  46.433  51.225  1.00  0.00     0.051 A 
HETATM   19  C   UNL     1      26.298  45.221  50.944  1.00  0.00     0.066 A 
HETATM   20  C   UNL     1      27.036  44.583  51.958  1.00  0.00     0.020 A 
HETATM   21  C   UNL     1      27.100  45.124  53.242  1.00  0.00     0.001 A 
HETATM   22  C   UNL     1      26.384  46.279  53.540  1.00  0.00     0.002 A 
HETATM   23  C   UNL     1      25.644  46.918  52.544  1.00  0.00     0.030 A 
BRANCH  19  24
HETATM   24  C   UNL     1      26.057  44.492  49.669  1.00  0.00     0.295 C 
HETATM   25  O   UNL     1      25.029  44.590  49.017  1.00  0.00    -0.259 OA
BRANCH  24  26
HETATM   26  O   UNL     1      27.085  43.638  49.422  1.00  0.00    -0.318 OA
BRANCH  26  27
HETATM   27  C   UNL     1      26.706  42.295  49.090  1.00  0.00     0.174 C 
HETATM   28  C   UNL     1      27.477  41.288  49.920  1.00  0.00     0.034 C 
ENDBRANCH  26  27
ENDBRANCH  24  26
ENDBRANCH  19  24
ENDBRANCH  15  18
ENDBRANCH  13  14
ENDBRANCH  12  13
ENDBRANCH   2  12
BRANCH   1  29
HETATM   29  C   UNL     1      20.162  49.899  48.576  1.00  0.00     0.043 A 
HETATM   30  C   UNL     1      20.136  51.221  48.122  1.00  0.00     0.033 A 
HETATM   31  C   UNL     1      19.232  52.137  48.672  1.00  0.00     0.039 A 
HETATM   32  C   UNL     1      18.317  51.739  49.649  1.00  0.00     0.068 A 
HETATM   33  C   UNL     1      18.355  50.435  50.132  1.00  0.00     0.039 A 
HETATM   34  C   UNL     1      19.270  49.525  49.600  1.00  0.00     0.033 A 
BRANCH  32  35
HETATM   35  O   UNL     1      17.452  52.703  50.085  1.00  0.00    -0.352 OA
BRANCH  35  36
HETATM   36  C   UNL     1      16.150  52.666  49.493  1.00  0.00     0.171 C 
HETATM   37  C   UNL     1      15.162  53.261  50.480  1.00  0.00     0.034 C 
ENDBRANCH  35  36
ENDBRANCH  32  35
ENDBRANCH   1  29
BRANCH   6  38
HETATM   38  N   UNL     1      19.281  48.342  46.295  1.00  0.00    -0.384 N 
HETATM   39  H   UNL     1      18.461  47.757  46.246  1.00  0.00     0.157 HD
HETATM   40  H   UNL     1      19.286  49.209  45.772  1.00  0.00     0.157 HD
ENDBRANCH   6  38
TORSDOF 11
ENDMDL
MODEL 8
REMARK VINA RESULT:      -7.7      3.804      6.179
REMARK  11 active torsions:
REMARK  status: ('A' for Active; 'I' for Inactive)
REMARK    1  A    between atoms: C_2  and  O_3 
REMARK    2  A    between atoms: O_3  and  C_4 
REMARK    3  A    between atoms: C_7  and  N_8 
REMARK    4  A    between atoms: C_9  and  S_10 
REMARK    5  A    between atoms: S_10  and  C_11 
REMARK    6  A    between atoms: C_11  and  C_12 
REMARK       I    between atoms: C_12  and  N_13 
REMARK    7  A    between atoms: N_13  and  C_14 
REMARK    8  A    between atoms: C_15  and  C_16 
REMARK    9  A    between atoms: C_16  and  O_17 
REMARK   10  A    between atoms: O_17  and  C_18 
REMARK   11  A    between atoms: C_29  and  N_30 
ROOT
HETATM    1  N   UNL     1      23.941  44.547  48.931  1.00  0.00    -0.276 N 
HETATM    2  C   UNL     1      25.303  44.791  49.255  1.00  0.00     0.177 C 
HETATM    3  N   UNL     1      25.843  45.966  49.435  1.00  0.00    -0.204 NA
HETATM    4  C   UNL     1      24.977  46.997  49.356  1.00  0.00     0.162 A 
HETATM    5  C   UNL     1      23.622  46.969  49.188  1.00  0.00     0.081 A 
HETATM    6  C   UNL     1      23.026  45.687  48.969  1.00  0.00     0.124 C 
HETATM    7  N   UNL     1      25.297  48.313  49.526  1.00  0.00    -0.260 N 
HETATM    8  H   UNL     1      26.216  48.714  49.691  1.00  0.00     0.191 HD
HETATM    9  N   UNL     1      24.211  49.119  49.510  1.00  0.00    -0.177 NA
HETATM   10  C   UNL     1      23.174  48.292  49.299  1.00  0.00     0.068 A 
HETATM   11  C   UNL     1      21.801  48.844  49.238  1.00  0.00     0.073 C 
ENDROOT
BRANCH   2  12
HETATM   12  S   UNL     1      26.375  43.433  49.650  1.00  0.00    -0.082 SA
BRANCH  12  13
HETATM   13  C   UNL     1      25.837  42.921  51.308  1.00  0.00     0.185 C 
BRANCH  13  14
HETATM   14  C   UNL     1      25.725  43.993  52.392  1.00  0.00     0.231 C 
HETATM   15  N   UNL     1      26.754  44.921  52.474  1.00  0.00    -0.326 N 
HETATM   16  H   UNL     1      27.611  44.602  52.043  1.00  0.00     0.169 HD
HETATM   17  O   UNL     1      24.765  43.968  53.165  1.00  0.00    -0.272 OA
BRANCH  15  18
HETATM   18  C   UNL     1      26.893  45.781  53.592  1.00  0.00     0.051 A 
HETATM   19  C   UNL     1      27.887  45.659  54.579  1.00  0.00     0.066 A 
HETATM   20  C   UNL     1      28.037  46.679  55.538  1.00  0.00     0.020 A 
HETATM   21  C   UNL     1      27.192  47.789  55.536  1.00  0.00     0.001 A 
HETATM   22  C   UNL     1      26.157  47.867  54.609  1.00  0.00     0.002 A 
HETATM   23  C   UNL     1      25.996  46.859  53.657  1.00  0.00     0.030 A 
BRANCH  19  24
HETATM   24  C   UNL     1      28.640  44.389  54.763  1.00  0.00     0.295 C 
HETATM   25  O   UNL     1      28.264  43.309  54.333  1.00  0.00    -0.259 OA
BRANCH  24  26
HETATM   26  O   UNL     1      29.719  44.601  55.562  1.00  0.00    -0.318 OA
BRANCH  26  27
HETATM   27  C   UNL     1      30.743  43.600  55.495  1.00  0.00     0.174 C 
HETATM   28  C   UNL     1      31.420  43.417  56.839  1.00  0.00     0.034 C 
ENDBRANCH  26  27
ENDBRANCH  24  26
ENDBRANCH  19  24
ENDBRANCH  15  18
ENDBRANCH  13  14
ENDBRANCH  12  13
ENDBRANCH   2  12
BRANCH   1  29
HETATM   29  C   UNL     1      23.543  43.376  48.211  1.00  0.00     0.043 A 
HETATM   30  C   UNL     1      23.123  42.207  48.852  1.00  0.00     0.033 A 
HETATM   31  C   UNL     1      22.621  41.135  48.104  1.00  0.00     0.039 A 
HETATM   32  C   UNL     1      22.494  41.229  46.717  1.00  0.00     0.068 A 
HETATM   33  C   UNL     1      22.939  42.374  46.064  1.00  0.00     0.039 A 
HETATM   34  C   UNL     1      23.460  43.436  46.807  1.00  0.00     0.033 A 
BRANCH  32  35
HETATM   35  O   UNL     1      21.952  40.141  46.092  1.00  0.00    -0.352 OA
BRANCH  35  36
HETATM   36  C   UNL     1      20.740  39.648  46.669  1.00  0.00     0.171 C 
HETATM   37  C   UNL     1      19.849  39.145  45.547  1.00  0.00     0.034 C 
ENDBRANCH  35  36
ENDBRANCH  32  35
ENDBRANCH   1  29
BRANCH   6  38
HETATM   38  N   UNL     1      21.723  45.548  48.819  1.00  0.00    -0.384 N 
HETATM   39  H   UNL     1      21.134  45.181  49.551  1.00  0.00     0.157 HD
HETATM   40  H   UNL     1      21.295  45.791  47.933  1.00  0.00     0.157 HD
ENDBRANCH   6  38
TORSDOF 11
ENDMDL
MODEL 9
REMARK VINA RESULT:      -7.6      3.899      7.155
REMARK  11 active torsions:
REMARK  status: ('A' for Active; 'I' for Inactive)
REMARK    1  A    between atoms: C_2  and  O_3 
REMARK    2  A    between atoms: O_3  and  C_4 
REMARK    3  A    between atoms: C_7  and  N_8 
REMARK    4  A    between atoms: C_9  and  S_10 
REMARK    5  A    between atoms: S_10  and  C_11 
REMARK    6  A    between atoms: C_11  and  C_12 
REMARK       I    between atoms: C_12  and  N_13 
REMARK    7  A    between atoms: N_13  and  C_14 
REMARK    8  A    between atoms: C_15  and  C_16 
REMARK    9  A    between atoms: C_16  and  O_17 
REMARK   10  A    between atoms: O_17  and  C_18 
REMARK   11  A    between atoms: C_29  and  N_30 
ROOT
HETATM    1  N   UNL     1      23.505  46.120  49.278  1.00  0.00    -0.276 N 
HETATM    2  C   UNL     1      24.783  46.627  49.634  1.00  0.00     0.177 C 
HETATM    3  N   UNL     1      25.174  47.866  49.503  1.00  0.00    -0.204 NA
HETATM    4  C   UNL     1      24.223  48.705  49.044  1.00  0.00     0.162 A 
HETATM    5  C   UNL     1      22.910  48.449  48.772  1.00  0.00     0.081 A 
HETATM    6  C   UNL     1      22.480  47.090  48.893  1.00  0.00     0.124 C 
HETATM    7  N   UNL     1      24.384  50.045  48.841  1.00  0.00    -0.260 N 
HETATM    8  H   UNL     1      25.229  50.596  48.960  1.00  0.00     0.191 HD
HETATM    9  N   UNL     1      23.232  50.660  48.489  1.00  0.00    -0.177 NA
HETATM   10  C   UNL     1      22.319  49.676  48.443  1.00  0.00     0.068 A 
HETATM   11  C   UNL     1      20.915  49.999  48.099  1.00  0.00     0.073 C 
ENDROOT
BRANCH   2  12
HETATM   12  S   UNL     1      25.931  45.594  50.510  1.00  0.00    -0.082 SA
BRANCH  12  13
HETATM   13  C   UNL     1      25.173  45.392  52.149  1.00  0.00     0.185 C 
BRANCH  13  14
HETATM   14  C   UNL     1      26.087  45.068  53.330  1.00  0.00     0.231 C 
HETATM   15  N   UNL     1      27.455  45.141  53.110  1.00  0.00    -0.326 N 
HETATM   16  H   UNL     1      27.704  45.073  52.133  1.00  0.00     0.169 HD
HETATM   17  O   UNL     1      25.584  44.720  54.401  1.00  0.00    -0.272 OA
BRANCH  15  18
HETATM   18  C   UNL     1      28.387  44.607  54.036  1.00  0.00     0.051 A 
HETATM   19  C   UNL     1      28.938  43.316  53.966  1.00  0.00     0.066 A 
HETATM   20  C   UNL     1      29.989  42.966  54.834  1.00  0.00     0.020 A 
HETATM   21  C   UNL     1      30.465  43.874  55.780  1.00  0.00     0.001 A 
HETATM   22  C   UNL     1      29.863  45.122  55.903  1.00  0.00     0.002 A 
HETATM   23  C   UNL     1      28.817  45.478  55.051  1.00  0.00     0.030 A 
BRANCH  19  24
HETATM   24  C   UNL     1      28.301  42.249  53.147  1.00  0.00     0.295 C 
HETATM   25  O   UNL     1      28.023  41.140  53.578  1.00  0.00    -0.259 OA
BRANCH  24  26
HETATM   26  O   UNL     1      28.192  42.657  51.856  1.00  0.00    -0.318 OA
BRANCH  26  27
HETATM   27  C   UNL     1      27.750  41.657  50.928  1.00  0.00     0.174 C 
HETATM   28  C   UNL     1      26.280  41.828  50.597  1.00  0.00     0.034 C 
ENDBRANCH  26  27
ENDBRANCH  24  26
ENDBRANCH  19  24
ENDBRANCH  15  18
ENDBRANCH  13  14
ENDBRANCH  12  13
ENDBRANCH   2  12
BRANCH   1  29
HETATM   29  C   UNL     1      23.321  44.750  48.907  1.00  0.00     0.043 A 
HETATM   30  C   UNL     1      23.696  44.254  47.655  1.00  0.00     0.033 A 
HETATM   31  C   UNL     1      23.617  42.881  47.389  1.00  0.00     0.039 A 
HETATM   32  C   UNL     1      23.202  41.984  48.376  1.00  0.00     0.068 A 
HETATM   33  C   UNL     1      22.795  42.470  49.615  1.00  0.00     0.039 A 
HETATM   34  C   UNL     1      22.854  43.840  49.876  1.00  0.00     0.033 A 
BRANCH  32  35
HETATM   35  O   UNL     1      23.202  40.665  48.022  1.00  0.00    -0.352 OA
BRANCH  35  36
HETATM   36  C   UNL     1      22.476  40.355  46.829  1.00  0.00     0.171 C 
HETATM   37  C   UNL     1      21.230  39.580  47.218  1.00  0.00     0.034 C 
ENDBRANCH  35  36
ENDBRANCH  32  35
ENDBRANCH   1  29
BRANCH   6  38
HETATM   38  N   UNL     1      21.227  46.740  48.676  1.00  0.00    -0.384 N 
HETATM   39  H   UNL     1      20.547  47.384  48.302  1.00  0.00     0.157 HD
HETATM   40  H   UNL     1      20.923  45.803  48.913  1.00  0.00     0.157 HD
ENDBRANCH   6  38
TORSDOF 11
ENDMDL
MODEL 10
REMARK VINA RESULT:      -7.5      2.604      4.029
REMARK  11 active torsions:
REMARK  status: ('A' for Active; 'I' for Inactive)
REMARK    1  A    between atoms: C_2  and  O_3 
REMARK    2  A    between atoms: O_3  and  C_4 
REMARK    3  A    between atoms: C_7  and  N_8 
REMARK    4  A    between atoms: C_9  and  S_10 
REMARK    5  A    between atoms: S_10  and  C_11 
REMARK    6  A    between atoms: C_11  and  C_12 
REMARK       I    between atoms: C_12  and  N_13 
REMARK    7  A    between atoms: N_13  and  C_14 
REMARK    8  A    between atoms: C_15  and  C_16 
REMARK    9  A    between atoms: C_16  and  O_17 
REMARK   10  A    between atoms: O_17  and  C_18 
REMARK   11  A    between atoms: C_29  and  N_30 
ROOT
HETATM    1  N   UNL     1      24.483  43.583  49.426  1.00  0.00    -0.276 N 
HETATM    2  C   UNL     1      24.928  43.571  50.775  1.00  0.00     0.177 C 
HETATM    3  N   UNL     1      25.494  42.561  51.380  1.00  0.00    -0.204 NA
HETATM    4  C   UNL     1      25.707  41.486  50.594  1.00  0.00     0.162 A 
HETATM    5  C   UNL     1      25.477  41.343  49.255  1.00  0.00     0.081 A 
HETATM    6  C   UNL     1      24.838  42.437  48.591  1.00  0.00     0.124 C 
HETATM    7  N   UNL     1      26.298  40.322  50.991  1.00  0.00    -0.260 N 
HETATM    8  H   UNL     1      26.622  40.074  51.921  1.00  0.00     0.191 HD
HETATM    9  N   UNL     1      26.489  39.460  49.966  1.00  0.00    -0.177 NA
HETATM   10  C   UNL     1      25.981  40.087  48.892  1.00  0.00     0.068 A 
HETATM   11  C   UNL     1      26.036  39.426  47.568  1.00  0.00     0.073 C 
ENDROOT
BRANCH   2  12
HETATM   12  S   UNL     1      24.922  45.072  51.722  1.00  0.00    -0.082 SA
BRANCH  12  13
HETATM   13  C   UNL     1      24.795  44.501  53.442  1.00  0.00     0.185 C 
BRANCH  13  14
HETATM   14  C   UNL     1      26.090  44.244  54.213  1.00  0.00     0.231 C 
HETATM   15  N   UNL     1      27.242  44.854  53.736  1.00  0.00    -0.326 N 
HETATM   16  H   UNL     1      27.175  45.124  52.764  1.00  0.00     0.169 HD
HETATM   17  O   UNL     1      26.070  43.486  55.185  1.00  0.00    -0.272 OA
BRANCH  15  18
HETATM   18  C   UNL     1      28.528  44.478  54.198  1.00  0.00     0.051 A 
HETATM   19  C   UNL     1      29.140  44.977  55.361  1.00  0.00     0.066 A 
HETATM   20  C   UNL     1      30.337  44.393  55.816  1.00  0.00     0.020 A 
HETATM   21  C   UNL     1      30.935  43.349  55.109  1.00  0.00     0.001 A 
HETATM   22  C   UNL     1      30.372  42.913  53.915  1.00  0.00     0.002 A 
HETATM   23  C   UNL     1      29.188  43.488  53.451  1.00  0.00     0.030 A 
BRANCH  19  24
HETATM   24  C   UNL     1      28.670  46.235  56.001  1.00  0.00     0.295 C 
HETATM   25  O   UNL     1      28.523  46.368  57.206  1.00  0.00    -0.259 OA
BRANCH  24  26
HETATM   26  O   UNL     1      28.332  47.142  55.048  1.00  0.00    -0.318 OA
BRANCH  26  27
HETATM   27  C   UNL     1      27.296  48.064  55.413  1.00  0.00     0.174 C 
HETATM   28  C   UNL     1      26.071  47.888  54.536  1.00  0.00     0.034 C 
ENDBRANCH  26  27
ENDBRANCH  24  26
ENDBRANCH  19  24
ENDBRANCH  15  18
ENDBRANCH  13  14
ENDBRANCH  12  13
ENDBRANCH   2  12
BRANCH   1  29
HETATM   29  C   UNL     1      23.412  44.432  49.001  1.00  0.00     0.043 A 
HETATM   30  C   UNL     1      22.069  44.060  49.109  1.00  0.00     0.033 A 
HETATM   31  C   UNL     1      21.057  44.976  48.801  1.00  0.00     0.039 A 
HETATM   32  C   UNL     1      21.368  46.284  48.420  1.00  0.00     0.068 A 
HETATM   33  C   UNL     1      22.701  46.656  48.276  1.00  0.00     0.039 A 
HETATM   34  C   UNL     1      23.712  45.737  48.564  1.00  0.00     0.033 A 
BRANCH  32  35
HETATM   35  O   UNL     1      20.303  47.106  48.184  1.00  0.00    -0.352 OA
BRANCH  35  36
HETATM   36  C   UNL     1      19.978  48.003  49.251  1.00  0.00     0.171 C 
HETATM   37  C   UNL     1      18.515  48.385  49.121  1.00  0.00     0.034 C 
ENDBRANCH  35  36
ENDBRANCH  32  35
ENDBRANCH   1  29
BRANCH   6  38
HETATM   38  N   UNL     1      24.593  42.409  47.294  1.00  0.00    -0.384 N 
HETATM   39  H   UNL     1      24.028  41.689  46.870  1.00  0.00     0.157 HD
HETATM   40  H   UNL     1      25.004  43.114  46.694  1.00  0.00     0.157 HD
ENDBRANCH   6  38
TORSDOF 11
ENDMDL
