MODEL 1
REMARK VINA RESULT:      -8.1      0.000      0.000
REMARK  5 active torsions:
REMARK  status: ('A' for Active; 'I' for Inactive)
REMARK    1  A    between atoms: C_3  and  N_4 
REMARK       I    between atoms: N_4  and  C_5 
REMARK       I    between atoms: C_5  and  N_6 
REMARK    2  A    between atoms: N_6  and  C_7 
REMARK    3  A    between atoms: C_7  and  C_8 
REMARK    4  A    between atoms: C_20  and  C_21 
REMARK       I    between atoms: C_21  and  N_22 
REMARK    5  A    between atoms: N_22  and  C_23 
ROOT
HETATM    1  C   UNL     1      25.975  47.085  51.652  1.00  0.00     0.052 C 
HETATM    2  C   UNL     1      25.079  46.096  50.944  1.00  0.00    -0.020 A 
HETATM    3  C   UNL     1      24.235  46.509  49.880  1.00  0.00     0.043 A 
HETATM    4  C   UNL     1      23.493  45.545  49.185  1.00  0.00     0.030 A 
HETATM    5  C   UNL     1      23.581  44.190  49.515  1.00  0.00     0.003 A 
HETATM    6  C   UNL     1      24.363  43.784  50.588  1.00  0.00     0.018 A 
HETATM    7  C   UNL     1      25.079  44.733  51.325  1.00  0.00     0.040 A 
ENDROOT
BRANCH   3   8
HETATM    8  N   UNL     1      24.118  47.893  49.625  1.00  0.00    -0.309 N 
HETATM    9  C   UNL     1      23.081  48.760  49.521  1.00  0.00     0.321 C 
HETATM   10  N   UNL     1      21.830  48.267  49.338  1.00  0.00    -0.338 N 
HETATM   11  O   UNL     1      23.319  49.965  49.565  1.00  0.00    -0.247 OA
HETATM   12  H   UNL     1      21.786  47.438  48.764  1.00  0.00     0.164 HD
HETATM   13  H   UNL     1      24.981  48.420  49.611  1.00  0.00     0.170 HD
BRANCH  10  14
HETATM   14  C   UNL     1      20.739  49.203  49.178  1.00  0.00     0.167 C 
BRANCH  14  15
HETATM   15  C   UNL     1      19.452  48.463  49.103  1.00  0.00     0.009 A 
HETATM   16  C   UNL     1      18.849  47.897  47.943  1.00  0.00     0.060 A 
HETATM   17  C   UNL     1      19.360  47.902  46.550  1.00  0.00     0.073 C 
HETATM   18  N   UNL     1      17.675  47.321  48.223  1.00  0.00    -0.179 NA
HETATM   19  N   UNL     1      17.509  47.534  49.534  1.00  0.00    -0.282 N 
HETATM   20  H   UNL     1      16.657  47.194  49.969  1.00  0.00     0.189 HD
HETATM   21  C   UNL     1      18.538  48.219  50.115  1.00  0.00     0.034 A 
HETATM   22  C   UNL     1      18.531  48.572  51.553  1.00  0.00     0.070 C 
ENDBRANCH  14  15
ENDBRANCH  10  14
ENDBRANCH   3   8
BRANCH   7  23
HETATM   23  C   UNL     1      25.782  44.228  52.538  1.00  0.00     0.252 C 
HETATM   24  N   UNL     1      27.121  43.951  52.348  1.00  0.00    -0.349 N 
HETATM   25  H   UNL     1      27.529  44.279  51.481  1.00  0.00     0.163 HD
HETATM   26  O   UNL     1      25.184  44.145  53.600  1.00  0.00    -0.268 OA
BRANCH  24  27
HETATM   27  C   UNL     1      28.059  43.530  53.398  1.00  0.00     0.022 C 
HETATM   28  C   UNL     1      27.622  42.210  54.054  1.00  0.00     0.037 C 
HETATM   29  C   UNL     1      29.431  43.301  52.736  1.00  0.00     0.037 C 
HETATM   30  C   UNL     1      28.200  44.628  54.461  1.00  0.00     0.037 C 
ENDBRANCH  24  27
ENDBRANCH   7  23
TORSDOF 5
ENDMDL
MODEL 2
REMARK VINA RESULT:      -8.1      2.025      8.817
REMARK  5 active torsions:
REMARK  status: ('A' for Active; 'I' for Inactive)
REMARK    1  A    between atoms: C_3  and  N_4 
REMARK       I    between atoms: N_4  and  C_5 
REMARK       I    between atoms: C_5  and  N_6 
REMARK    2  A    between atoms: N_6  and  C_7 
REMARK    3  A    between atoms: C_7  and  C_8 
REMARK    4  A    between atoms: C_20  and  C_21 
REMARK       I    between atoms: C_21  and  N_22 
REMARK    5  A    between atoms: N_22  and  C_23 
ROOT
HETATM    1  C   UNL     1      22.531  45.815  49.063  1.00  0.00     0.052 C 
HETATM    2  C   UNL     1      23.680  46.771  49.283  1.00  0.00    -0.020 A 
HETATM    3  C   UNL     1      24.882  46.338  49.899  1.00  0.00     0.043 A 
HETATM    4  C   UNL     1      25.960  47.228  49.996  1.00  0.00     0.030 A 
HETATM    5  C   UNL     1      25.871  48.527  49.487  1.00  0.00     0.003 A 
HETATM    6  C   UNL     1      24.681  48.976  48.930  1.00  0.00     0.018 A 
HETATM    7  C   UNL     1      23.577  48.119  48.862  1.00  0.00     0.040 A 
ENDROOT
BRANCH   3   8
HETATM    8  N   UNL     1      24.908  45.045  50.466  1.00  0.00    -0.309 N 
HETATM    9  C   UNL     1      24.986  44.558  51.730  1.00  0.00     0.321 C 
HETATM   10  N   UNL     1      25.403  45.380  52.725  1.00  0.00    -0.338 N 
HETATM   11  O   UNL     1      24.707  43.375  51.919  1.00  0.00    -0.247 OA
HETATM   12  H   UNL     1      26.112  46.044  52.451  1.00  0.00     0.164 HD
HETATM   13  H   UNL     1      24.725  44.275  49.836  1.00  0.00     0.170 HD
BRANCH  10  14
HETATM   14  C   UNL     1      25.531  44.836  54.059  1.00  0.00     0.167 C 
BRANCH  14  15
HETATM   15  C   UNL     1      26.963  44.818  54.456  1.00  0.00     0.009 A 
HETATM   16  C   UNL     1      27.727  45.902  54.977  1.00  0.00     0.060 A 
HETATM   17  C   UNL     1      27.279  47.289  55.254  1.00  0.00     0.073 C 
HETATM   18  N   UNL     1      28.997  45.551  55.207  1.00  0.00    -0.179 NA
HETATM   19  N   UNL     1      29.060  44.272  54.816  1.00  0.00    -0.282 N 
HETATM   20  H   UNL     1      29.954  43.796  54.882  1.00  0.00     0.189 HD
HETATM   21  C   UNL     1      27.874  43.779  54.351  1.00  0.00     0.034 A 
HETATM   22  C   UNL     1      27.743  42.391  53.852  1.00  0.00     0.070 C 
ENDBRANCH  14  15
ENDBRANCH  10  14
ENDBRANCH   3   8
BRANCH   7  23
HETATM   23  C   UNL     1      22.306  48.723  48.373  1.00  0.00     0.252 C 
HETATM   24  N   UNL     1      21.522  49.281  49.362  1.00  0.00    -0.349 N 
HETATM   25  H   UNL     1      21.953  49.387  50.272  1.00  0.00     0.163 HD
HETATM   26  O   UNL     1      22.062  48.747  47.176  1.00  0.00    -0.268 OA
BRANCH  24  27
HETATM   27  C   UNL     1      20.269  50.018  49.139  1.00  0.00     0.022 C 
HETATM   28  C   UNL     1      19.277  49.206  48.290  1.00  0.00     0.037 C 
HETATM   29  C   UNL     1      19.623  50.270  50.515  1.00  0.00     0.037 C 
HETATM   30  C   UNL     1      20.555  51.369  48.471  1.00  0.00     0.037 C 
ENDBRANCH  24  27
ENDBRANCH   7  23
TORSDOF 5
ENDMDL
MODEL 3
REMARK VINA RESULT:      -7.9      1.927      2.813
REMARK  5 active torsions:
REMARK  status: ('A' for Active; 'I' for Inactive)
REMARK    1  A    between atoms: C_3  and  N_4 
REMARK       I    between atoms: N_4  and  C_5 
REMARK       I    between atoms: C_5  and  N_6 
REMARK    2  A    between atoms: N_6  and  C_7 
REMARK    3  A    between atoms: C_7  and  C_8 
REMARK    4  A    between atoms: C_20  and  C_21 
REMARK       I    between atoms: C_21  and  N_22 
REMARK    5  A    between atoms: N_22  and  C_23 
ROOT
HETATM    1  C   UNL     1      24.631  43.356  51.332  1.00  0.00     0.052 C 
HETATM    2  C   UNL     1      25.094  44.782  51.524  1.00  0.00    -0.020 A 
HETATM    3  C   UNL     1      24.618  45.822  50.686  1.00  0.00     0.043 A 
HETATM    4  C   UNL     1      24.994  47.144  50.958  1.00  0.00     0.030 A 
HETATM    5  C   UNL     1      25.818  47.451  52.044  1.00  0.00     0.003 A 
HETATM    6  C   UNL     1      26.331  46.434  52.838  1.00  0.00     0.018 A 
HETATM    7  C   UNL     1      26.005  45.103  52.559  1.00  0.00     0.040 A 
ENDROOT
BRANCH   3   8
HETATM    8  N   UNL     1      23.848  45.465  49.557  1.00  0.00    -0.309 N 
HETATM    9  C   UNL     1      22.951  46.109  48.770  1.00  0.00     0.321 C 
HETATM   10  N   UNL     1      22.389  47.258  49.222  1.00  0.00    -0.338 N 
HETATM   11  O   UNL     1      22.655  45.607  47.687  1.00  0.00    -0.247 OA
HETATM   12  H   UNL     1      22.215  47.277  50.216  1.00  0.00     0.164 HD
HETATM   13  H   UNL     1      24.055  44.567  49.140  1.00  0.00     0.170 HD
BRANCH  10  14
HETATM   14  C   UNL     1      21.395  47.909  48.397  1.00  0.00     0.167 C 
BRANCH  14  15
HETATM   15  C   UNL     1      20.809  49.060  49.132  1.00  0.00     0.009 A 
HETATM   16  C   UNL     1      21.413  50.327  49.371  1.00  0.00     0.060 A 
HETATM   17  C   UNL     1      22.752  50.801  48.940  1.00  0.00     0.073 C 
HETATM   18  N   UNL     1      20.620  51.129  50.090  1.00  0.00    -0.179 NA
HETATM   19  N   UNL     1      19.535  50.384  50.334  1.00  0.00    -0.282 N 
HETATM   20  H   UNL     1      18.792  50.791  50.894  1.00  0.00     0.189 HD
HETATM   21  C   UNL     1      19.593  49.133  49.791  1.00  0.00     0.034 A 
HETATM   22  C   UNL     1      18.499  48.150  49.968  1.00  0.00     0.070 C 
ENDBRANCH  14  15
ENDBRANCH  10  14
ENDBRANCH   3   8
BRANCH   7  23
HETATM   23  C   UNL     1      26.704  44.071  53.376  1.00  0.00     0.252 C 
HETATM   24  N   UNL     1      27.967  43.746  52.926  1.00  0.00    -0.349 N 
HETATM   25  H   UNL     1      28.360  44.349  52.214  1.00  0.00     0.163 HD
HETATM   26  O   UNL     1      26.175  43.632  54.386  1.00  0.00    -0.268 OA
BRANCH  24  27
HETATM   27  C   UNL     1      28.899  42.829  53.598  1.00  0.00     0.022 C 
HETATM   28  C   UNL     1      28.341  41.398  53.663  1.00  0.00     0.037 C 
HETATM   29  C   UNL     1      30.200  42.796  52.773  1.00  0.00     0.037 C 
HETATM   30  C   UNL     1      29.222  43.336  55.010  1.00  0.00     0.037 C 
ENDBRANCH  24  27
ENDBRANCH   7  23
TORSDOF 5
ENDMDL
MODEL 4
REMARK VINA RESULT:      -7.9      2.616      8.705
REMARK  5 active torsions:
REMARK  status: ('A' for Active; 'I' for Inactive)
REMARK    1  A    between atoms: C_3  and  N_4 
REMARK       I    between atoms: N_4  and  C_5 
REMARK       I    between atoms: C_5  and  N_6 
REMARK    2  A    between atoms: N_6  and  C_7 
REMARK    3  A    between atoms: C_7  and  C_8 
REMARK    4  A    between atoms: C_20  and  C_21 
REMARK       I    between atoms: C_21  and  N_22 
REMARK    5  A    between atoms: N_22  and  C_23 
ROOT
HETATM    1  C   UNL     1      21.801  50.582  49.935  1.00  0.00     0.052 C 
HETATM    2  C   UNL     1      21.372  49.247  49.370  1.00  0.00    -0.020 A 
HETATM    3  C   UNL     1      22.332  48.291  48.951  1.00  0.00     0.043 A 
HETATM    4  C   UNL     1      21.898  47.028  48.526  1.00  0.00     0.030 A 
HETATM    5  C   UNL     1      20.540  46.697  48.520  1.00  0.00     0.003 A 
HETATM    6  C   UNL     1      19.590  47.645  48.878  1.00  0.00     0.018 A 
HETATM    7  C   UNL     1      19.997  48.926  49.264  1.00  0.00     0.040 A 
ENDROOT
BRANCH   3   8
HETATM    8  N   UNL     1      23.687  48.688  48.902  1.00  0.00    -0.309 N 
HETATM    9  C   UNL     1      24.832  48.247  49.480  1.00  0.00     0.321 C 
HETATM   10  N   UNL     1      24.750  47.428  50.559  1.00  0.00    -0.338 N 
HETATM   11  O   UNL     1      25.905  48.634  49.020  1.00  0.00    -0.247 OA
HETATM   12  H   UNL     1      23.978  47.628  51.178  1.00  0.00     0.164 HD
HETATM   13  H   UNL     1      23.923  49.391  48.215  1.00  0.00     0.170 HD
BRANCH  10  14
HETATM   14  C   UNL     1      25.977  47.006  51.196  1.00  0.00     0.167 C 
BRANCH  14  15
HETATM   15  C   UNL     1      25.664  46.111  52.341  1.00  0.00     0.009 A 
HETATM   16  C   UNL     1      25.094  44.808  52.286  1.00  0.00     0.060 A 
HETATM   17  C   UNL     1      24.689  44.034  51.086  1.00  0.00     0.073 C 
HETATM   18  N   UNL     1      24.920  44.288  53.506  1.00  0.00    -0.179 NA
HETATM   19  N   UNL     1      25.345  45.249  54.336  1.00  0.00    -0.282 N 
HETATM   20  H   UNL     1      25.286  45.079  55.335  1.00  0.00     0.189 HD
HETATM   21  C   UNL     1      25.797  46.368  53.697  1.00  0.00     0.034 A 
HETATM   22  C   UNL     1      26.289  47.551  54.440  1.00  0.00     0.070 C 
ENDBRANCH  14  15
ENDBRANCH  10  14
ENDBRANCH   3   8
BRANCH   7  23
HETATM   23  C   UNL     1      18.910  49.917  49.501  1.00  0.00     0.252 C 
HETATM   24  N   UNL     1      18.486  50.581  48.369  1.00  0.00    -0.349 N 
HETATM   25  H   UNL     1      18.814  50.216  47.484  1.00  0.00     0.163 HD
HETATM   26  O   UNL     1      18.432  50.041  50.619  1.00  0.00    -0.268 OA
BRANCH  24  27
HETATM   27  C   UNL     1      17.370  51.537  48.312  1.00  0.00     0.022 C 
HETATM   28  C   UNL     1      17.552  52.681  49.323  1.00  0.00     0.037 C 
HETATM   29  C   UNL     1      17.350  52.150  46.899  1.00  0.00     0.037 C 
HETATM   30  C   UNL     1      16.037  50.819  48.560  1.00  0.00     0.037 C 
ENDBRANCH  24  27
ENDBRANCH   7  23
TORSDOF 5
ENDMDL
MODEL 5
REMARK VINA RESULT:      -7.8      6.214      9.643
REMARK  5 active torsions:
REMARK  status: ('A' for Active; 'I' for Inactive)
REMARK    1  A    between atoms: C_3  and  N_4 
REMARK       I    between atoms: N_4  and  C_5 
REMARK       I    between atoms: C_5  and  N_6 
REMARK    2  A    between atoms: N_6  and  C_7 
REMARK    3  A    between atoms: C_7  and  C_8 
REMARK    4  A    between atoms: C_20  and  C_21 
REMARK       I    between atoms: C_21  and  N_22 
REMARK    5  A    between atoms: N_22  and  C_23 
ROOT
HETATM    1  C   UNL     1      27.654  40.859  52.894  1.00  0.00     0.052 C 
HETATM    2  C   UNL     1      27.248  41.825  51.805  1.00  0.00    -0.020 A 
HETATM    3  C   UNL     1      26.818  43.140  52.120  1.00  0.00     0.043 A 
HETATM    4  C   UNL     1      26.544  44.037  51.079  1.00  0.00     0.030 A 
HETATM    5  C   UNL     1      26.700  43.659  49.742  1.00  0.00     0.003 A 
HETATM    6  C   UNL     1      27.069  42.359  49.424  1.00  0.00     0.018 A 
HETATM    7  C   UNL     1      27.305  41.433  50.446  1.00  0.00     0.040 A 
ENDROOT
BRANCH   3   8
HETATM    8  N   UNL     1      26.603  43.460  53.479  1.00  0.00    -0.309 N 
HETATM    9  C   UNL     1      27.219  44.266  54.379  1.00  0.00     0.321 C 
HETATM   10  N   UNL     1      28.476  44.703  54.115  1.00  0.00    -0.338 N 
HETATM   11  O   UNL     1      26.624  44.544  55.418  1.00  0.00    -0.247 OA
HETATM   12  H   UNL     1      29.058  44.035  53.632  1.00  0.00     0.164 HD
HETATM   13  H   UNL     1      25.746  43.114  53.890  1.00  0.00     0.170 HD
BRANCH  10  14
HETATM   14  C   UNL     1      29.142  45.520  55.106  1.00  0.00     0.167 C 
BRANCH  14  15
HETATM   15  C   UNL     1      30.077  44.681  55.899  1.00  0.00     0.009 A 
HETATM   16  C   UNL     1      30.583  44.951  57.203  1.00  0.00     0.060 A 
HETATM   17  C   UNL     1      30.292  46.115  58.076  1.00  0.00     0.073 C 
HETATM   18  N   UNL     1      31.426  43.999  57.617  1.00  0.00    -0.179 NA
HETATM   19  N   UNL     1      31.487  43.144  56.589  1.00  0.00    -0.282 N 
HETATM   20  H   UNL     1      32.097  42.337  56.674  1.00  0.00     0.189 HD
HETATM   21  C   UNL     1      30.705  43.502  55.528  1.00  0.00     0.034 A 
HETATM   22  C   UNL     1      30.650  42.697  54.287  1.00  0.00     0.070 C 
ENDBRANCH  14  15
ENDBRANCH  10  14
ENDBRANCH   3   8
BRANCH   7  23
HETATM   23  C   UNL     1      27.566  40.031  50.014  1.00  0.00     0.252 C 
HETATM   24  N   UNL     1      28.897  39.735  49.809  1.00  0.00    -0.349 N 
HETATM   25  H   UNL     1      29.567  40.421  50.136  1.00  0.00     0.163 HD
HETATM   26  O   UNL     1      26.640  39.239  49.926  1.00  0.00    -0.268 OA
BRANCH  24  27
HETATM   27  C   UNL     1      29.430  38.407  49.470  1.00  0.00     0.022 C 
HETATM   28  C   UNL     1      28.924  37.925  48.101  1.00  0.00     0.037 C 
HETATM   29  C   UNL     1      30.965  38.523  49.396  1.00  0.00     0.037 C 
HETATM   30  C   UNL     1      29.063  37.390  50.558  1.00  0.00     0.037 C 
ENDBRANCH  24  27
ENDBRANCH   7  23
TORSDOF 5
ENDMDL
MODEL 6
REMARK VINA RESULT:      -7.7     13.140     14.574
REMARK  5 active torsions:
REMARK  status: ('A' for Active; 'I' for Inactive)
REMARK    1  A    between atoms: C_3  and  N_4 
REMARK       I    between atoms: N_4  and  C_5 
REMARK       I    between atoms: C_5  and  N_6 
REMARK    2  A    between atoms: N_6  and  C_7 
REMARK    3  A    between atoms: C_7  and  C_8 
REMARK    4  A    between atoms: C_20  and  C_21 
REMARK       I    between atoms: C_21  and  N_22 
REMARK    5  A    between atoms: N_22  and  C_23 
ROOT
HETATM    1  C   UNL     1      35.147  49.943  41.234  1.00  0.00     0.052 C 
HETATM    2  C   UNL     1      34.289  50.612  42.282  1.00  0.00    -0.020 A 
HETATM    3  C   UNL     1      32.925  50.258  42.443  1.00  0.00     0.043 A 
HETATM    4  C   UNL     1      32.190  50.829  43.490  1.00  0.00     0.030 A 
HETATM    5  C   UNL     1      32.782  51.731  44.379  1.00  0.00     0.003 A 
HETATM    6  C   UNL     1      34.101  52.123  44.197  1.00  0.00     0.018 A 
HETATM    7  C   UNL     1      34.843  51.599  43.133  1.00  0.00     0.040 A 
ENDROOT
BRANCH   3   8
HETATM    8  N   UNL     1      32.344  49.401  41.482  1.00  0.00    -0.309 N 
HETATM    9  C   UNL     1      31.532  49.581  40.411  1.00  0.00     0.321 C 
HETATM   10  N   UNL     1      30.848  50.747  40.294  1.00  0.00    -0.338 N 
HETATM   11  O   UNL     1      31.422  48.662  39.601  1.00  0.00    -0.247 OA
HETATM   12  H   UNL     1      30.535  51.138  41.171  1.00  0.00     0.164 HD
HETATM   13  H   UNL     1      32.659  48.440  41.490  1.00  0.00     0.170 HD
BRANCH  10  14
HETATM   14  C   UNL     1      29.946  50.906  39.175  1.00  0.00     0.167 C 
BRANCH  14  15
HETATM   15  C   UNL     1      28.547  50.677  39.623  1.00  0.00     0.009 A 
HETATM   16  C   UNL     1      27.675  49.625  39.223  1.00  0.00     0.060 A 
HETATM   17  C   UNL     1      27.953  48.511  38.281  1.00  0.00     0.073 C 
HETATM   18  N   UNL     1      26.472  49.729  39.798  1.00  0.00    -0.179 NA
HETATM   19  N   UNL     1      26.556  50.844  40.535  1.00  0.00    -0.282 N 
HETATM   20  H   UNL     1      25.734  51.136  41.055  1.00  0.00     0.189 HD
HETATM   21  C   UNL     1      27.773  51.458  40.466  1.00  0.00     0.034 A 
HETATM   22  C   UNL     1      28.059  52.717  41.193  1.00  0.00     0.070 C 
ENDBRANCH  14  15
ENDBRANCH  10  14
ENDBRANCH   3   8
BRANCH   7  23
HETATM   23  C   UNL     1      36.203  52.175  42.934  1.00  0.00     0.252 C 
HETATM   24  N   UNL     1      36.256  53.212  42.026  1.00  0.00    -0.349 N 
HETATM   25  H   UNL     1      35.368  53.594  41.726  1.00  0.00     0.163 HD
HETATM   26  O   UNL     1      37.143  51.761  43.595  1.00  0.00    -0.268 OA
BRANCH  24  27
HETATM   27  C   UNL     1      37.452  54.010  41.716  1.00  0.00     0.022 C 
HETATM   28  C   UNL     1      38.579  53.141  41.135  1.00  0.00     0.037 C 
HETATM   29  C   UNL     1      37.057  55.052  40.652  1.00  0.00     0.037 C 
HETATM   30  C   UNL     1      37.944  54.745  42.970  1.00  0.00     0.037 C 
ENDBRANCH  24  27
ENDBRANCH   7  23
TORSDOF 5
ENDMDL
MODEL 7
REMARK VINA RESULT:      -7.5      2.096      8.862
REMARK  5 active torsions:
REMARK  status: ('A' for Active; 'I' for Inactive)
REMARK    1  A    between atoms: C_3  and  N_4 
REMARK       I    between atoms: N_4  and  C_5 
REMARK       I    between atoms: C_5  and  N_6 
REMARK    2  A    between atoms: N_6  and  C_7 
REMARK    3  A    between atoms: C_7  and  C_8 
REMARK    4  A    between atoms: C_20  and  C_21 
REMARK       I    between atoms: C_21  and  N_22 
REMARK    5  A    between atoms: N_22  and  C_23 
ROOT
HETATM    1  C   UNL     1      23.559  44.429  48.636  1.00  0.00     0.052 C 
HETATM    2  C   UNL     1      24.269  45.639  49.197  1.00  0.00    -0.020 A 
HETATM    3  C   UNL     1      25.484  45.503  49.917  1.00  0.00     0.043 A 
HETATM    4  C   UNL     1      26.162  46.655  50.335  1.00  0.00     0.030 A 
HETATM    5  C   UNL     1      25.667  47.930  50.045  1.00  0.00     0.003 A 
HETATM    6  C   UNL     1      24.452  48.071  49.387  1.00  0.00     0.018 A 
HETATM    7  C   UNL     1      23.735  46.935  48.998  1.00  0.00     0.040 A 
ENDROOT
BRANCH   3   8
HETATM    8  N   UNL     1      25.913  44.200  50.254  1.00  0.00    -0.309 N 
HETATM    9  C   UNL     1      26.357  43.605  51.389  1.00  0.00     0.321 C 
HETATM   10  N   UNL     1      26.776  44.385  52.417  1.00  0.00    -0.338 N 
HETATM   11  O   UNL     1      26.393  42.377  51.429  1.00  0.00    -0.247 OA
HETATM   12  H   UNL     1      27.247  45.232  52.136  1.00  0.00     0.164 HD
HETATM   13  H   UNL     1      25.780  43.488  49.548  1.00  0.00     0.170 HD
BRANCH  10  14
HETATM   14  C   UNL     1      27.294  43.739  53.603  1.00  0.00     0.167 C 
BRANCH  14  15
HETATM   15  C   UNL     1      28.000  44.736  54.448  1.00  0.00     0.009 A 
HETATM   16  C   UNL     1      29.270  44.589  55.077  1.00  0.00     0.060 A 
HETATM   17  C   UNL     1      30.186  43.423  55.031  1.00  0.00     0.073 C 
HETATM   18  N   UNL     1      29.601  45.672  55.789  1.00  0.00    -0.179 NA
HETATM   19  N   UNL     1      28.553  46.493  55.645  1.00  0.00    -0.282 N 
HETATM   20  H   UNL     1      28.577  47.386  56.127  1.00  0.00     0.189 HD
HETATM   21  C   UNL     1      27.560  45.985  54.858  1.00  0.00     0.034 A 
HETATM   22  C   UNL     1      26.308  46.731  54.595  1.00  0.00     0.070 C 
ENDBRANCH  14  15
ENDBRANCH  10  14
ENDBRANCH   3   8
BRANCH   7  23
HETATM   23  C   UNL     1      22.383  47.177  48.420  1.00  0.00     0.252 C 
HETATM   24  N   UNL     1      21.484  47.754  49.294  1.00  0.00    -0.349 N 
HETATM   25  H   UNL     1      21.865  48.113  50.160  1.00  0.00     0.163 HD
HETATM   26  O   UNL     1      22.167  46.922  47.245  1.00  0.00    -0.268 OA
BRANCH  24  27
HETATM   27  C   UNL     1      20.118  48.178  48.950  1.00  0.00     0.022 C 
HETATM   28  C   UNL     1      19.224  46.980  48.592  1.00  0.00     0.037 C 
HETATM   29  C   UNL     1      19.517  48.867  50.190  1.00  0.00     0.037 C 
HETATM   30  C   UNL     1      20.146  49.182  47.791  1.00  0.00     0.037 C 
ENDBRANCH  24  27
ENDBRANCH   7  23
TORSDOF 5
ENDMDL
MODEL 8
REMARK VINA RESULT:      -7.4     13.625     16.776
REMARK  5 active torsions:
REMARK  status: ('A' for Active; 'I' for Inactive)
REMARK    1  A    between atoms: C_3  and  N_4 
REMARK       I    between atoms: N_4  and  C_5 
REMARK       I    between atoms: C_5  and  N_6 
REMARK    2  A    between atoms: N_6  and  C_7 
REMARK    3  A    between atoms: C_7  and  C_8 
REMARK    4  A    between atoms: C_20  and  C_21 
REMARK       I    between atoms: C_21  and  N_22 
REMARK    5  A    between atoms: N_22  and  C_23 
ROOT
HETATM    1  C   UNL     1      33.581  50.862  40.651  1.00  0.00     0.052 C 
HETATM    2  C   UNL     1      33.198  51.230  42.065  1.00  0.00    -0.020 A 
HETATM    3  C   UNL     1      34.191  51.491  43.045  1.00  0.00     0.043 A 
HETATM    4  C   UNL     1      33.797  51.925  44.317  1.00  0.00     0.030 A 
HETATM    5  C   UNL     1      32.448  52.113  44.630  1.00  0.00     0.003 A 
HETATM    6  C   UNL     1      31.468  51.809  43.695  1.00  0.00     0.018 A 
HETATM    7  C   UNL     1      31.835  51.333  42.432  1.00  0.00     0.040 A 
ENDROOT
BRANCH   3   8
HETATM    8  N   UNL     1      35.537  51.219  42.714  1.00  0.00    -0.309 N 
HETATM    9  C   UNL     1      36.727  51.392  43.339  1.00  0.00     0.321 C 
HETATM   10  N   UNL     1      36.796  52.240  44.396  1.00  0.00    -0.338 N 
HETATM   11  O   UNL     1      37.710  50.796  42.902  1.00  0.00    -0.247 OA
HETATM   12  H   UNL     1      36.202  53.053  44.320  1.00  0.00     0.164 HD
HETATM   13  H   UNL     1      35.691  50.678  41.873  1.00  0.00     0.170 HD
BRANCH  10  14
HETATM   14  C   UNL     1      38.081  52.456  45.023  1.00  0.00     0.167 C 
BRANCH  14  15
HETATM   15  C   UNL     1      38.189  53.869  45.469  1.00  0.00     0.009 A 
HETATM   16  C   UNL     1      38.227  55.032  44.649  1.00  0.00     0.060 A 
HETATM   17  C   UNL     1      38.158  55.112  43.168  1.00  0.00     0.073 C 
HETATM   18  N   UNL     1      38.355  56.149  45.373  1.00  0.00    -0.179 NA
HETATM   19  N   UNL     1      38.427  55.715  46.637  1.00  0.00    -0.282 N 
HETATM   20  H   UNL     1      38.550  56.403  47.373  1.00  0.00     0.189 HD
HETATM   21  C   UNL     1      38.339  54.357  46.758  1.00  0.00     0.034 A 
HETATM   22  C   UNL     1      38.419  53.680  48.073  1.00  0.00     0.070 C 
ENDBRANCH  14  15
ENDBRANCH  10  14
ENDBRANCH   3   8
BRANCH   7  23
HETATM   23  C   UNL     1      30.719  50.906  41.542  1.00  0.00     0.252 C 
HETATM   24  N   UNL     1      30.210  51.910  40.744  1.00  0.00    -0.349 N 
HETATM   25  H   UNL     1      30.744  52.770  40.706  1.00  0.00     0.163 HD
HETATM   26  O   UNL     1      30.369  49.736  41.520  1.00  0.00    -0.268 OA
BRANCH  24  27
HETATM   27  C   UNL     1      29.173  51.735  39.716  1.00  0.00     0.022 C 
HETATM   28  C   UNL     1      27.830  51.310  40.332  1.00  0.00     0.037 C 
HETATM   29  C   UNL     1      28.968  53.095  39.022  1.00  0.00     0.037 C 
HETATM   30  C   UNL     1      29.624  50.708  38.670  1.00  0.00     0.037 C 
ENDBRANCH  24  27
ENDBRANCH   7  23
TORSDOF 5
ENDMDL
MODEL 9
REMARK VINA RESULT:      -7.4      4.557      8.025
REMARK  5 active torsions:
REMARK  status: ('A' for Active; 'I' for Inactive)
REMARK    1  A    between atoms: C_3  and  N_4 
REMARK       I    between atoms: N_4  and  C_5 
REMARK       I    between atoms: C_5  and  N_6 
REMARK    2  A    between atoms: N_6  and  C_7 
REMARK    3  A    between atoms: C_7  and  C_8 
REMARK    4  A    between atoms: C_20  and  C_21 
REMARK       I    between atoms: C_21  and  N_22 
REMARK    5  A    between atoms: N_22  and  C_23 
ROOT
HETATM    1  C   UNL     1      27.027  43.676  50.210  1.00  0.00     0.052 C 
HETATM    2  C   UNL     1      25.652  43.131  49.901  1.00  0.00    -0.020 A 
HETATM    3  C   UNL     1      24.486  43.763  50.405  1.00  0.00     0.043 A 
HETATM    4  C   UNL     1      23.228  43.286  50.016  1.00  0.00     0.030 A 
HETATM    5  C   UNL     1      23.106  42.209  49.133  1.00  0.00     0.003 A 
HETATM    6  C   UNL     1      24.240  41.551  48.677  1.00  0.00     0.018 A 
HETATM    7  C   UNL     1      25.507  41.982  49.087  1.00  0.00     0.040 A 
ENDROOT
BRANCH   3   8
HETATM    8  N   UNL     1      24.650  44.800  51.350  1.00  0.00    -0.309 N 
HETATM    9  C   UNL     1      25.200  44.886  52.587  1.00  0.00     0.321 C 
HETATM   10  N   UNL     1      25.433  43.744  53.282  1.00  0.00    -0.338 N 
HETATM   11  O   UNL     1      25.435  46.002  53.046  1.00  0.00    -0.247 OA
HETATM   12  H   UNL     1      24.744  43.020  53.142  1.00  0.00     0.164 HD
HETATM   13  H   UNL     1      24.412  45.732  51.038  1.00  0.00     0.170 HD
BRANCH  10  14
HETATM   14  C   UNL     1      25.972  43.851  54.620  1.00  0.00     0.167 C 
BRANCH  14  15
HETATM   15  C   UNL     1      27.455  43.768  54.570  1.00  0.00     0.009 A 
HETATM   16  C   UNL     1      28.388  44.781  54.934  1.00  0.00     0.060 A 
HETATM   17  C   UNL     1      28.107  46.143  55.452  1.00  0.00     0.073 C 
HETATM   18  N   UNL     1      29.651  44.386  54.743  1.00  0.00    -0.179 NA
HETATM   19  N   UNL     1      29.537  43.150  54.241  1.00  0.00    -0.282 N 
HETATM   20  H   UNL     1      30.388  42.653  53.996  1.00  0.00     0.189 HD
HETATM   21  C   UNL     1      28.245  42.728  54.108  1.00  0.00     0.034 A 
HETATM   22  C   UNL     1      27.909  41.398  53.551  1.00  0.00     0.070 C 
ENDBRANCH  14  15
ENDBRANCH  10  14
ENDBRANCH   3   8
BRANCH   7  23
HETATM   23  C   UNL     1      26.658  41.138  48.658  1.00  0.00     0.252 C 
HETATM   24  N   UNL     1      26.639  39.851  49.154  1.00  0.00    -0.349 N 
HETATM   25  H   UNL     1      25.780  39.553  49.600  1.00  0.00     0.163 HD
HETATM   26  O   UNL     1      27.486  41.587  47.881  1.00  0.00    -0.268 OA
BRANCH  24  27
HETATM   27  C   UNL     1      27.602  38.794  48.812  1.00  0.00     0.022 C 
HETATM   28  C   UNL     1      29.007  39.111  49.352  1.00  0.00     0.037 C 
HETATM   29  C   UNL     1      27.121  37.490  49.476  1.00  0.00     0.037 C 
HETATM   30  C   UNL     1      27.653  38.587  47.293  1.00  0.00     0.037 C 
ENDBRANCH  24  27
ENDBRANCH   7  23
TORSDOF 5
ENDMDL
MODEL 10
REMARK VINA RESULT:      -7.3      6.096      9.469
REMARK  5 active torsions:
REMARK  status: ('A' for Active; 'I' for Inactive)
REMARK    1  A    between atoms: C_3  and  N_4 
REMARK       I    between atoms: N_4  and  C_5 
REMARK       I    between atoms: C_5  and  N_6 
REMARK    2  A    between atoms: N_6  and  C_7 
REMARK    3  A    between atoms: C_7  and  C_8 
REMARK    4  A    between atoms: C_20  and  C_21 
REMARK       I    between atoms: C_21  and  N_22 
REMARK    5  A    between atoms: N_22  and  C_23 
ROOT
HETATM    1  C   UNL     1      27.926  40.798  52.409  1.00  0.00     0.052 C 
HETATM    2  C   UNL     1      27.302  41.732  51.398  1.00  0.00    -0.020 A 
HETATM    3  C   UNL     1      26.670  42.934  51.808  1.00  0.00     0.043 A 
HETATM    4  C   UNL     1      26.191  43.820  50.834  1.00  0.00     0.030 A 
HETATM    5  C   UNL     1      26.337  43.543  49.472  1.00  0.00     0.003 A 
HETATM    6  C   UNL     1      26.906  42.344  49.063  1.00  0.00     0.018 A 
HETATM    7  C   UNL     1      27.352  41.424  50.017  1.00  0.00     0.040 A 
ENDROOT
BRANCH   3   8
HETATM    8  N   UNL     1      26.477  43.143  53.191  1.00  0.00    -0.309 N 
HETATM    9  C   UNL     1      26.987  44.004  54.107  1.00  0.00     0.321 C 
HETATM   10  N   UNL     1      28.127  44.678  53.811  1.00  0.00    -0.338 N 
HETATM   11  O   UNL     1      26.410  44.118  55.187  1.00  0.00    -0.247 OA
HETATM   12  H   UNL     1      28.793  44.153  53.263  1.00  0.00     0.164 HD
HETATM   13  H   UNL     1      25.722  42.626  53.622  1.00  0.00     0.170 HD
BRANCH  10  14
HETATM   14  C   UNL     1      28.688  45.554  54.814  1.00  0.00     0.167 C 
BRANCH  14  15
HETATM   15  C   UNL     1      29.725  44.827  55.592  1.00  0.00     0.009 A 
HETATM   16  C   UNL     1      30.474  43.689  55.176  1.00  0.00     0.060 A 
HETATM   17  C   UNL     1      30.408  42.972  53.878  1.00  0.00     0.073 C 
HETATM   18  N   UNL     1      31.308  43.266  56.132  1.00  0.00    -0.179 NA
HETATM   19  N   UNL     1      31.083  44.098  57.157  1.00  0.00    -0.282 N 
HETATM   20  H   UNL     1      31.602  43.949  58.016  1.00  0.00     0.189 HD
HETATM   21  C   UNL     1      30.140  45.050  56.895  1.00  0.00     0.034 A 
HETATM   22  C   UNL     1      29.734  46.051  57.908  1.00  0.00     0.070 C 
ENDBRANCH  14  15
ENDBRANCH  10  14
ENDBRANCH   3   8
BRANCH   7  23
HETATM   23  C   UNL     1      27.825  40.112  49.492  1.00  0.00     0.252 C 
HETATM   24  N   UNL     1      26.830  39.318  48.959  1.00  0.00    -0.349 N 
HETATM   25  H   UNL     1      25.932  39.760  48.813  1.00  0.00     0.163 HD
HETATM   26  O   UNL     1      29.017  39.844  49.506  1.00  0.00    -0.268 OA
BRANCH  24  27
HETATM   27  C   UNL     1      27.041  38.022  48.296  1.00  0.00     0.022 C 
HETATM   28  C   UNL     1      27.224  36.887  49.316  1.00  0.00     0.037 C 
HETATM   29  C   UNL     1      25.783  37.714  47.462  1.00  0.00     0.037 C 
HETATM   30  C   UNL     1      28.252  38.092  47.359  1.00  0.00     0.037 C 
ENDBRANCH  24  27
ENDBRANCH   7  23
TORSDOF 5
ENDMDL
