MODEL 1
REMARK VINA RESULT:      -8.9      0.000      0.000
REMARK  2 active torsions:
REMARK  status: ('A' for Active; 'I' for Inactive)
REMARK    1  A    between atoms: N_9  and  N_11 
REMARK       I    between atoms: N_11  and  C_12 
REMARK    2  A    between atoms: C_12  and  C_13 
ROOT
HETATM    1  C   UNL     1      26.694  44.569  49.952  1.00  0.00     0.033 C 
HETATM    2  C   UNL     1      26.865  43.071  50.207  1.00  0.00     0.086 C 
HETATM    3  N   UNL     1      26.555  42.300  48.988  1.00  0.00    -0.379 N 
HETATM    4  C   UNL     1      25.221  42.365  48.390  1.00  0.00     0.150 C 
HETATM    5  C   UNL     1      27.134  41.019  48.866  1.00  0.00     0.052 A 
HETATM    6  C   UNL     1      27.008  39.983  49.826  1.00  0.00     0.040 A 
HETATM    7  N   UNL     1      26.249  40.149  51.036  1.00  0.00    -0.246 NA
HETATM    8  C   UNL     1      26.521  41.300  51.839  1.00  0.00     0.077 C 
HETATM    9  N   UNL     1      27.275  41.085  52.904  1.00  0.00    -0.291 N 
HETATM   10  H   UNL     1      27.547  40.103  53.035  1.00  0.00     0.188 HD
HETATM   11  C   UNL     1      26.040  42.630  51.421  1.00  0.00     0.096 C 
HETATM   12  C   UNL     1      27.827  40.734  47.678  1.00  0.00     0.031 A 
HETATM   13  C   UNL     1      28.378  39.473  47.442  1.00  0.00     0.002 A 
HETATM   14  C   UNL     1      28.235  38.462  48.388  1.00  0.00     0.002 A 
HETATM   15  C   UNL     1      27.545  38.714  49.572  1.00  0.00     0.026 A 
HETATM   16  H   UNL     1      25.315  40.287  50.637  1.00  0.00     0.135 HD
ENDROOT
BRANCH   9  17
HETATM   17  N   UNL     1      27.727  41.977  53.771  1.00  0.00    -0.265 N 
HETATM   18  C   UNL     1      29.047  42.375  53.636  1.00  0.00     0.270 C 
HETATM   19  O   UNL     1      29.783  41.923  52.764  1.00  0.00    -0.266 OA
HETATM   20  H   UNL     1      27.097  42.432  54.418  1.00  0.00     0.190 HD
BRANCH  18  21
HETATM   21  C   UNL     1      29.517  43.423  54.580  1.00  0.00     0.033 A 
HETATM   22  C   UNL     1      30.663  43.256  55.371  1.00  0.00     0.017 A 
HETATM   23  C   UNL     1      31.049  44.262  56.258  1.00  0.00     0.001 A 
HETATM   24  C   UNL     1      30.304  45.438  56.351  1.00  0.00     0.000 A 
HETATM   25  C   UNL     1      29.177  45.617  55.550  1.00  0.00     0.001 A 
HETATM   26  C   UNL     1      28.786  44.614  54.662  1.00  0.00     0.017 A 
ENDBRANCH  18  21
ENDBRANCH   9  17
TORSDOF 2
ENDMDL
MODEL 2
REMARK VINA RESULT:      -8.7      3.739      4.161
REMARK  2 active torsions:
REMARK  status: ('A' for Active; 'I' for Inactive)
REMARK    1  A    between atoms: N_9  and  N_11 
REMARK       I    between atoms: N_11  and  C_12 
REMARK    2  A    between atoms: C_12  and  C_13 
ROOT
HETATM    1  C   UNL     1      26.362  47.681  49.768  1.00  0.00     0.033 C 
HETATM    2  C   UNL     1      25.589  46.405  50.108  1.00  0.00     0.086 C 
HETATM    3  N   UNL     1      24.408  46.268  49.234  1.00  0.00    -0.379 N 
HETATM    4  C   UNL     1      23.355  47.284  49.246  1.00  0.00     0.150 C 
HETATM    5  C   UNL     1      23.895  44.968  49.038  1.00  0.00     0.052 A 
HETATM    6  C   UNL     1      23.507  44.089  50.081  1.00  0.00     0.040 A 
HETATM    7  N   UNL     1      23.596  44.461  51.468  1.00  0.00    -0.246 NA
HETATM    8  C   UNL     1      24.840  44.987  51.937  1.00  0.00     0.077 C 
HETATM    9  N   UNL     1      25.600  44.138  52.606  1.00  0.00    -0.291 N 
HETATM   10  H   UNL     1      25.183  43.208  52.730  1.00  0.00     0.188 HD
HETATM   11  C   UNL     1      25.238  46.366  51.600  1.00  0.00     0.096 C 
HETATM   12  C   UNL     1      23.694  44.547  47.714  1.00  0.00     0.031 A 
HETATM   13  C   UNL     1      23.131  43.302  47.424  1.00  0.00     0.002 A 
HETATM   14  C   UNL     1      22.744  42.455  48.458  1.00  0.00     0.002 A 
HETATM   15  C   UNL     1      22.923  42.851  49.783  1.00  0.00     0.026 A 
HETATM   16  H   UNL     1      22.927  45.237  51.482  1.00  0.00     0.135 HD
ENDROOT
BRANCH   9  17
HETATM   17  N   UNL     1      26.815  44.344  53.089  1.00  0.00    -0.265 N 
HETATM   18  C   UNL     1      27.051  43.943  54.394  1.00  0.00     0.270 C 
HETATM   19  O   UNL     1      26.182  43.429  55.090  1.00  0.00    -0.266 OA
HETATM   20  H   UNL     1      27.562  44.665  52.487  1.00  0.00     0.190 HD
BRANCH  18  21
HETATM   21  C   UNL     1      28.438  44.127  54.897  1.00  0.00     0.033 A 
HETATM   22  C   UNL     1      29.430  43.151  54.727  1.00  0.00     0.017 A 
HETATM   23  C   UNL     1      30.712  43.364  55.238  1.00  0.00     0.001 A 
HETATM   24  C   UNL     1      31.010  44.550  55.909  1.00  0.00     0.000 A 
HETATM   25  C   UNL     1      30.032  45.532  56.060  1.00  0.00     0.001 A 
HETATM   26  C   UNL     1      28.749  45.325  55.551  1.00  0.00     0.017 A 
ENDBRANCH  18  21
ENDBRANCH   9  17
TORSDOF 2
ENDMDL
MODEL 3
REMARK VINA RESULT:      -8.6      3.600      6.798
REMARK  2 active torsions:
REMARK  status: ('A' for Active; 'I' for Inactive)
REMARK    1  A    between atoms: N_9  and  N_11 
REMARK       I    between atoms: N_11  and  C_12 
REMARK    2  A    between atoms: C_12  and  C_13 
ROOT
HETATM    1  C   UNL     1      26.620  42.604  48.988  1.00  0.00     0.033 C 
HETATM    2  C   UNL     1      26.675  43.117  50.428  1.00  0.00     0.086 C 
HETATM    3  N   UNL     1      27.526  42.242  51.256  1.00  0.00    -0.379 N 
HETATM    4  C   UNL     1      27.181  40.832  51.440  1.00  0.00     0.150 C 
HETATM    5  C   UNL     1      28.104  42.807  52.413  1.00  0.00     0.052 A 
HETATM    6  C   UNL     1      27.377  43.455  53.443  1.00  0.00     0.040 A 
HETATM    7  N   UNL     1      25.945  43.587  53.402  1.00  0.00    -0.246 NA
HETATM    8  C   UNL     1      25.360  44.120  52.212  1.00  0.00     0.077 C 
HETATM    9  N   UNL     1      25.000  45.391  52.274  1.00  0.00    -0.291 N 
HETATM   10  H   UNL     1      25.162  45.828  53.189  1.00  0.00     0.188 HD
HETATM   11  C   UNL     1      25.262  43.292  50.996  1.00  0.00     0.096 C 
HETATM   12  C   UNL     1      29.490  42.654  52.583  1.00  0.00     0.031 A 
HETATM   13  C   UNL     1      30.139  43.124  53.726  1.00  0.00     0.002 A 
HETATM   14  C   UNL     1      29.409  43.747  54.735  1.00  0.00     0.002 A 
HETATM   15  C   UNL     1      28.031  43.904  54.598  1.00  0.00     0.026 A 
HETATM   16  H   UNL     1      25.679  42.598  53.440  1.00  0.00     0.135 HD
ENDROOT
BRANCH   9  17
HETATM   17  N   UNL     1      24.501  46.141  51.305  1.00  0.00    -0.265 N 
HETATM   18  C   UNL     1      25.209  47.280  50.960  1.00  0.00     0.270 C 
HETATM   19  O   UNL     1      26.250  47.602  51.525  1.00  0.00    -0.266 OA
HETATM   20  H   UNL     1      23.707  45.823  50.764  1.00  0.00     0.190 HD
BRANCH  18  21
HETATM   21  C   UNL     1      24.665  48.075  49.828  1.00  0.00     0.033 A 
HETATM   22  C   UNL     1      25.420  49.061  49.177  1.00  0.00     0.017 A 
HETATM   23  C   UNL     1      24.854  49.795  48.133  1.00  0.00     0.001 A 
HETATM   24  C   UNL     1      23.542  49.543  47.730  1.00  0.00     0.000 A 
HETATM   25  C   UNL     1      22.796  48.548  48.361  1.00  0.00     0.001 A 
HETATM   26  C   UNL     1      23.357  47.811  49.405  1.00  0.00     0.017 A 
ENDBRANCH  18  21
ENDBRANCH   9  17
TORSDOF 2
ENDMDL
MODEL 4
REMARK VINA RESULT:      -8.2      8.596     11.029
REMARK  2 active torsions:
REMARK  status: ('A' for Active; 'I' for Inactive)
REMARK    1  A    between atoms: N_9  and  N_11 
REMARK       I    between atoms: N_11  and  C_12 
REMARK    2  A    between atoms: C_12  and  C_13 
ROOT
HETATM    1  C   UNL     1      19.420  52.349  48.465  1.00  0.00     0.033 C 
HETATM    2  C   UNL     1      19.216  50.836  48.558  1.00  0.00     0.086 C 
HETATM    3  N   UNL     1      17.798  50.491  48.342  1.00  0.00    -0.379 N 
HETATM    4  C   UNL     1      16.766  51.002  49.244  1.00  0.00     0.150 C 
HETATM    5  C   UNL     1      17.511  49.188  47.883  1.00  0.00     0.052 A 
HETATM    6  C   UNL     1      17.937  47.997  48.522  1.00  0.00     0.040 A 
HETATM    7  N   UNL     1      18.713  48.013  49.733  1.00  0.00    -0.246 NA
HETATM    8  C   UNL     1      19.886  48.830  49.760  1.00  0.00     0.077 C 
HETATM    9  N   UNL     1      21.030  48.188  49.598  1.00  0.00    -0.291 N 
HETATM   10  H   UNL     1      20.931  47.171  49.501  1.00  0.00     0.188 HD
HETATM   11  C   UNL     1      19.769  50.295  49.881  1.00  0.00     0.096 C 
HETATM   12  C   UNL     1      16.687  49.069  46.751  1.00  0.00     0.031 A 
HETATM   13  C   UNL     1      16.298  47.820  46.263  1.00  0.00     0.002 A 
HETATM   14  C   UNL     1      16.714  46.659  46.909  1.00  0.00     0.002 A 
HETATM   15  C   UNL     1      17.524  46.747  48.040  1.00  0.00     0.026 A 
HETATM   16  H   UNL     1      18.037  48.453  50.365  1.00  0.00     0.135 HD
ENDROOT
BRANCH   9  17
HETATM   17  N   UNL     1      22.245  48.705  49.517  1.00  0.00    -0.265 N 
HETATM   18  C   UNL     1      23.287  47.831  49.253  1.00  0.00     0.270 C 
HETATM   19  O   UNL     1      23.110  46.625  49.108  1.00  0.00    -0.266 OA
HETATM   20  H   UNL     1      22.382  49.708  49.526  1.00  0.00     0.190 HD
BRANCH  18  21
HETATM   21  C   UNL     1      24.635  48.439  49.105  1.00  0.00     0.033 A 
HETATM   22  C   UNL     1      24.855  49.590  48.333  1.00  0.00     0.017 A 
HETATM   23  C   UNL     1      26.145  50.109  48.210  1.00  0.00     0.001 A 
HETATM   24  C   UNL     1      27.214  49.491  48.859  1.00  0.00     0.000 A 
HETATM   25  C   UNL     1      26.995  48.360  49.645  1.00  0.00     0.001 A 
HETATM   26  C   UNL     1      25.708  47.837  49.773  1.00  0.00     0.017 A 
ENDBRANCH  18  21
ENDBRANCH   9  17
TORSDOF 2
ENDMDL
MODEL 5
REMARK VINA RESULT:      -8.1      7.429     10.041
REMARK  2 active torsions:
REMARK  status: ('A' for Active; 'I' for Inactive)
REMARK    1  A    between atoms: N_9  and  N_11 
REMARK       I    between atoms: N_11  and  C_12 
REMARK    2  A    between atoms: C_12  and  C_13 
ROOT
HETATM    1  C   UNL     1      19.680  45.801  48.187  1.00  0.00     0.033 C 
HETATM    2  C   UNL     1      20.085  47.245  48.487  1.00  0.00     0.086 C 
HETATM    3  N   UNL     1      19.045  48.182  48.020  1.00  0.00    -0.379 N 
HETATM    4  C   UNL     1      18.688  48.246  46.602  1.00  0.00     0.150 C 
HETATM    5  C   UNL     1      18.983  49.445  48.645  1.00  0.00     0.052 A 
HETATM    6  C   UNL     1      20.071  50.349  48.746  1.00  0.00     0.040 A 
HETATM    7  N   UNL     1      21.366  50.051  48.194  1.00  0.00    -0.246 NA
HETATM    8  C   UNL     1      21.959  48.795  48.531  1.00  0.00     0.077 C 
HETATM    9  N   UNL     1      22.893  48.839  49.466  1.00  0.00    -0.291 N 
HETATM   10  H   UNL     1      23.094  49.784  49.814  1.00  0.00     0.188 HD
HETATM   11  C   UNL     1      21.471  47.551  47.908  1.00  0.00     0.096 C 
HETATM   12  C   UNL     1      17.736  49.860  49.140  1.00  0.00     0.031 A 
HETATM   13  C   UNL     1      17.565  51.120  49.718  1.00  0.00     0.002 A 
HETATM   14  C   UNL     1      18.639  52.001  49.798  1.00  0.00     0.002 A 
HETATM   15  C   UNL     1      19.886  51.620  49.305  1.00  0.00     0.026 A 
HETATM   16  H   UNL     1      21.123  50.002  47.200  1.00  0.00     0.135 HD
ENDROOT
BRANCH   9  17
HETATM   17  N   UNL     1      23.549  47.825  50.006  1.00  0.00    -0.265 N 
HETATM   18  C   UNL     1      24.932  47.865  49.947  1.00  0.00     0.270 C 
HETATM   19  O   UNL     1      25.540  48.788  49.411  1.00  0.00    -0.266 OA
HETATM   20  H   UNL     1      23.059  47.120  50.543  1.00  0.00     0.190 HD
BRANCH  18  21
HETATM   21  C   UNL     1      25.651  46.747  50.612  1.00  0.00     0.033 A 
HETATM   22  C   UNL     1      26.354  45.774  49.887  1.00  0.00     0.017 A 
HETATM   23  C   UNL     1      26.995  44.733  50.560  1.00  0.00     0.001 A 
HETATM   24  C   UNL     1      26.946  44.663  51.952  1.00  0.00     0.000 A 
HETATM   25  C   UNL     1      26.268  45.641  52.677  1.00  0.00     0.001 A 
HETATM   26  C   UNL     1      25.625  46.685  52.011  1.00  0.00     0.017 A 
ENDBRANCH  18  21
ENDBRANCH   9  17
TORSDOF 2
ENDMDL
MODEL 6
REMARK VINA RESULT:      -7.9      2.341      4.144
REMARK  2 active torsions:
REMARK  status: ('A' for Active; 'I' for Inactive)
REMARK    1  A    between atoms: N_9  and  N_11 
REMARK       I    between atoms: N_11  and  C_12 
REMARK    2  A    between atoms: C_12  and  C_13 
ROOT
HETATM    1  C   UNL     1      28.474  40.711  51.694  1.00  0.00     0.033 C 
HETATM    2  C   UNL     1      27.617  41.976  51.634  1.00  0.00     0.086 C 
HETATM    3  N   UNL     1      26.713  41.934  50.468  1.00  0.00    -0.379 N 
HETATM    4  C   UNL     1      27.257  41.861  49.112  1.00  0.00     0.150 C 
HETATM    5  C   UNL     1      25.537  42.711  50.532  1.00  0.00     0.052 A 
HETATM    6  C   UNL     1      25.504  44.104  50.792  1.00  0.00     0.040 A 
HETATM    7  N   UNL     1      26.702  44.870  51.010  1.00  0.00    -0.246 NA
HETATM    8  C   UNL     1      27.635  44.384  51.978  1.00  0.00     0.077 C 
HETATM    9  N   UNL     1      27.602  44.989  53.153  1.00  0.00    -0.291 N 
HETATM   10  H   UNL     1      26.924  45.757  53.211  1.00  0.00     0.188 HD
HETATM   11  C   UNL     1      28.497  43.230  51.665  1.00  0.00     0.096 C 
HETATM   12  C   UNL     1      24.322  42.065  50.250  1.00  0.00     0.031 A 
HETATM   13  C   UNL     1      23.114  42.766  50.226  1.00  0.00     0.002 A 
HETATM   14  C   UNL     1      23.099  44.136  50.471  1.00  0.00     0.002 A 
HETATM   15  C   UNL     1      24.291  44.805  50.745  1.00  0.00     0.026 A 
HETATM   16  H   UNL     1      27.147  44.759  50.094  1.00  0.00     0.135 HD
ENDROOT
BRANCH   9  17
HETATM   17  N   UNL     1      28.306  44.697  54.235  1.00  0.00    -0.265 N 
HETATM   18  C   UNL     1      28.824  45.759  54.957  1.00  0.00     0.270 C 
HETATM   19  O   UNL     1      28.658  46.927  54.617  1.00  0.00    -0.266 OA
HETATM   20  H   UNL     1      28.352  43.746  54.579  1.00  0.00     0.190 HD
BRANCH  18  21
HETATM   21  C   UNL     1      29.558  45.412  56.202  1.00  0.00     0.033 A 
HETATM   22  C   UNL     1      29.261  46.010  57.435  1.00  0.00     0.017 A 
HETATM   23  C   UNL     1      29.996  45.665  58.571  1.00  0.00     0.001 A 
HETATM   24  C   UNL     1      31.018  44.719  58.484  1.00  0.00     0.000 A 
HETATM   25  C   UNL     1      31.301  44.107  57.263  1.00  0.00     0.001 A 
HETATM   26  C   UNL     1      30.570  44.448  56.125  1.00  0.00     0.017 A 
ENDBRANCH  18  21
ENDBRANCH   9  17
TORSDOF 2
ENDMDL
MODEL 7
REMARK VINA RESULT:      -7.8     15.888     18.150
REMARK  2 active torsions:
REMARK  status: ('A' for Active; 'I' for Inactive)
REMARK    1  A    between atoms: N_9  and  N_11 
REMARK       I    between atoms: N_11  and  C_12 
REMARK    2  A    between atoms: C_12  and  C_13 
ROOT
HETATM    1  C   UNL     1      36.170  44.579  67.301  1.00  0.00     0.033 C 
HETATM    2  C   UNL     1      36.818  45.514  66.277  1.00  0.00     0.086 C 
HETATM    3  N   UNL     1      36.668  46.921  66.695  1.00  0.00    -0.379 N 
HETATM    4  C   UNL     1      35.337  47.508  66.857  1.00  0.00     0.150 C 
HETATM    5  C   UNL     1      37.604  47.849  66.194  1.00  0.00     0.052 A 
HETATM    6  C   UNL     1      37.882  48.051  64.818  1.00  0.00     0.040 A 
HETATM    7  N   UNL     1      37.205  47.314  63.785  1.00  0.00    -0.246 NA
HETATM    8  C   UNL     1      37.169  45.889  63.900  1.00  0.00     0.077 C 
HETATM    9  N   UNL     1      38.033  45.235  63.142  1.00  0.00    -0.291 N 
HETATM   10  H   UNL     1      38.605  45.840  62.541  1.00  0.00     0.188 HD
HETATM   11  C   UNL     1      36.268  45.244  64.873  1.00  0.00     0.096 C 
HETATM   12  C   UNL     1      38.256  48.675  67.124  1.00  0.00     0.031 A 
HETATM   13  C   UNL     1      39.152  49.666  66.715  1.00  0.00     0.002 A 
HETATM   14  C   UNL     1      39.404  49.861  65.361  1.00  0.00     0.002 A 
HETATM   15  C   UNL     1      38.764  49.062  64.414  1.00  0.00     0.026 A 
HETATM   16  H   UNL     1      36.247  47.643  63.937  1.00  0.00     0.135 HD
ENDROOT
BRANCH   9  17
HETATM   17  N   UNL     1      38.252  43.931  63.103  1.00  0.00    -0.265 N 
HETATM   18  C   UNL     1      39.505  43.490  63.494  1.00  0.00     0.270 C 
HETATM   19  O   UNL     1      40.390  44.261  63.853  1.00  0.00    -0.266 OA
HETATM   20  H   UNL     1      37.495  43.286  62.915  1.00  0.00     0.190 HD
BRANCH  18  21
HETATM   21  C   UNL     1      39.711  42.017  63.503  1.00  0.00     0.033 A 
HETATM   22  C   UNL     1      39.146  41.179  62.531  1.00  0.00     0.017 A 
HETATM   23  C   UNL     1      39.353  39.799  62.597  1.00  0.00     0.001 A 
HETATM   24  C   UNL     1      40.127  39.255  63.621  1.00  0.00     0.000 A 
HETATM   25  C   UNL     1      40.709  40.089  64.576  1.00  0.00     0.001 A 
HETATM   26  C   UNL     1      40.506  41.468  64.516  1.00  0.00     0.017 A 
ENDBRANCH  18  21
ENDBRANCH   9  17
TORSDOF 2
ENDMDL
MODEL 8
REMARK VINA RESULT:      -7.7     13.199     14.713
REMARK  2 active torsions:
REMARK  status: ('A' for Active; 'I' for Inactive)
REMARK    1  A    between atoms: N_9  and  N_11 
REMARK       I    between atoms: N_11  and  C_12 
REMARK    2  A    between atoms: C_12  and  C_13 
ROOT
HETATM    1  C   UNL     1      30.819  53.864  40.945  1.00  0.00     0.033 C 
HETATM    2  C   UNL     1      31.207  52.423  41.281  1.00  0.00     0.086 C 
HETATM    3  N   UNL     1      30.201  51.480  40.755  1.00  0.00    -0.379 N 
HETATM    4  C   UNL     1      28.813  51.546  41.215  1.00  0.00     0.150 C 
HETATM    5  C   UNL     1      30.621  50.156  40.508  1.00  0.00     0.052 A 
HETATM    6  C   UNL     1      31.239  49.315  41.466  1.00  0.00     0.040 A 
HETATM    7  N   UNL     1      31.490  49.746  42.816  1.00  0.00    -0.246 NA
HETATM    8  C   UNL     1      32.164  50.993  43.001  1.00  0.00     0.077 C 
HETATM    9  N   UNL     1      33.450  50.906  43.294  1.00  0.00    -0.291 N 
HETATM   10  H   UNL     1      33.797  49.943  43.380  1.00  0.00     0.188 HD
HETATM   11  C   UNL     1      31.448  52.264  42.786  1.00  0.00     0.096 C 
HETATM   12  C   UNL     1      30.343  49.617  39.241  1.00  0.00     0.031 A 
HETATM   13  C   UNL     1      30.664  48.295  38.926  1.00  0.00     0.002 A 
HETATM   14  C   UNL     1      31.259  47.477  39.882  1.00  0.00     0.002 A 
HETATM   15  C   UNL     1      31.538  47.982  41.151  1.00  0.00     0.026 A 
HETATM   16  H   UNL     1      30.526  49.886  43.134  1.00  0.00     0.135 HD
ENDROOT
BRANCH   9  17
HETATM   17  N   UNL     1      34.315  51.896  43.450  1.00  0.00    -0.265 N 
HETATM   18  C   UNL     1      35.606  51.683  42.995  1.00  0.00     0.270 C 
HETATM   19  O   UNL     1      35.954  50.626  42.479  1.00  0.00    -0.266 OA
HETATM   20  H   UNL     1      34.007  52.804  43.772  1.00  0.00     0.190 HD
BRANCH  18  21
HETATM   21  C   UNL     1      36.545  52.828  43.123  1.00  0.00     0.033 A 
HETATM   22  C   UNL     1      37.120  53.451  42.007  1.00  0.00     0.017 A 
HETATM   23  C   UNL     1      38.014  54.510  42.183  1.00  0.00     0.001 A 
HETATM   24  C   UNL     1      38.328  54.955  43.467  1.00  0.00     0.000 A 
HETATM   25  C   UNL     1      37.740  54.352  44.579  1.00  0.00     0.001 A 
HETATM   26  C   UNL     1      36.846  53.294  44.409  1.00  0.00     0.017 A 
ENDBRANCH  18  21
ENDBRANCH   9  17
TORSDOF 2
ENDMDL
MODEL 9
REMARK VINA RESULT:      -7.4      2.263      7.337
REMARK  2 active torsions:
REMARK  status: ('A' for Active; 'I' for Inactive)
REMARK    1  A    between atoms: N_9  and  N_11 
REMARK       I    between atoms: N_11  and  C_12 
REMARK    2  A    between atoms: C_12  and  C_13 
ROOT
HETATM    1  C   UNL     1      31.071  43.680  55.073  1.00  0.00     0.033 C 
HETATM    2  C   UNL     1      29.619  43.952  54.677  1.00  0.00     0.086 C 
HETATM    3  N   UNL     1      29.092  45.118  55.413  1.00  0.00    -0.379 N 
HETATM    4  C   UNL     1      29.020  45.100  56.874  1.00  0.00     0.150 C 
HETATM    5  C   UNL     1      28.013  45.817  54.832  1.00  0.00     0.052 A 
HETATM    6  C   UNL     1      26.786  45.224  54.441  1.00  0.00     0.040 A 
HETATM    7  N   UNL     1      26.523  43.821  54.617  1.00  0.00    -0.246 NA
HETATM    8  C   UNL     1      27.497  42.896  54.127  1.00  0.00     0.077 C 
HETATM    9  N   UNL     1      27.206  42.321  52.973  1.00  0.00    -0.291 N 
HETATM   10  H   UNL     1      26.295  42.594  52.586  1.00  0.00     0.188 HD
HETATM   11  C   UNL     1      28.763  42.694  54.856  1.00  0.00     0.096 C 
HETATM   12  C   UNL     1      28.143  47.209  54.697  1.00  0.00     0.031 A 
HETATM   13  C   UNL     1      27.103  47.992  54.192  1.00  0.00     0.002 A 
HETATM   14  C   UNL     1      25.900  47.397  53.824  1.00  0.00     0.002 A 
HETATM   15  C   UNL     1      25.738  46.019  53.956  1.00  0.00     0.026 A 
HETATM   16  H   UNL     1      26.557  43.765  55.639  1.00  0.00     0.135 HD
ENDROOT
BRANCH   9  17
HETATM   17  N   UNL     1      27.955  41.485  52.272  1.00  0.00    -0.265 N 
HETATM   18  C   UNL     1      27.333  40.784  51.252  1.00  0.00     0.270 C 
HETATM   19  O   UNL     1      26.138  40.912  51.002  1.00  0.00    -0.266 OA
HETATM   20  H   UNL     1      28.958  41.458  52.401  1.00  0.00     0.190 HD
BRANCH  18  21
HETATM   21  C   UNL     1      28.204  39.897  50.437  1.00  0.00     0.033 A 
HETATM   22  C   UNL     1      28.147  39.877  49.036  1.00  0.00     0.017 A 
HETATM   23  C   UNL     1      28.972  39.009  48.319  1.00  0.00     0.001 A 
HETATM   24  C   UNL     1      29.859  38.168  48.992  1.00  0.00     0.000 A 
HETATM   25  C   UNL     1      29.933  38.202  50.384  1.00  0.00     0.001 A 
HETATM   26  C   UNL     1      29.111  39.067  51.107  1.00  0.00     0.017 A 
ENDBRANCH  18  21
ENDBRANCH   9  17
TORSDOF 2
ENDMDL
MODEL 10
REMARK VINA RESULT:      -7.3      1.621      2.245
REMARK  2 active torsions:
REMARK  status: ('A' for Active; 'I' for Inactive)
REMARK    1  A    between atoms: N_9  and  N_11 
REMARK       I    between atoms: N_11  and  C_12 
REMARK    2  A    between atoms: C_12  and  C_13 
ROOT
HETATM    1  C   UNL     1      24.165  43.871  48.478  1.00  0.00     0.033 C 
HETATM    2  C   UNL     1      25.044  42.718  48.966  1.00  0.00     0.086 C 
HETATM    3  N   UNL     1      24.977  41.583  48.025  1.00  0.00    -0.379 N 
HETATM    4  C   UNL     1      23.703  40.915  47.760  1.00  0.00     0.150 C 
HETATM    5  C   UNL     1      26.065  40.684  48.016  1.00  0.00     0.052 A 
HETATM    6  C   UNL     1      26.556  40.002  49.158  1.00  0.00     0.040 A 
HETATM    7  N   UNL     1      25.964  40.163  50.459  1.00  0.00    -0.246 NA
HETATM    8  C   UNL     1      25.769  41.495  50.940  1.00  0.00     0.077 C 
HETATM    9  N   UNL     1      26.662  41.920  51.817  1.00  0.00    -0.291 N 
HETATM   10  H   UNL     1      27.373  41.221  52.064  1.00  0.00     0.188 HD
HETATM   11  C   UNL     1      24.677  42.328  50.402  1.00  0.00     0.096 C 
HETATM   12  C   UNL     1      26.655  40.398  46.775  1.00  0.00     0.031 A 
HETATM   13  C   UNL     1      27.695  39.473  46.660  1.00  0.00     0.002 A 
HETATM   14  C   UNL     1      28.158  38.802  47.788  1.00  0.00     0.002 A 
HETATM   15  C   UNL     1      27.584  39.058  49.031  1.00  0.00     0.026 A 
HETATM   16  H   UNL     1      25.031  39.781  50.274  1.00  0.00     0.135 HD
ENDROOT
BRANCH   9  17
HETATM   17  N   UNL     1      26.753  43.121  52.365  1.00  0.00    -0.265 N 
HETATM   18  C   UNL     1      27.471  43.223  53.545  1.00  0.00     0.270 C 
HETATM   19  O   UNL     1      27.997  42.251  54.080  1.00  0.00    -0.266 OA
HETATM   20  H   UNL     1      26.417  43.940  51.874  1.00  0.00     0.190 HD
BRANCH  18  21
HETATM   21  C   UNL     1      27.613  44.590  54.112  1.00  0.00     0.033 A 
HETATM   22  C   UNL     1      26.689  45.610  53.843  1.00  0.00     0.017 A 
HETATM   23  C   UNL     1      26.881  46.883  54.384  1.00  0.00     0.001 A 
HETATM   24  C   UNL     1      27.984  47.139  55.199  1.00  0.00     0.000 A 
HETATM   25  C   UNL     1      28.892  46.121  55.487  1.00  0.00     0.001 A 
HETATM   26  C   UNL     1      28.706  44.847  54.949  1.00  0.00     0.017 A 
ENDBRANCH  18  21
ENDBRANCH   9  17
TORSDOF 2
ENDMDL
