MODEL 1
REMARK VINA RESULT:      -9.1      0.000      0.000
REMARK  4 active torsions:
REMARK  status: ('A' for Active; 'I' for Inactive)
REMARK    1  A    between atoms: C_9  and  C_10 
REMARK    2  A    between atoms: C_20  and  C_21 
REMARK       I    between atoms: C_21  and  N_22 
REMARK    3  A    between atoms: N_22  and  C_23 
REMARK    4  A    between atoms: C_26  and  O_27 
ROOT
HETATM    1  C   UNL     1      22.513  43.975  49.378  1.00  0.00     0.070 C 
HETATM    2  C   UNL     1      23.625  44.908  49.795  1.00  0.00     0.037 C 
HETATM    3  N   UNL     1      23.441  46.245  49.451  1.00  0.00    -0.192 N 
HETATM    4  C   UNL     1      24.427  47.163  49.515  1.00  0.00     0.725 A 
HETATM    5  N   UNL     1      25.622  46.830  50.097  1.00  0.00    -0.084 N 
HETATM    6  N   UNL     1      26.514  47.836  49.987  1.00  0.00    -0.149 NA
HETATM    7  C   UNL     1      25.762  48.770  49.394  1.00  0.00     0.275 A 
HETATM    8  N   UNL     1      24.479  48.398  49.086  1.00  0.00    -0.054 NA
HETATM    9  C   UNL     1      25.926  45.497  50.631  1.00  0.00     0.203 C 
HETATM   10  C   UNL     1      24.785  44.517  50.380  1.00  0.00     0.062 C 
HETATM   11  H   UNL     1      22.608  46.485  48.920  1.00  0.00     0.184 HD
ENDROOT
BRANCH  10  12
HETATM   12  C   UNL     1      25.145  43.094  50.619  1.00  0.00     0.256 C 
HETATM   13  N   UNL     1      25.975  42.554  49.662  1.00  0.00    -0.323 N 
HETATM   14  H   UNL     1      26.194  43.132  48.861  1.00  0.00     0.169 HD
HETATM   15  O   UNL     1      24.668  42.532  51.598  1.00  0.00    -0.267 OA
BRANCH  13  16
HETATM   16  C   UNL     1      26.584  41.281  49.693  1.00  0.00     0.035 A 
HETATM   17  C   UNL     1      27.789  41.010  50.344  1.00  0.00     0.032 A 
HETATM   18  C   UNL     1      28.342  39.725  50.306  1.00  0.00     0.039 A 
HETATM   19  C   UNL     1      27.698  38.691  49.633  1.00  0.00     0.068 A 
HETATM   20  C   UNL     1      26.504  38.955  48.965  1.00  0.00     0.039 A 
HETATM   21  C   UNL     1      25.950  40.242  49.000  1.00  0.00     0.032 A 
BRANCH  19  22
HETATM   22  O   UNL     1      28.340  37.484  49.668  1.00  0.00    -0.356 OA
HETATM   23  C   UNL     1      29.500  37.425  50.490  1.00  0.00     0.210 C 
ENDBRANCH  19  22
ENDBRANCH  13  16
ENDBRANCH  10  12
BRANCH   9  24
HETATM   24  C   UNL     1      26.393  45.554  52.092  1.00  0.00    -0.017 A 
HETATM   25  C   UNL     1      27.495  44.816  52.637  1.00  0.00    -0.017 A 
HETATM   26  C   UNL     1      27.759  44.926  54.030  1.00  0.00    -0.025 A 
HETATM   27  C   UNL     1      28.355  43.964  51.901  1.00  0.00     0.013 A 
HETATM   28  C   UNL     1      28.799  44.190  54.624  1.00  0.00     0.012 A 
HETATM   29  C   UNL     1      26.983  45.770  54.835  1.00  0.00     0.012 A 
HETATM   30  C   UNL     1      29.603  43.343  53.868  1.00  0.00     0.001 A 
HETATM   31  C   UNL     1      29.385  43.236  52.505  1.00  0.00     0.001 A 
HETATM   32  C   UNL     1      25.944  46.515  54.295  1.00  0.00     0.002 A 
HETATM   33  C   UNL     1      25.651  46.407  52.941  1.00  0.00     0.010 A 
ENDBRANCH   9  24
TORSDOF 4
ENDMDL
MODEL 2
REMARK VINA RESULT:      -8.6      3.097      6.932
REMARK  4 active torsions:
REMARK  status: ('A' for Active; 'I' for Inactive)
REMARK    1  A    between atoms: C_9  and  C_10 
REMARK    2  A    between atoms: C_20  and  C_21 
REMARK       I    between atoms: C_21  and  N_22 
REMARK    3  A    between atoms: N_22  and  C_23 
REMARK    4  A    between atoms: C_26  and  O_27 
ROOT
HETATM    1  C   UNL     1      28.850  38.240  50.619  1.00  0.00     0.070 C 
HETATM    2  C   UNL     1      28.298  39.181  49.576  1.00  0.00     0.037 C 
HETATM    3  N   UNL     1      28.418  38.747  48.258  1.00  0.00    -0.192 N 
HETATM    4  C   UNL     1      28.216  39.555  47.196  1.00  0.00     0.725 A 
HETATM    5  N   UNL     1      27.705  40.811  47.392  1.00  0.00    -0.084 N 
HETATM    6  N   UNL     1      27.658  41.503  46.235  1.00  0.00    -0.149 NA
HETATM    7  C   UNL     1      28.086  40.574  45.373  1.00  0.00     0.275 A 
HETATM    8  N   UNL     1      28.439  39.367  45.920  1.00  0.00    -0.054 NA
HETATM    9  C   UNL     1      27.397  41.369  48.714  1.00  0.00     0.203 C 
HETATM   10  C   UNL     1      27.793  40.414  49.834  1.00  0.00     0.062 C 
HETATM   11  H   UNL     1      28.897  37.865  48.094  1.00  0.00     0.184 HD
ENDROOT
BRANCH  10  12
HETATM   12  C   UNL     1      27.791  41.032  51.187  1.00  0.00     0.256 C 
HETATM   13  N   UNL     1      28.856  41.872  51.424  1.00  0.00    -0.323 N 
HETATM   14  H   UNL     1      29.568  41.929  50.709  1.00  0.00     0.169 HD
HETATM   15  O   UNL     1      26.888  40.733  51.960  1.00  0.00    -0.267 OA
BRANCH  13  16
HETATM   16  C   UNL     1      29.046  42.694  52.556  1.00  0.00     0.035 A 
HETATM   17  C   UNL     1      28.212  43.761  52.894  1.00  0.00     0.032 A 
HETATM   18  C   UNL     1      28.484  44.547  54.020  1.00  0.00     0.039 A 
HETATM   19  C   UNL     1      29.583  44.274  54.831  1.00  0.00     0.068 A 
HETATM   20  C   UNL     1      30.432  43.223  54.492  1.00  0.00     0.039 A 
HETATM   21  C   UNL     1      30.162  42.436  53.364  1.00  0.00     0.032 A 
BRANCH  19  22
HETATM   22  O   UNL     1      29.741  45.113  55.898  1.00  0.00    -0.356 OA
HETATM   23  C   UNL     1      28.652  45.990  56.162  1.00  0.00     0.210 C 
ENDBRANCH  19  22
ENDBRANCH  13  16
ENDBRANCH  10  12
BRANCH   9  24
HETATM   24  C   UNL     1      25.950  41.874  48.803  1.00  0.00    -0.017 A 
HETATM   25  C   UNL     1      25.554  43.174  49.258  1.00  0.00    -0.017 A 
HETATM   26  C   UNL     1      24.165  43.466  49.347  1.00  0.00    -0.025 A 
HETATM   27  C   UNL     1      26.439  44.212  49.644  1.00  0.00     0.013 A 
HETATM   28  C   UNL     1      23.723  44.710  49.829  1.00  0.00     0.012 A 
HETATM   29  C   UNL     1      23.214  42.515  48.957  1.00  0.00     0.012 A 
HETATM   30  C   UNL     1      24.626  45.692  50.223  1.00  0.00     0.001 A 
HETATM   31  C   UNL     1      25.985  45.445  50.123  1.00  0.00     0.001 A 
HETATM   32  C   UNL     1      23.602  41.272  48.477  1.00  0.00     0.002 A 
HETATM   33  C   UNL     1      24.953  40.954  48.403  1.00  0.00     0.010 A 
ENDBRANCH   9  24
TORSDOF 4
ENDMDL
MODEL 3
REMARK VINA RESULT:      -8.2      2.517      3.773
REMARK  4 active torsions:
REMARK  status: ('A' for Active; 'I' for Inactive)
REMARK    1  A    between atoms: C_9  and  C_10 
REMARK    2  A    between atoms: C_20  and  C_21 
REMARK       I    between atoms: C_21  and  N_22 
REMARK    3  A    between atoms: N_22  and  C_23 
REMARK    4  A    between atoms: C_26  and  O_27 
ROOT
HETATM    1  C   UNL     1      22.305  47.363  49.090  1.00  0.00     0.070 C 
HETATM    2  C   UNL     1      23.793  47.265  49.322  1.00  0.00     0.037 C 
HETATM    3  N   UNL     1      24.482  48.475  49.295  1.00  0.00    -0.192 N 
HETATM    4  C   UNL     1      25.827  48.555  49.230  1.00  0.00     0.725 A 
HETATM    5  N   UNL     1      26.578  47.417  49.364  1.00  0.00    -0.084 N 
HETATM    6  N   UNL     1      27.889  47.674  49.180  1.00  0.00    -0.149 NA
HETATM    7  C   UNL     1      27.860  49.001  49.013  1.00  0.00     0.275 A 
HETATM    8  N   UNL     1      26.617  49.580  49.035  1.00  0.00    -0.054 NA
HETATM    9  C   UNL     1      26.003  46.077  49.535  1.00  0.00     0.203 C 
HETATM   10  C   UNL     1      24.481  46.103  49.459  1.00  0.00     0.062 C 
HETATM   11  H   UNL     1      23.949  49.316  49.085  1.00  0.00     0.184 HD
ENDROOT
BRANCH  10  12
HETATM   12  C   UNL     1      23.858  44.760  49.320  1.00  0.00     0.256 C 
HETATM   13  N   UNL     1      24.040  44.179  48.085  1.00  0.00    -0.323 N 
HETATM   14  H   UNL     1      24.499  44.735  47.376  1.00  0.00     0.169 HD
HETATM   15  O   UNL     1      23.234  44.309  50.273  1.00  0.00    -0.267 OA
BRANCH  13  16
HETATM   16  C   UNL     1      23.682  42.866  47.708  1.00  0.00     0.035 A 
HETATM   17  C   UNL     1      22.488  42.539  47.064  1.00  0.00     0.032 A 
HETATM   18  C   UNL     1      22.193  41.208  46.747  1.00  0.00     0.039 A 
HETATM   19  C   UNL     1      23.089  40.187  47.055  1.00  0.00     0.068 A 
HETATM   20  C   UNL     1      24.275  40.500  47.715  1.00  0.00     0.039 A 
HETATM   21  C   UNL     1      24.570  41.834  48.034  1.00  0.00     0.032 A 
BRANCH  19  22
HETATM   22  O   UNL     1      22.686  38.931  46.697  1.00  0.00    -0.356 OA
HETATM   23  C   UNL     1      23.713  38.058  46.242  1.00  0.00     0.210 C 
ENDBRANCH  19  22
ENDBRANCH  13  16
ENDBRANCH  10  12
BRANCH   9  24
HETATM   24  C   UNL     1      26.557  45.367  50.778  1.00  0.00    -0.017 A 
HETATM   25  C   UNL     1      26.467  45.861  52.121  1.00  0.00    -0.017 A 
HETATM   26  C   UNL     1      27.093  45.116  53.158  1.00  0.00    -0.025 A 
HETATM   27  C   UNL     1      25.807  47.051  52.514  1.00  0.00     0.013 A 
HETATM   28  C   UNL     1      27.073  45.578  54.485  1.00  0.00     0.012 A 
HETATM   29  C   UNL     1      27.742  43.908  52.873  1.00  0.00     0.012 A 
HETATM   30  C   UNL     1      26.436  46.768  54.823  1.00  0.00     0.001 A 
HETATM   31  C   UNL     1      25.797  47.501  53.838  1.00  0.00     0.001 A 
HETATM   32  C   UNL     1      27.790  43.412  51.577  1.00  0.00     0.002 A 
HETATM   33  C   UNL     1      27.207  44.133  50.543  1.00  0.00     0.010 A 
ENDBRANCH   9  24
TORSDOF 4
ENDMDL
MODEL 4
REMARK VINA RESULT:      -8.2      2.347      3.546
REMARK  4 active torsions:
REMARK  status: ('A' for Active; 'I' for Inactive)
REMARK    1  A    between atoms: C_9  and  C_10 
REMARK    2  A    between atoms: C_20  and  C_21 
REMARK       I    between atoms: C_21  and  N_22 
REMARK    3  A    between atoms: N_22  and  C_23 
REMARK    4  A    between atoms: C_26  and  O_27 
ROOT
HETATM    1  C   UNL     1      22.086  47.479  48.590  1.00  0.00     0.070 C 
HETATM    2  C   UNL     1      23.537  47.523  49.004  1.00  0.00     0.037 C 
HETATM    3  N   UNL     1      24.147  48.772  48.907  1.00  0.00    -0.192 N 
HETATM    4  C   UNL     1      25.482  48.946  48.989  1.00  0.00     0.725 A 
HETATM    5  N   UNL     1      26.280  47.893  49.351  1.00  0.00    -0.084 N 
HETATM    6  N   UNL     1      27.585  48.226  49.290  1.00  0.00    -0.149 NA
HETATM    7  C   UNL     1      27.495  49.519  48.956  1.00  0.00     0.275 A 
HETATM    8  N   UNL     1      26.225  49.999  48.762  1.00  0.00    -0.054 NA
HETATM    9  C   UNL     1      25.773  46.541  49.619  1.00  0.00     0.203 C 
HETATM   10  C   UNL     1      24.273  46.442  49.364  1.00  0.00     0.062 C 
HETATM   11  H   UNL     1      23.594  49.539  48.533  1.00  0.00     0.184 HD
ENDROOT
BRANCH  10  12
HETATM   12  C   UNL     1      23.757  45.048  49.322  1.00  0.00     0.256 C 
HETATM   13  N   UNL     1      23.854  44.448  48.086  1.00  0.00    -0.323 N 
HETATM   14  H   UNL     1      24.183  45.019  47.320  1.00  0.00     0.169 HD
HETATM   15  O   UNL     1      23.281  44.575  50.347  1.00  0.00    -0.267 OA
BRANCH  13  16
HETATM   16  C   UNL     1      23.571  43.099  47.778  1.00  0.00     0.035 A 
HETATM   17  C   UNL     1      22.376  42.665  47.202  1.00  0.00     0.032 A 
HETATM   18  C   UNL     1      22.161  41.305  46.952  1.00  0.00     0.039 A 
HETATM   19  C   UNL     1      23.138  40.361  47.259  1.00  0.00     0.068 A 
HETATM   20  C   UNL     1      24.326  40.781  47.851  1.00  0.00     0.039 A 
HETATM   21  C   UNL     1      24.542  42.143  48.104  1.00  0.00     0.032 A 
BRANCH  19  22
HETATM   22  O   UNL     1      22.807  39.066  46.969  1.00  0.00    -0.356 OA
HETATM   23  C   UNL     1      21.415  38.773  46.949  1.00  0.00     0.210 C 
ENDBRANCH  19  22
ENDBRANCH  13  16
ENDBRANCH  10  12
BRANCH   9  24
HETATM   24  C   UNL     1      26.210  46.025  50.997  1.00  0.00    -0.017 A 
HETATM   25  C   UNL     1      26.773  44.733  51.256  1.00  0.00    -0.017 A 
HETATM   26  C   UNL     1      27.063  44.379  52.603  1.00  0.00    -0.025 A 
HETATM   27  C   UNL     1      27.062  43.753  50.274  1.00  0.00     0.013 A 
HETATM   28  C   UNL     1      27.573  43.108  52.916  1.00  0.00     0.012 A 
HETATM   29  C   UNL     1      26.841  45.293  53.640  1.00  0.00     0.012 A 
HETATM   30  C   UNL     1      27.818  42.165  51.922  1.00  0.00     0.001 A 
HETATM   31  C   UNL     1      27.569  42.491  50.600  1.00  0.00     0.001 A 
HETATM   32  C   UNL     1      26.335  46.560  53.380  1.00  0.00     0.002 A 
HETATM   33  C   UNL     1      26.022  46.920  52.076  1.00  0.00     0.010 A 
ENDBRANCH   9  24
TORSDOF 4
ENDMDL
MODEL 5
REMARK VINA RESULT:      -8.0      5.171      8.323
REMARK  4 active torsions:
REMARK  status: ('A' for Active; 'I' for Inactive)
REMARK    1  A    between atoms: C_9  and  C_10 
REMARK    2  A    between atoms: C_20  and  C_21 
REMARK       I    between atoms: C_21  and  N_22 
REMARK    3  A    between atoms: N_22  and  C_23 
REMARK    4  A    between atoms: C_26  and  O_27 
ROOT
HETATM    1  C   UNL     1      18.902  44.285  46.660  1.00  0.00     0.070 C 
HETATM    2  C   UNL     1      18.562  45.753  46.754  1.00  0.00     0.037 C 
HETATM    3  N   UNL     1      17.227  46.071  46.516  1.00  0.00    -0.192 N 
HETATM    4  C   UNL     1      16.799  47.333  46.308  1.00  0.00     0.725 A 
HETATM    5  N   UNL     1      17.662  48.380  46.501  1.00  0.00    -0.084 N 
HETATM    6  N   UNL     1      17.090  49.553  46.159  1.00  0.00    -0.149 NA
HETATM    7  C   UNL     1      15.858  49.143  45.839  1.00  0.00     0.275 A 
HETATM    8  N   UNL     1      15.637  47.792  45.916  1.00  0.00    -0.054 NA
HETATM    9  C   UNL     1      19.069  48.216  46.886  1.00  0.00     0.203 C 
HETATM   10  C   UNL     1      19.464  46.745  46.958  1.00  0.00     0.062 C 
HETATM   11  H   UNL     1      16.600  45.313  46.262  1.00  0.00     0.184 HD
ENDROOT
BRANCH  10  12
HETATM   12  C   UNL     1      20.931  46.516  47.042  1.00  0.00     0.256 C 
HETATM   13  N   UNL     1      21.400  46.326  48.323  1.00  0.00    -0.323 N 
HETATM   14  H   UNL     1      20.737  46.436  49.079  1.00  0.00     0.169 HD
HETATM   15  O   UNL     1      21.582  46.541  46.004  1.00  0.00    -0.267 OA
BRANCH  13  16
HETATM   16  C   UNL     1      22.711  45.958  48.697  1.00  0.00     0.035 A 
HETATM   17  C   UNL     1      23.238  44.676  48.530  1.00  0.00     0.032 A 
HETATM   18  C   UNL     1      24.540  44.383  48.951  1.00  0.00     0.039 A 
HETATM   19  C   UNL     1      25.339  45.365  49.532  1.00  0.00     0.068 A 
HETATM   20  C   UNL     1      24.817  46.642  49.720  1.00  0.00     0.039 A 
HETATM   21  C   UNL     1      23.511  46.937  49.299  1.00  0.00     0.032 A 
BRANCH  19  22
HETATM   22  O   UNL     1      26.589  44.954  49.902  1.00  0.00    -0.356 OA
HETATM   23  C   UNL     1      26.844  43.560  49.777  1.00  0.00     0.210 C 
ENDBRANCH  19  22
ENDBRANCH  13  16
ENDBRANCH  10  12
BRANCH   9  24
HETATM   24  C   UNL     1      19.421  49.022  48.143  1.00  0.00    -0.017 A 
HETATM   25  C   UNL     1      20.655  49.719  48.361  1.00  0.00    -0.017 A 
HETATM   26  C   UNL     1      20.855  50.365  49.612  1.00  0.00    -0.025 A 
HETATM   27  C   UNL     1      21.717  49.815  47.428  1.00  0.00     0.013 A 
HETATM   28  C   UNL     1      22.064  51.023  49.894  1.00  0.00     0.012 A 
HETATM   29  C   UNL     1      19.848  50.352  50.586  1.00  0.00     0.012 A 
HETATM   30  C   UNL     1      23.093  51.071  48.958  1.00  0.00     0.001 A 
HETATM   31  C   UNL     1      22.916  50.473  47.723  1.00  0.00     0.001 A 
HETATM   32  C   UNL     1      18.638  49.712  50.355  1.00  0.00     0.002 A 
HETATM   33  C   UNL     1      18.428  49.054  49.150  1.00  0.00     0.010 A 
ENDBRANCH   9  24
TORSDOF 4
ENDMDL
MODEL 6
REMARK VINA RESULT:      -7.8      8.505     11.660
REMARK  4 active torsions:
REMARK  status: ('A' for Active; 'I' for Inactive)
REMARK    1  A    between atoms: C_9  and  C_10 
REMARK    2  A    between atoms: C_20  and  C_21 
REMARK       I    between atoms: C_21  and  N_22 
REMARK    3  A    between atoms: N_22  and  C_23 
REMARK    4  A    between atoms: C_26  and  O_27 
ROOT
HETATM    1  C   UNL     1      13.368  47.895  45.635  1.00  0.00     0.070 C 
HETATM    2  C   UNL     1      14.178  49.169  45.653  1.00  0.00     0.037 C 
HETATM    3  N   UNL     1      13.632  50.232  44.938  1.00  0.00    -0.192 N 
HETATM    4  C   UNL     1      14.326  51.349  44.636  1.00  0.00     0.725 A 
HETATM    5  N   UNL     1      15.565  51.543  45.188  1.00  0.00    -0.084 N 
HETATM    6  N   UNL     1      16.144  52.661  44.703  1.00  0.00    -0.149 NA
HETATM    7  C   UNL     1      15.165  53.128  43.921  1.00  0.00     0.275 A 
HETATM    8  N   UNL     1      14.035  52.354  43.850  1.00  0.00    -0.054 NA
HETATM    9  C   UNL     1      16.224  50.575  46.073  1.00  0.00     0.203 C 
HETATM   10  C   UNL     1      15.399  49.303  46.228  1.00  0.00     0.062 C 
HETATM   11  H   UNL     1      12.766  50.064  44.432  1.00  0.00     0.184 HD
ENDROOT
BRANCH  10  12
HETATM   12  C   UNL     1      16.138  48.175  46.856  1.00  0.00     0.256 C 
HETATM   13  N   UNL     1      17.158  47.669  46.082  1.00  0.00    -0.323 N 
HETATM   14  H   UNL     1      17.260  48.045  45.148  1.00  0.00     0.169 HD
HETATM   15  O   UNL     1      15.773  47.785  47.959  1.00  0.00    -0.267 OA
BRANCH  13  16
HETATM   16  C   UNL     1      18.107  46.697  46.465  1.00  0.00     0.035 A 
HETATM   17  C   UNL     1      17.897  45.320  46.363  1.00  0.00     0.032 A 
HETATM   18  C   UNL     1      18.878  44.419  46.791  1.00  0.00     0.039 A 
HETATM   19  C   UNL     1      20.086  44.875  47.314  1.00  0.00     0.068 A 
HETATM   20  C   UNL     1      20.298  46.245  47.438  1.00  0.00     0.039 A 
HETATM   21  C   UNL     1      19.314  47.150  47.011  1.00  0.00     0.032 A 
BRANCH  19  22
HETATM   22  O   UNL     1      20.960  43.896  47.697  1.00  0.00    -0.356 OA
HETATM   23  C   UNL     1      21.965  44.293  48.622  1.00  0.00     0.210 C 
ENDBRANCH  19  22
ENDBRANCH  13  16
ENDBRANCH  10  12
BRANCH   9  24
HETATM   24  C   UNL     1      16.654  51.210  47.403  1.00  0.00    -0.017 A 
HETATM   25  C   UNL     1      17.996  51.247  47.905  1.00  0.00    -0.017 A 
HETATM   26  C   UNL     1      18.221  51.814  49.190  1.00  0.00    -0.025 A 
HETATM   27  C   UNL     1      19.139  50.752  47.229  1.00  0.00     0.013 A 
HETATM   28  C   UNL     1      19.510  51.834  49.749  1.00  0.00     0.012 A 
HETATM   29  C   UNL     1      17.158  52.358  49.922  1.00  0.00     0.012 A 
HETATM   30  C   UNL     1      20.601  51.312  49.061  1.00  0.00     0.001 A 
HETATM   31  C   UNL     1      20.416  50.778  47.798  1.00  0.00     0.001 A 
HETATM   32  C   UNL     1      15.867  52.358  49.413  1.00  0.00     0.002 A 
HETATM   33  C   UNL     1      15.618  51.790  48.170  1.00  0.00     0.010 A 
ENDBRANCH   9  24
TORSDOF 4
ENDMDL
MODEL 7
REMARK VINA RESULT:      -7.8     17.539     19.735
REMARK  4 active torsions:
REMARK  status: ('A' for Active; 'I' for Inactive)
REMARK    1  A    between atoms: C_9  and  C_10 
REMARK    2  A    between atoms: C_20  and  C_21 
REMARK       I    between atoms: C_21  and  N_22 
REMARK    3  A    between atoms: N_22  and  C_23 
REMARK    4  A    between atoms: C_26  and  O_27 
ROOT
HETATM    1  C   UNL     1      39.361  43.538  62.485  1.00  0.00     0.070 C 
HETATM    2  C   UNL     1      39.940  44.454  63.537  1.00  0.00     0.037 C 
HETATM    3  N   UNL     1      41.329  44.560  63.537  1.00  0.00    -0.192 N 
HETATM    4  C   UNL     1      42.023  45.121  64.548  1.00  0.00     0.725 A 
HETATM    5  N   UNL     1      41.352  45.773  65.548  1.00  0.00    -0.084 N 
HETATM    6  N   UNL     1      42.197  46.187  66.514  1.00  0.00    -0.149 NA
HETATM    7  C   UNL     1      43.371  45.815  65.991  1.00  0.00     0.275 A 
HETATM    8  N   UNL     1      43.309  45.159  64.789  1.00  0.00    -0.054 NA
HETATM    9  C   UNL     1      39.888  45.867  65.621  1.00  0.00     0.203 C 
HETATM   10  C   UNL     1      39.218  45.083  64.499  1.00  0.00     0.062 C 
HETATM   11  H   UNL     1      41.844  43.992  62.869  1.00  0.00     0.184 HD
ENDROOT
BRANCH  10  12
HETATM   12  C   UNL     1      37.756  44.886  64.687  1.00  0.00     0.256 C 
HETATM   13  N   UNL     1      37.432  43.872  65.561  1.00  0.00    -0.323 N 
HETATM   14  H   UNL     1      38.193  43.314  65.925  1.00  0.00     0.169 HD
HETATM   15  O   UNL     1      36.988  45.598  64.051  1.00  0.00    -0.267 OA
BRANCH  13  16
HETATM   16  C   UNL     1      36.142  43.545  66.034  1.00  0.00     0.035 A 
HETATM   17  C   UNL     1      35.514  44.196  67.096  1.00  0.00     0.032 A 
HETATM   18  C   UNL     1      34.243  43.795  67.523  1.00  0.00     0.039 A 
HETATM   19  C   UNL     1      33.576  42.749  66.891  1.00  0.00     0.068 A 
HETATM   20  C   UNL     1      34.201  42.080  65.841  1.00  0.00     0.039 A 
HETATM   21  C   UNL     1      35.476  42.481  65.413  1.00  0.00     0.032 A 
BRANCH  19  22
HETATM   22  O   UNL     1      32.343  42.451  67.401  1.00  0.00    -0.356 OA
HETATM   23  C   UNL     1      32.055  43.000  68.682  1.00  0.00     0.210 C 
ENDBRANCH  19  22
ENDBRANCH  13  16
ENDBRANCH  10  12
BRANCH   9  24
HETATM   24  C   UNL     1      39.410  47.321  65.742  1.00  0.00    -0.017 A 
HETATM   25  C   UNL     1      38.474  47.805  66.714  1.00  0.00    -0.017 A 
HETATM   26  C   UNL     1      38.079  49.170  66.651  1.00  0.00    -0.025 A 
HETATM   27  C   UNL     1      37.888  47.029  67.745  1.00  0.00     0.013 A 
HETATM   28  C   UNL     1      37.130  49.684  67.551  1.00  0.00     0.012 A 
HETATM   29  C   UNL     1      38.629  50.024  65.686  1.00  0.00     0.012 A 
HETATM   30  C   UNL     1      36.559  48.880  68.532  1.00  0.00     0.001 A 
HETATM   31  C   UNL     1      36.944  47.554  68.633  1.00  0.00     0.001 A 
HETATM   32  C   UNL     1      39.567  49.561  64.773  1.00  0.00     0.002 A 
HETATM   33  C   UNL     1      39.951  48.226  64.800  1.00  0.00     0.010 A 
ENDBRANCH   9  24
TORSDOF 4
ENDMDL
MODEL 8
REMARK VINA RESULT:      -7.8      3.472      7.275
REMARK  4 active torsions:
REMARK  status: ('A' for Active; 'I' for Inactive)
REMARK    1  A    between atoms: C_9  and  C_10 
REMARK    2  A    between atoms: C_20  and  C_21 
REMARK       I    between atoms: C_21  and  N_22 
REMARK    3  A    between atoms: N_22  and  C_23 
REMARK    4  A    between atoms: C_26  and  O_27 
ROOT
HETATM    1  C   UNL     1      22.977  41.405  48.436  1.00  0.00     0.070 C 
HETATM    2  C   UNL     1      22.640  42.688  47.715  1.00  0.00     0.037 C 
HETATM    3  N   UNL     1      22.300  42.545  46.372  1.00  0.00    -0.192 N 
HETATM    4  C   UNL     1      22.219  43.588  45.519  1.00  0.00     0.725 A 
HETATM    5  N   UNL     1      22.305  44.866  46.005  1.00  0.00    -0.084 N 
HETATM    6  N   UNL     1      22.297  45.770  45.004  1.00  0.00    -0.149 NA
HETATM    7  C   UNL     1      22.129  44.967  43.948  1.00  0.00     0.275 A 
HETATM    8  N   UNL     1      22.078  43.623  44.219  1.00  0.00    -0.054 NA
HETATM    9  C   UNL     1      22.528  45.186  47.421  1.00  0.00     0.203 C 
HETATM   10  C   UNL     1      22.735  43.928  48.256  1.00  0.00     0.062 C 
HETATM   11  H   UNL     1      22.342  41.612  45.972  1.00  0.00     0.184 HD
ENDROOT
BRANCH  10  12
HETATM   12  C   UNL     1      23.262  44.189  49.622  1.00  0.00     0.256 C 
HETATM   13  N   UNL     1      24.498  44.797  49.644  1.00  0.00    -0.323 N 
HETATM   14  H   UNL     1      24.960  44.935  48.755  1.00  0.00     0.169 HD
HETATM   15  O   UNL     1      22.590  43.829  50.582  1.00  0.00    -0.267 OA
BRANCH  13  16
HETATM   16  C   UNL     1      25.180  45.282  50.780  1.00  0.00     0.035 A 
HETATM   17  C   UNL     1      26.028  44.505  51.571  1.00  0.00     0.032 A 
HETATM   18  C   UNL     1      26.648  45.054  52.699  1.00  0.00     0.039 A 
HETATM   19  C   UNL     1      26.443  46.387  53.048  1.00  0.00     0.068 A 
HETATM   20  C   UNL     1      25.584  47.166  52.277  1.00  0.00     0.039 A 
HETATM   21  C   UNL     1      24.961  46.617  51.146  1.00  0.00     0.032 A 
BRANCH  19  22
HETATM   22  O   UNL     1      27.102  46.803  54.171  1.00  0.00    -0.356 OA
HETATM   23  C   UNL     1      26.432  47.783  54.954  1.00  0.00     0.210 C 
ENDBRANCH  19  22
ENDBRANCH  13  16
ENDBRANCH  10  12
BRANCH   9  24
HETATM   24  C   UNL     1      21.456  46.136  47.972  1.00  0.00    -0.017 A 
HETATM   25  C   UNL     1      21.693  47.472  48.434  1.00  0.00    -0.017 A 
HETATM   26  C   UNL     1      20.602  48.202  48.982  1.00  0.00    -0.025 A 
HETATM   27  C   UNL     1      22.942  48.141  48.402  1.00  0.00     0.013 A 
HETATM   28  C   UNL     1      20.790  49.499  49.490  1.00  0.00     0.012 A 
HETATM   29  C   UNL     1      19.322  47.637  49.026  1.00  0.00     0.012 A 
HETATM   30  C   UNL     1      22.041  50.108  49.464  1.00  0.00     0.001 A 
HETATM   31  C   UNL     1      23.115  49.431  48.913  1.00  0.00     0.001 A 
HETATM   32  C   UNL     1      19.088  46.359  48.539  1.00  0.00     0.002 A 
HETATM   33  C   UNL     1      20.142  45.617  48.020  1.00  0.00     0.010 A 
ENDBRANCH   9  24
TORSDOF 4
ENDMDL
MODEL 9
REMARK VINA RESULT:      -7.8      5.023      8.934
REMARK  4 active torsions:
REMARK  status: ('A' for Active; 'I' for Inactive)
REMARK    1  A    between atoms: C_9  and  C_10 
REMARK    2  A    between atoms: C_20  and  C_21 
REMARK       I    between atoms: C_21  and  N_22 
REMARK    3  A    between atoms: N_22  and  C_23 
REMARK    4  A    between atoms: C_26  and  O_27 
ROOT
HETATM    1  C   UNL     1      23.290  50.911  47.986  1.00  0.00     0.070 C 
HETATM    2  C   UNL     1      21.889  50.457  48.318  1.00  0.00     0.037 C 
HETATM    3  N   UNL     1      20.965  51.478  48.526  1.00  0.00    -0.192 N 
HETATM    4  C   UNL     1      19.750  51.270  49.073  1.00  0.00     0.725 A 
HETATM    5  N   UNL     1      19.316  49.988  49.285  1.00  0.00    -0.084 N 
HETATM    6  N   UNL     1      18.126  49.976  49.920  1.00  0.00    -0.149 NA
HETATM    7  C   UNL     1      17.869  51.287  49.990  1.00  0.00     0.275 A 
HETATM    8  N   UNL     1      18.838  52.114  49.484  1.00  0.00    -0.054 NA
HETATM    9  C   UNL     1      20.120  48.796  48.991  1.00  0.00     0.203 C 
HETATM   10  C   UNL     1      21.517  49.166  48.506  1.00  0.00     0.062 C 
HETATM   11  H   UNL     1      21.304  52.436  48.480  1.00  0.00     0.184 HD
ENDROOT
BRANCH  10  12
HETATM   12  C   UNL     1      22.472  48.026  48.483  1.00  0.00     0.256 C 
HETATM   13  N   UNL     1      23.181  47.860  49.652  1.00  0.00    -0.323 N 
HETATM   14  H   UNL     1      23.053  48.558  50.373  1.00  0.00     0.169 HD
HETATM   15  O   UNL     1      22.565  47.368  47.453  1.00  0.00    -0.267 OA
BRANCH  13  16
HETATM   16  C   UNL     1      24.052  46.795  49.967  1.00  0.00     0.035 A 
HETATM   17  C   UNL     1      23.829  45.469  49.592  1.00  0.00     0.032 A 
HETATM   18  C   UNL     1      24.727  44.464  49.968  1.00  0.00     0.039 A 
HETATM   19  C   UNL     1      25.866  44.767  50.710  1.00  0.00     0.068 A 
HETATM   20  C   UNL     1      26.089  46.083  51.105  1.00  0.00     0.039 A 
HETATM   21  C   UNL     1      25.188  47.091  50.731  1.00  0.00     0.032 A 
BRANCH  19  22
HETATM   22  O   UNL     1      26.663  43.699  51.015  1.00  0.00    -0.356 OA
HETATM   23  C   UNL     1      27.735  43.964  51.911  1.00  0.00     0.210 C 
ENDBRANCH  19  22
ENDBRANCH  13  16
ENDBRANCH  10  12
BRANCH   9  24
HETATM   24  C   UNL     1      19.379  47.811  48.077  1.00  0.00    -0.017 A 
HETATM   25  C   UNL     1      18.826  48.130  46.794  1.00  0.00    -0.017 A 
HETATM   26  C   UNL     1      18.106  47.121  46.098  1.00  0.00    -0.025 A 
HETATM   27  C   UNL     1      18.925  49.388  46.149  1.00  0.00     0.013 A 
HETATM   28  C   UNL     1      17.504  47.394  44.857  1.00  0.00     0.012 A 
HETATM   29  C   UNL     1      17.982  45.836  46.640  1.00  0.00     0.012 A 
HETATM   30  C   UNL     1      17.603  48.653  44.271  1.00  0.00     0.001 A 
HETATM   31  C   UNL     1      18.320  49.647  44.914  1.00  0.00     0.001 A 
HETATM   32  C   UNL     1      18.555  45.518  47.864  1.00  0.00     0.002 A 
HETATM   33  C   UNL     1      19.244  46.494  48.574  1.00  0.00     0.010 A 
ENDBRANCH   9  24
TORSDOF 4
ENDMDL
MODEL 10
REMARK VINA RESULT:      -7.6     17.599     20.131
REMARK  4 active torsions:
REMARK  status: ('A' for Active; 'I' for Inactive)
REMARK    1  A    between atoms: C_9  and  C_10 
REMARK    2  A    between atoms: C_20  and  C_21 
REMARK       I    between atoms: C_21  and  N_22 
REMARK    3  A    between atoms: N_22  and  C_23 
REMARK    4  A    between atoms: C_26  and  O_27 
ROOT
HETATM    1  C   UNL     1      35.788  46.997  67.827  1.00  0.00     0.070 C 
HETATM    2  C   UNL     1      36.947  47.877  67.425  1.00  0.00     0.037 C 
HETATM    3  N   UNL     1      36.756  49.243  67.625  1.00  0.00    -0.192 N 
HETATM    4  C   UNL     1      37.567  50.183  67.098  1.00  0.00     0.725 A 
HETATM    5  N   UNL     1      38.728  49.803  66.478  1.00  0.00    -0.084 N 
HETATM    6  N   UNL     1      39.360  50.864  65.934  1.00  0.00    -0.149 NA
HETATM    7  C   UNL     1      38.559  51.859  66.331  1.00  0.00     0.275 A 
HETATM    8  N   UNL     1      37.449  51.486  67.044  1.00  0.00    -0.054 NA
HETATM    9  C   UNL     1      39.140  48.404  66.306  1.00  0.00     0.203 C 
HETATM   10  C   UNL     1      38.081  47.438  66.823  1.00  0.00     0.062 C 
HETATM   11  H   UNL     1      35.853  49.545  67.981  1.00  0.00     0.184 HD
ENDROOT
BRANCH  10  12
HETATM   12  C   UNL     1      38.295  46.026  66.408  1.00  0.00     0.256 C 
HETATM   13  N   UNL     1      37.932  45.760  65.106  1.00  0.00    -0.323 N 
HETATM   14  H   UNL     1      37.490  46.507  64.588  1.00  0.00     0.169 HD
HETATM   15  O   UNL     1      38.735  45.239  67.237  1.00  0.00    -0.267 OA
BRANCH  13  16
HETATM   16  C   UNL     1      38.143  44.556  64.401  1.00  0.00     0.035 A 
HETATM   17  C   UNL     1      37.307  43.442  64.492  1.00  0.00     0.032 A 
HETATM   18  C   UNL     1      37.599  42.273  63.780  1.00  0.00     0.039 A 
HETATM   19  C   UNL     1      38.721  42.202  62.958  1.00  0.00     0.068 A 
HETATM   20  C   UNL     1      39.572  43.301  62.873  1.00  0.00     0.039 A 
HETATM   21  C   UNL     1      39.281  44.472  63.588  1.00  0.00     0.032 A 
BRANCH  19  22
HETATM   22  O   UNL     1      38.898  41.007  62.318  1.00  0.00    -0.356 OA
HETATM   23  C   UNL     1      39.531  39.986  63.080  1.00  0.00     0.210 C 
ENDBRANCH  19  22
ENDBRANCH  13  16
ENDBRANCH  10  12
BRANCH   9  24
HETATM   24  C   UNL     1      40.548  48.146  66.860  1.00  0.00    -0.017 A 
HETATM   25  C   UNL     1      41.601  47.471  66.160  1.00  0.00    -0.017 A 
HETATM   26  C   UNL     1      42.831  47.250  66.840  1.00  0.00    -0.025 A 
HETATM   27  C   UNL     1      41.522  46.985  64.831  1.00  0.00     0.013 A 
HETATM   28  C   UNL     1      43.880  46.552  66.216  1.00  0.00     0.012 A 
HETATM   29  C   UNL     1      43.015  47.722  68.145  1.00  0.00     0.012 A 
HETATM   30  C   UNL     1      43.750  46.068  64.918  1.00  0.00     0.001 A 
HETATM   31  C   UNL     1      42.574  46.292  64.223  1.00  0.00     0.001 A 
HETATM   32  C   UNL     1      42.008  48.413  68.804  1.00  0.00     0.002 A 
HETATM   33  C   UNL     1      40.789  48.621  68.170  1.00  0.00     0.010 A 
ENDBRANCH   9  24
TORSDOF 4
ENDMDL
