MODEL 1
REMARK VINA RESULT:      -8.5      0.000      0.000
REMARK  2 active torsions:
REMARK  status: ('A' for Active; 'I' for Inactive)
REMARK    1  A    between atoms: C_5  and  O_6 
REMARK    2  A    between atoms: C_5  and  C_7 
ROOT
HETATM    1  C   UNL     1      28.703  46.350  57.353  1.00  0.00     0.050 C 
HETATM    2  C   UNL     1      29.038  45.358  56.282  1.00  0.00    -0.034 A 
HETATM    3  C   UNL     1      28.068  44.758  55.492  1.00  0.00     0.052 A 
HETATM    4  C   UNL     1      28.370  43.850  54.466  1.00  0.00     0.039 A 
HETATM    5  C   UNL     1      27.091  43.366  53.834  1.00  0.00     0.200 A 
HETATM    6  C   UNL     1      26.011  44.154  54.658  1.00  0.00     0.266 A 
HETATM    7  O   UNL     1      24.792  44.106  54.563  1.00  0.00    -0.269 OA
HETATM    8  N   UNL     1      26.695  44.940  55.583  1.00  0.00    -0.323 N 
HETATM    9  C   UNL     1      29.689  43.500  54.228  1.00  0.00     0.046 A 
HETATM   10 CL   UNL     1      30.128  42.353  53.024  1.00  0.00    -0.084 Cl
HETATM   11  C   UNL     1      30.692  44.103  54.993  1.00  0.00     0.025 A 
HETATM   12  C   UNL     1      30.371  45.028  56.003  1.00  0.00     0.011 A 
HETATM   13  H   UNL     1      26.212  45.526  56.246  1.00  0.00     0.169 HD
ENDROOT
BRANCH   5  14
HETATM   14  O   UNL     1      27.017  41.961  54.059  1.00  0.00    -0.371 OA
HETATM   15  H   UNL     1      27.576  41.558  53.373  1.00  0.00     0.212 HD
ENDBRANCH   5  14
BRANCH   5  16
HETATM   16  C   UNL     1      27.009  43.752  52.366  1.00  0.00     0.025 A 
HETATM   17  C   UNL     1      26.717  45.035  51.754  1.00  0.00     0.003 A 
HETATM   18  C   UNL     1      26.760  44.861  50.369  1.00  0.00     0.043 A 
HETATM   19  C   UNL     1      26.415  46.333  52.228  1.00  0.00     0.014 A 
HETATM   20  C   UNL     1      26.548  45.899  49.452  1.00  0.00     0.030 A 
HETATM   21  N   UNL     1      27.020  43.537  50.132  1.00  0.00    -0.359 N 
HETATM   22  C   UNL     1      26.273  47.170  49.958  1.00  0.00     0.002 A 
HETATM   23  C   UNL     1      26.203  47.386  51.328  1.00  0.00     0.001 A 
HETATM   24  H   UNL     1      27.073  43.127  49.210  1.00  0.00     0.166 HD
HETATM   25  C   UNL     1      27.131  42.846  51.308  1.00  0.00     0.016 A 
HETATM   26  C   UNL     1      27.312  41.367  51.298  1.00  0.00     0.069 C 
ENDBRANCH   5  16
TORSDOF 2
ENDMDL
MODEL 2
REMARK VINA RESULT:      -8.0     13.664     15.377
REMARK  2 active torsions:
REMARK  status: ('A' for Active; 'I' for Inactive)
REMARK    1  A    between atoms: C_5  and  O_6 
REMARK    2  A    between atoms: C_5  and  C_7 
ROOT
HETATM    1  C   UNL     1      24.579  49.760  38.389  1.00  0.00     0.050 C 
HETATM    2  C   UNL     1      25.861  49.288  39.000  1.00  0.00    -0.034 A 
HETATM    3  C   UNL     1      27.031  50.033  38.950  1.00  0.00     0.052 A 
HETATM    4  C   UNL     1      28.232  49.617  39.544  1.00  0.00     0.039 A 
HETATM    5  C   UNL     1      29.305  50.638  39.273  1.00  0.00     0.200 A 
HETATM    6  C   UNL     1      28.519  51.711  38.437  1.00  0.00     0.266 A 
HETATM    7  O   UNL     1      28.936  52.747  37.938  1.00  0.00    -0.269 OA
HETATM    8  N   UNL     1      27.206  51.260  38.324  1.00  0.00    -0.323 N 
HETATM    9  C   UNL     1      28.284  48.396  40.196  1.00  0.00     0.046 A 
HETATM   10 CL   UNL     1      29.735  47.797  40.900  1.00  0.00    -0.084 Cl
HETATM   11  C   UNL     1      27.117  47.629  40.283  1.00  0.00     0.025 A 
HETATM   12  C   UNL     1      25.918  48.074  39.698  1.00  0.00     0.011 A 
HETATM   13  H   UNL     1      26.508  51.774  37.808  1.00  0.00     0.169 HD
ENDROOT
BRANCH   5  14
HETATM   14  O   UNL     1      30.314  49.992  38.502  1.00  0.00    -0.371 OA
HETATM   15  H   UNL     1      30.136  50.243  37.579  1.00  0.00     0.212 HD
ENDBRANCH   5  14
BRANCH   5  16
HETATM   16  C   UNL     1      29.826  51.260  40.558  1.00  0.00     0.025 A 
HETATM   17  C   UNL     1      31.107  51.095  41.221  1.00  0.00     0.003 A 
HETATM   18  C   UNL     1      31.089  51.882  42.374  1.00  0.00     0.043 A 
HETATM   19  C   UNL     1      32.287  50.356  40.968  1.00  0.00     0.014 A 
HETATM   20  C   UNL     1      32.174  51.988  43.255  1.00  0.00     0.030 A 
HETATM   21  N   UNL     1      29.853  52.468  42.449  1.00  0.00    -0.359 N 
HETATM   22  C   UNL     1      33.327  51.260  42.961  1.00  0.00     0.002 A 
HETATM   23  C   UNL     1      33.383  50.450  41.834  1.00  0.00     0.001 A 
HETATM   24  H   UNL     1      29.555  53.067  43.206  1.00  0.00     0.166 HD
HETATM   25  C   UNL     1      29.067  52.079  41.399  1.00  0.00     0.016 A 
HETATM   26  C   UNL     1      27.643  52.510  41.324  1.00  0.00     0.069 C 
ENDBRANCH   5  16
TORSDOF 2
ENDMDL
MODEL 3
REMARK VINA RESULT:      -8.0     13.789     15.252
REMARK  2 active torsions:
REMARK  status: ('A' for Active; 'I' for Inactive)
REMARK    1  A    between atoms: C_5  and  O_6 
REMARK    2  A    between atoms: C_5  and  C_7 
ROOT
HETATM    1  C   UNL     1      36.021  50.297  40.320  1.00  0.00     0.050 C 
HETATM    2  C   UNL     1      34.793  50.797  41.014  1.00  0.00    -0.034 A 
HETATM    3  C   UNL     1      33.600  51.032  40.343  1.00  0.00     0.052 A 
HETATM    4  C   UNL     1      32.433  51.473  40.985  1.00  0.00     0.039 A 
HETATM    5  C   UNL     1      31.341  51.659  39.965  1.00  0.00     0.200 A 
HETATM    6  C   UNL     1      32.070  51.240  38.638  1.00  0.00     0.266 A 
HETATM    7  O   UNL     1      31.632  51.234  37.496  1.00  0.00    -0.269 OA
HETATM    8  N   UNL     1      33.371  50.884  38.981  1.00  0.00    -0.323 N 
HETATM    9  C   UNL     1      32.454  51.718  42.348  1.00  0.00     0.046 A 
HETATM   10 CL   UNL     1      31.077  52.311  43.192  1.00  0.00    -0.084 Cl
HETATM   11  C   UNL     1      33.634  51.471  43.057  1.00  0.00     0.025 A 
HETATM   12  C   UNL     1      34.788  51.009  42.399  1.00  0.00     0.011 A 
HETATM   13  H   UNL     1      34.046  50.596  38.289  1.00  0.00     0.169 HD
ENDROOT
BRANCH   5  14
HETATM   14  O   UNL     1      30.990  53.040  39.972  1.00  0.00    -0.371 OA
HETATM   15  H   UNL     1      31.822  53.518  40.129  1.00  0.00     0.212 HD
ENDBRANCH   5  14
BRANCH   5  16
HETATM   16  C   UNL     1      30.165  50.731  40.227  1.00  0.00     0.025 A 
HETATM   17  C   UNL     1      30.061  49.292  40.075  1.00  0.00     0.003 A 
HETATM   18  C   UNL     1      28.766  48.922  40.445  1.00  0.00     0.043 A 
HETATM   19  C   UNL     1      30.929  48.256  39.658  1.00  0.00     0.014 A 
HETATM   20  C   UNL     1      28.311  47.596  40.444  1.00  0.00     0.030 A 
HETATM   21  N   UNL     1      28.090  50.069  40.767  1.00  0.00    -0.359 N 
HETATM   22  C   UNL     1      29.202  46.600  40.046  1.00  0.00     0.002 A 
HETATM   23  C   UNL     1      30.494  46.924  39.653  1.00  0.00     0.001 A 
HETATM   24  H   UNL     1      27.117  50.095  41.039  1.00  0.00     0.166 HD
HETATM   25  C   UNL     1      28.891  51.166  40.604  1.00  0.00     0.016 A 
HETATM   26  C   UNL     1      28.338  52.536  40.797  1.00  0.00     0.069 C 
ENDBRANCH   5  16
TORSDOF 2
ENDMDL
MODEL 4
REMARK VINA RESULT:      -7.9     12.861     14.178
REMARK  2 active torsions:
REMARK  status: ('A' for Active; 'I' for Inactive)
REMARK    1  A    between atoms: C_5  and  O_6 
REMARK    2  A    between atoms: C_5  and  C_7 
ROOT
HETATM    1  C   UNL     1      30.649  54.077  40.644  1.00  0.00     0.050 C 
HETATM    2  C   UNL     1      30.744  52.700  41.223  1.00  0.00    -0.034 A 
HETATM    3  C   UNL     1      29.804  51.713  40.957  1.00  0.00     0.052 A 
HETATM    4  C   UNL     1      29.896  50.410  41.469  1.00  0.00     0.039 A 
HETATM    5  C   UNL     1      28.701  49.611  41.018  1.00  0.00     0.200 A 
HETATM    6  C   UNL     1      27.919  50.666  40.157  1.00  0.00     0.266 A 
HETATM    7  O   UNL     1      26.850  50.536  39.575  1.00  0.00    -0.269 OA
HETATM    8  N   UNL     1      28.659  51.845  40.183  1.00  0.00    -0.323 N 
HETATM    9  C   UNL     1      30.951  50.074  42.300  1.00  0.00     0.046 A 
HETATM   10 CL   UNL     1      31.099  48.513  43.006  1.00  0.00    -0.084 Cl
HETATM   11  C   UNL     1      31.927  51.039  42.570  1.00  0.00     0.025 A 
HETATM   12  C   UNL     1      31.828  52.335  42.031  1.00  0.00     0.011 A 
HETATM   13  H   UNL     1      28.347  52.682  39.714  1.00  0.00     0.169 HD
ENDROOT
BRANCH   5  14
HETATM   14  O   UNL     1      27.982  49.235  42.189  1.00  0.00    -0.371 OA
HETATM   15  H   UNL     1      27.055  49.147  41.907  1.00  0.00     0.212 HD
ENDBRANCH   5  14
BRANCH   5  16
HETATM   16  C   UNL     1      29.110  48.431  40.150  1.00  0.00     0.025 A 
HETATM   17  C   UNL     1      28.637  47.059  40.158  1.00  0.00     0.003 A 
HETATM   18  C   UNL     1      29.333  46.368  39.164  1.00  0.00     0.043 A 
HETATM   19  C   UNL     1      27.690  46.323  40.909  1.00  0.00     0.014 A 
HETATM   20  C   UNL     1      29.119  45.014  38.870  1.00  0.00     0.030 A 
HETATM   21  N   UNL     1      30.219  47.247  38.600  1.00  0.00    -0.359 N 
HETATM   22  C   UNL     1      28.163  44.327  39.617  1.00  0.00     0.002 A 
HETATM   23  C   UNL     1      27.459  44.970  40.627  1.00  0.00     0.001 A 
HETATM   24  H   UNL     1      30.875  47.000  37.872  1.00  0.00     0.166 HD
HETATM   25  C   UNL     1      30.134  48.473  39.200  1.00  0.00     0.016 A 
HETATM   26  C   UNL     1      31.076  49.564  38.819  1.00  0.00     0.069 C 
ENDBRANCH   5  16
TORSDOF 2
ENDMDL
MODEL 5
REMARK VINA RESULT:      -7.9      2.344      3.498
REMARK  2 active torsions:
REMARK  status: ('A' for Active; 'I' for Inactive)
REMARK    1  A    between atoms: C_5  and  O_6 
REMARK    2  A    between atoms: C_5  and  C_7 
ROOT
HETATM    1  C   UNL     1      29.507  43.592  55.230  1.00  0.00     0.050 C 
HETATM    2  C   UNL     1      28.857  43.508  53.885  1.00  0.00    -0.034 A 
HETATM    3  C   UNL     1      27.518  43.816  53.683  1.00  0.00     0.052 A 
HETATM    4  C   UNL     1      26.903  43.770  52.423  1.00  0.00     0.039 A 
HETATM    5  C   UNL     1      25.446  44.128  52.565  1.00  0.00     0.200 A 
HETATM    6  C   UNL     1      25.334  44.397  54.108  1.00  0.00     0.266 A 
HETATM    7  O   UNL     1      24.344  44.701  54.760  1.00  0.00    -0.269 OA
HETATM    8  N   UNL     1      26.600  44.198  54.652  1.00  0.00    -0.323 N 
HETATM    9  C   UNL     1      27.637  43.377  51.317  1.00  0.00     0.046 A 
HETATM   10 CL   UNL     1      26.935  43.245  49.752  1.00  0.00    -0.084 Cl
HETATM   11  C   UNL     1      28.994  43.080  51.482  1.00  0.00     0.025 A 
HETATM   12  C   UNL     1      29.598  43.152  52.751  1.00  0.00     0.011 A 
HETATM   13  H   UNL     1      26.778  44.293  55.640  1.00  0.00     0.169 HD
ENDROOT
BRANCH   5  14
HETATM   14  O   UNL     1      24.693  42.987  52.163  1.00  0.00    -0.371 OA
HETATM   15  H   UNL     1      24.998  42.778  51.264  1.00  0.00     0.212 HD
ENDBRANCH   5  14
BRANCH   5  16
HETATM   16  C   UNL     1      25.100  45.389  51.790  1.00  0.00     0.025 A 
HETATM   17  C   UNL     1      24.304  45.556  50.588  1.00  0.00     0.003 A 
HETATM   18  C   UNL     1      24.292  46.917  50.277  1.00  0.00     0.043 A 
HETATM   19  C   UNL     1      23.591  44.694  49.722  1.00  0.00     0.014 A 
HETATM   20  C   UNL     1      23.598  47.454  49.184  1.00  0.00     0.030 A 
HETATM   21  N   UNL     1      25.071  47.556  51.206  1.00  0.00    -0.359 N 
HETATM   22  C   UNL     1      22.889  46.575  48.365  1.00  0.00     0.002 A 
HETATM   23  C   UNL     1      22.888  45.211  48.626  1.00  0.00     0.001 A 
HETATM   24  H   UNL     1      25.262  48.548  51.198  1.00  0.00     0.166 HD
HETATM   25  C   UNL     1      25.598  46.659  52.094  1.00  0.00     0.016 A 
HETATM   26  C   UNL     1      26.562  47.111  53.137  1.00  0.00     0.069 C 
ENDBRANCH   5  16
TORSDOF 2
ENDMDL
MODEL 6
REMARK VINA RESULT:      -7.9      8.164     11.226
REMARK  2 active torsions:
REMARK  status: ('A' for Active; 'I' for Inactive)
REMARK    1  A    between atoms: C_5  and  O_6 
REMARK    2  A    between atoms: C_5  and  C_7 
ROOT
HETATM    1  C   UNL     1      17.428  52.388  46.049  1.00  0.00     0.050 C 
HETATM    2  C   UNL     1      17.810  51.633  47.284  1.00  0.00    -0.034 A 
HETATM    3  C   UNL     1      18.293  50.333  47.244  1.00  0.00     0.052 A 
HETATM    4  C   UNL     1      18.682  49.624  48.390  1.00  0.00     0.039 A 
HETATM    5  C   UNL     1      19.121  48.238  47.997  1.00  0.00     0.200 A 
HETATM    6  C   UNL     1      18.931  48.274  46.438  1.00  0.00     0.266 A 
HETATM    7  O   UNL     1      19.123  47.382  45.623  1.00  0.00    -0.269 OA
HETATM    8  N   UNL     1      18.458  49.543  46.113  1.00  0.00    -0.323 N 
HETATM    9  C   UNL     1      18.565  50.219  49.635  1.00  0.00     0.046 A 
HETATM   10 CL   UNL     1      18.971  49.392  51.087  1.00  0.00    -0.084 Cl
HETATM   11  C   UNL     1      18.101  51.537  49.709  1.00  0.00     0.025 A 
HETATM   12  C   UNL     1      17.736  52.238  48.545  1.00  0.00     0.011 A 
HETATM   13  H   UNL     1      18.238  49.805  45.164  1.00  0.00     0.169 HD
ENDROOT
BRANCH   5  14
HETATM   14  O   UNL     1      18.230  47.321  48.624  1.00  0.00    -0.371 OA
HETATM   15  H   UNL     1      18.622  46.441  48.486  1.00  0.00     0.212 HD
ENDBRANCH   5  14
BRANCH   5  16
HETATM   16  C   UNL     1      20.583  47.994  48.337  1.00  0.00     0.025 A 
HETATM   17  C   UNL     1      21.702  48.918  48.357  1.00  0.00     0.003 A 
HETATM   18  C   UNL     1      22.837  48.197  48.733  1.00  0.00     0.043 A 
HETATM   19  C   UNL     1      21.877  50.297  48.091  1.00  0.00     0.014 A 
HETATM   20  C   UNL     1      24.106  48.773  48.880  1.00  0.00     0.030 A 
HETATM   21  N   UNL     1      22.456  46.891  48.895  1.00  0.00    -0.359 N 
HETATM   22  C   UNL     1      24.235  50.139  48.629  1.00  0.00     0.002 A 
HETATM   23  C   UNL     1      23.137  50.893  48.235  1.00  0.00     0.001 A 
HETATM   24  H   UNL     1      23.090  46.142  49.136  1.00  0.00     0.166 HD
HETATM   25  C   UNL     1      21.124  46.737  48.623  1.00  0.00     0.016 A 
HETATM   26  C   UNL     1      20.505  45.382  48.635  1.00  0.00     0.069 C 
ENDBRANCH   5  16
TORSDOF 2
ENDMDL
MODEL 7
REMARK VINA RESULT:      -7.3     15.469     17.034
REMARK  2 active torsions:
REMARK  status: ('A' for Active; 'I' for Inactive)
REMARK    1  A    between atoms: C_5  and  O_6 
REMARK    2  A    between atoms: C_5  and  C_7 
ROOT
HETATM    1  C   UNL     1      39.134  49.516  65.968  1.00  0.00     0.050 C 
HETATM    2  C   UNL     1      38.407  48.275  65.557  1.00  0.00    -0.034 A 
HETATM    3  C   UNL     1      39.046  47.203  64.949  1.00  0.00     0.052 A 
HETATM    4  C   UNL     1      38.383  46.021  64.585  1.00  0.00     0.039 A 
HETATM    5  C   UNL     1      39.358  45.085  63.921  1.00  0.00     0.200 A 
HETATM    6  C   UNL     1      40.688  45.918  63.977  1.00  0.00     0.266 A 
HETATM    7  O   UNL     1      41.794  45.623  63.544  1.00  0.00    -0.269 OA
HETATM    8  N   UNL     1      40.389  47.124  64.606  1.00  0.00    -0.323 N 
HETATM    9  C   UNL     1      37.021  45.904  64.809  1.00  0.00     0.046 A 
HETATM   10 CL   UNL     1      36.133  44.508  64.339  1.00  0.00    -0.084 Cl
HETATM   11  C   UNL     1      36.351  46.958  65.439  1.00  0.00     0.025 A 
HETATM   12  C   UNL     1      37.038  48.126  65.816  1.00  0.00     0.011 A 
HETATM   13  H   UNL     1      41.084  47.843  64.741  1.00  0.00     0.169 HD
ENDROOT
BRANCH   5  14
HETATM   14  O   UNL     1      38.905  44.885  62.585  1.00  0.00    -0.371 OA
HETATM   15  H   UNL     1      39.678  44.551  62.097  1.00  0.00     0.212 HD
ENDBRANCH   5  14
BRANCH   5  16
HETATM   16  C   UNL     1      39.520  43.793  64.708  1.00  0.00     0.025 A 
HETATM   17  C   UNL     1      39.458  42.415  64.260  1.00  0.00     0.003 A 
HETATM   18  C   UNL     1      39.670  41.600  65.373  1.00  0.00     0.043 A 
HETATM   19  C   UNL     1      39.238  41.765  63.022  1.00  0.00     0.014 A 
HETATM   20  C   UNL     1      39.700  40.200  65.313  1.00  0.00     0.030 A 
HETATM   21  N   UNL     1      39.813  42.422  66.460  1.00  0.00    -0.359 N 
HETATM   22  C   UNL     1      39.501  39.596  64.071  1.00  0.00     0.002 A 
HETATM   23  C   UNL     1      39.268  40.366  62.939  1.00  0.00     0.001 A 
HETATM   24  H   UNL     1      39.946  42.092  67.405  1.00  0.00     0.166 HD
HETATM   25  C   UNL     1      39.685  43.734  66.094  1.00  0.00     0.016 A 
HETATM   26  C   UNL     1      39.703  44.808  67.127  1.00  0.00     0.069 C 
ENDBRANCH   5  16
TORSDOF 2
ENDMDL
MODEL 8
REMARK VINA RESULT:      -7.3      2.930      4.240
REMARK  2 active torsions:
REMARK  status: ('A' for Active; 'I' for Inactive)
REMARK    1  A    between atoms: C_5  and  O_6 
REMARK    2  A    between atoms: C_5  and  C_7 
ROOT
HETATM    1  C   UNL     1      27.975  41.139  53.693  1.00  0.00     0.050 C 
HETATM    2  C   UNL     1      27.639  42.572  53.418  1.00  0.00    -0.034 A 
HETATM    3  C   UNL     1      27.357  43.040  52.141  1.00  0.00     0.052 A 
HETATM    4  C   UNL     1      27.013  44.373  51.873  1.00  0.00     0.039 A 
HETATM    5  C   UNL     1      26.807  44.548  50.391  1.00  0.00     0.200 A 
HETATM    6  C   UNL     1      27.079  43.095  49.859  1.00  0.00     0.266 A 
HETATM    7  O   UNL     1      27.068  42.690  48.704  1.00  0.00    -0.269 OA
HETATM    8  N   UNL     1      27.376  42.303  50.965  1.00  0.00    -0.323 N 
HETATM    9  C   UNL     1      26.970  45.291  52.909  1.00  0.00     0.046 A 
HETATM   10 CL   UNL     1      26.608  46.952  52.647  1.00  0.00    -0.084 Cl
HETATM   11  C   UNL     1      27.227  44.847  54.211  1.00  0.00     0.025 A 
HETATM   12  C   UNL     1      27.551  43.501  54.462  1.00  0.00     0.011 A 
HETATM   13  H   UNL     1      27.609  41.326  50.875  1.00  0.00     0.169 HD
ENDROOT
BRANCH   5  14
HETATM   14  O   UNL     1      27.788  45.477  49.938  1.00  0.00    -0.371 OA
HETATM   15  H   UNL     1      27.293  46.276  49.690  1.00  0.00     0.212 HD
ENDBRANCH   5  14
BRANCH   5  16
HETATM   16  C   UNL     1      25.381  44.963  50.067  1.00  0.00     0.025 A 
HETATM   17  C   UNL     1      24.852  46.256  49.675  1.00  0.00     0.003 A 
HETATM   18  C   UNL     1      23.475  46.111  49.495  1.00  0.00     0.043 A 
HETATM   19  C   UNL     1      25.395  47.544  49.456  1.00  0.00     0.014 A 
HETATM   20  C   UNL     1      22.634  47.157  49.091  1.00  0.00     0.030 A 
HETATM   21  N   UNL     1      23.158  44.813  49.800  1.00  0.00    -0.359 N 
HETATM   22  C   UNL     1      23.209  48.407  48.865  1.00  0.00     0.002 A 
HETATM   23  C   UNL     1      24.572  48.602  49.048  1.00  0.00     0.001 A 
HETATM   24  H   UNL     1      22.218  44.442  49.786  1.00  0.00     0.166 HD
HETATM   25  C   UNL     1      24.272  44.119  50.185  1.00  0.00     0.016 A 
HETATM   26  C   UNL     1      24.155  42.713  50.662  1.00  0.00     0.069 C 
ENDBRANCH   5  16
TORSDOF 2
ENDMDL
MODEL 9
REMARK VINA RESULT:      -7.2      1.019      2.791
REMARK  2 active torsions:
REMARK  status: ('A' for Active; 'I' for Inactive)
REMARK    1  A    between atoms: C_5  and  O_6 
REMARK    2  A    between atoms: C_5  and  C_7 
ROOT
HETATM    1  C   UNL     1      28.886  46.415  56.787  1.00  0.00     0.050 C 
HETATM    2  C   UNL     1      29.107  45.257  55.865  1.00  0.00    -0.034 A 
HETATM    3  C   UNL     1      28.066  44.628  55.195  1.00  0.00     0.052 A 
HETATM    4  C   UNL     1      28.260  43.560  54.306  1.00  0.00     0.039 A 
HETATM    5  C   UNL     1      26.926  43.094  53.785  1.00  0.00     0.200 A 
HETATM    6  C   UNL     1      25.940  44.076  54.512  1.00  0.00     0.266 A 
HETATM    7  O   UNL     1      24.718  44.112  54.456  1.00  0.00    -0.269 OA
HETATM    8  N   UNL     1      26.714  44.929  55.294  1.00  0.00    -0.323 N 
HETATM    9  C   UNL     1      29.539  43.076  54.088  1.00  0.00     0.046 A 
HETATM   10 CL   UNL     1      29.847  41.737  53.054  1.00  0.00    -0.084 Cl
HETATM   11  C   UNL     1      30.613  43.701  54.731  1.00  0.00     0.025 A 
HETATM   12  C   UNL     1      30.399  44.784  55.603  1.00  0.00     0.011 A 
HETATM   13  H   UNL     1      26.301  45.642  55.876  1.00  0.00     0.169 HD
ENDROOT
BRANCH   5  14
HETATM   14  O   UNL     1      26.755  41.746  54.215  1.00  0.00    -0.371 OA
HETATM   15  H   UNL     1      27.055  41.197  53.471  1.00  0.00     0.212 HD
ENDBRANCH   5  14
BRANCH   5  16
HETATM   16  C   UNL     1      26.819  43.270  52.278  1.00  0.00     0.025 A 
HETATM   17  C   UNL     1      26.856  42.279  51.219  1.00  0.00     0.003 A 
HETATM   18  C   UNL     1      26.719  42.954  50.005  1.00  0.00     0.043 A 
HETATM   19  C   UNL     1      26.994  40.872  51.158  1.00  0.00     0.014 A 
HETATM   20  C   UNL     1      26.688  42.310  48.761  1.00  0.00     0.030 A 
HETATM   21  N   UNL     1      26.646  44.293  50.289  1.00  0.00    -0.359 N 
HETATM   22  C   UNL     1      26.807  40.921  48.742  1.00  0.00     0.002 A 
HETATM   23  C   UNL     1      26.963  40.208  49.924  1.00  0.00     0.001 A 
HETATM   24  H   UNL     1      26.576  45.017  49.588  1.00  0.00     0.166 HD
HETATM   25  C   UNL     1      26.746  44.509  51.636  1.00  0.00     0.016 A 
HETATM   26  C   UNL     1      26.794  45.898  52.174  1.00  0.00     0.069 C 
ENDBRANCH   5  16
TORSDOF 2
ENDMDL
MODEL 10
REMARK VINA RESULT:      -7.1      8.661     10.957
REMARK  2 active torsions:
REMARK  status: ('A' for Active; 'I' for Inactive)
REMARK    1  A    between atoms: C_5  and  O_6 
REMARK    2  A    between atoms: C_5  and  C_7 
ROOT
HETATM    1  C   UNL     1      23.333  51.219  49.205  1.00  0.00     0.050 C 
HETATM    2  C   UNL     1      22.609  49.933  48.951  1.00  0.00    -0.034 A 
HETATM    3  C   UNL     1      21.251  49.781  49.195  1.00  0.00     0.052 A 
HETATM    4  C   UNL     1      20.553  48.592  48.934  1.00  0.00     0.039 A 
HETATM    5  C   UNL     1      19.114  48.756  49.345  1.00  0.00     0.200 A 
HETATM    6  C   UNL     1      19.100  50.236  49.871  1.00  0.00     0.266 A 
HETATM    7  O   UNL     1      18.168  50.868  50.350  1.00  0.00    -0.269 OA
HETATM    8  N   UNL     1      20.391  50.735  49.724  1.00  0.00    -0.323 N 
HETATM    9  C   UNL     1      21.235  47.496  48.433  1.00  0.00     0.046 A 
HETATM   10 CL   UNL     1      20.457  45.990  48.140  1.00  0.00    -0.084 Cl
HETATM   11  C   UNL     1      22.600  47.622  48.155  1.00  0.00     0.025 A 
HETATM   12  C   UNL     1      23.277  48.830  48.405  1.00  0.00     0.011 A 
HETATM   13  H   UNL     1      20.640  51.669  50.014  1.00  0.00     0.169 HD
ENDROOT
BRANCH   5  14
HETATM   14  O   UNL     1      18.863  47.815  50.385  1.00  0.00    -0.371 OA
HETATM   15  H   UNL     1      19.735  47.455  50.624  1.00  0.00     0.212 HD
ENDBRANCH   5  14
BRANCH   5  16
HETATM   16  C   UNL     1      18.173  48.617  48.158  1.00  0.00     0.025 A 
HETATM   17  C   UNL     1      18.169  49.312  46.885  1.00  0.00     0.003 A 
HETATM   18  C   UNL     1      17.094  48.822  46.141  1.00  0.00     0.043 A 
HETATM   19  C   UNL     1      18.964  50.314  46.280  1.00  0.00     0.014 A 
HETATM   20  C   UNL     1      16.793  49.252  44.841  1.00  0.00     0.030 A 
HETATM   21  N   UNL     1      16.440  47.906  46.922  1.00  0.00    -0.359 N 
HETATM   22  C   UNL     1      17.612  50.226  44.270  1.00  0.00     0.002 A 
HETATM   23  C   UNL     1      18.682  50.755  44.980  1.00  0.00     0.001 A 
HETATM   24  H   UNL     1      15.601  47.418  46.641  1.00  0.00     0.166 HD
HETATM   25  C   UNL     1      17.040  47.797  48.147  1.00  0.00     0.016 A 
HETATM   26  C   UNL     1      16.443  46.934  49.204  1.00  0.00     0.069 C 
ENDBRANCH   5  16
TORSDOF 2
ENDMDL
