MODEL 1
REMARK VINA RESULT:     -10.4      0.000      0.000
REMARK  7 active torsions:
REMARK  status: ('A' for Active; 'I' for Inactive)
REMARK    1  A    between atoms: C_3  and  N_4 
REMARK    2  A    between atoms: N_7  and  C_9 
REMARK    3  A    between atoms: C_9  and  C_10 
REMARK    4  A    between atoms: C_10  and  C_11 
REMARK    5  A    between atoms: C_11  and  N_12 
REMARK       I    between atoms: N_12  and  C_13 
REMARK    6  A    between atoms: C_13  and  C_14 
REMARK    7  A    between atoms: C_14  and  N_15 
ROOT
HETATM    1  N   UNL     1      24.055  46.263  49.526  1.00  0.00    -0.360 N 
HETATM    2  C   UNL     1      24.332  47.556  49.922  1.00  0.00     0.237 C 
HETATM    3  O   UNL     1      24.744  47.802  51.057  1.00  0.00    -0.272 OA
HETATM    4  H   UNL     1      23.715  46.141  48.572  1.00  0.00     0.162 HD
ENDROOT
BRANCH   1   5
HETATM    5  C   UNL     1      24.465  45.131  50.320  1.00  0.00     0.124 C 
BRANCH   5   6
HETATM    6  C   UNL     1      25.864  44.638  49.946  1.00  0.00     0.047 C 
BRANCH   6   7
HETATM    7  C   UNL     1      26.007  43.160  50.279  1.00  0.00     0.236 C 
BRANCH   7   8
HETATM    8  N   UNL     1      26.926  42.925  51.465  1.00  0.00    -0.068 N 
HETATM    9  C   UNL     1      28.286  43.625  51.321  1.00  0.00     0.254 C 
HETATM   10  C   UNL     1      29.129  43.515  52.609  1.00  0.00     0.150 C 
HETATM   11  N   UNL     1      28.342  44.039  53.739  1.00  0.00    -0.377 N 
HETATM   12  C   UNL     1      27.123  43.255  53.997  1.00  0.00     0.150 C 
HETATM   13  C   UNL     1      26.204  43.347  52.761  1.00  0.00     0.254 C 
HETATM   14  H   UNL     1      27.106  41.915  51.536  1.00  0.00     0.280 HD
BRANCH  11  15
HETATM   15  C   UNL     1      29.115  44.446  54.836  1.00  0.00     0.037 A 
HETATM   16  C   UNL     1      28.869  45.700  55.450  1.00  0.00    -0.035 A 
HETATM   17  C   UNL     1      27.782  46.630  54.979  1.00  0.00     0.050 C 
HETATM   18  C   UNL     1      29.658  46.119  56.538  1.00  0.00     0.011 A 
HETATM   19  C   UNL     1      30.659  45.300  57.051  1.00  0.00     0.024 A 
HETATM   20  C   UNL     1      30.886  44.060  56.470  1.00  0.00     0.036 A 
HETATM   21  C   UNL     1      30.129  43.637  55.373  1.00  0.00     0.053 A 
HETATM   22 CL   UNL     1      32.115  43.034  57.101  1.00  0.00    -0.084 Cl
ENDBRANCH  11  15
ENDBRANCH   7   8
ENDBRANCH   6   7
ENDBRANCH   5   6
ENDBRANCH   1   5
BRANCH   2  23
HETATM   23  C   UNL     1      23.946  48.652  48.933  1.00  0.00     0.257 C 
BRANCH  23  24
HETATM   24  N   UNL     1      22.631  49.227  49.200  1.00  0.00    -0.224 N 
HETATM   25  N   UNL     1      22.603  50.419  49.950  1.00  0.00    -0.180 NA
HETATM   26  C   UNL     1      21.478  51.066  50.085  1.00  0.00     0.153 A 
HETATM   27  C   UNL     1      20.264  50.563  49.508  1.00  0.00     0.028 A 
HETATM   28  C   UNL     1      20.298  49.373  48.826  1.00  0.00     0.116 A 
HETATM   29  C   UNL     1      18.935  51.058  49.462  1.00  0.00     0.005 A 
HETATM   30  N   UNL     1      19.038  49.098  48.377  1.00  0.00    -0.350 N 
HETATM   31  C   UNL     1      21.496  48.614  48.630  1.00  0.00     0.291 A 
HETATM   32  H   UNL     1      18.778  48.286  47.831  1.00  0.00     0.166 HD
HETATM   33  C   UNL     1      18.184  50.117  48.746  1.00  0.00     0.044 A 
HETATM   34  C   UNL     1      16.817  50.280  48.492  1.00  0.00     0.030 A 
HETATM   35  C   UNL     1      16.201  51.439  48.976  1.00  0.00     0.002 A 
HETATM   36  C   UNL     1      16.924  52.392  49.690  1.00  0.00     0.001 A 
HETATM   37  C   UNL     1      18.289  52.214  49.943  1.00  0.00     0.014 A 
HETATM   38  O   UNL     1      21.523  47.543  48.034  1.00  0.00    -0.264 OA
ENDBRANCH  23  24
ENDBRANCH   2  23
TORSDOF 7
ENDMDL
MODEL 2
REMARK VINA RESULT:     -10.3      3.889     12.376
REMARK  7 active torsions:
REMARK  status: ('A' for Active; 'I' for Inactive)
REMARK    1  A    between atoms: C_3  and  N_4 
REMARK    2  A    between atoms: N_7  and  C_9 
REMARK    3  A    between atoms: C_9  and  C_10 
REMARK    4  A    between atoms: C_10  and  C_11 
REMARK    5  A    between atoms: C_11  and  N_12 
REMARK       I    between atoms: N_12  and  C_13 
REMARK    6  A    between atoms: C_13  and  C_14 
REMARK    7  A    between atoms: C_14  and  N_15 
ROOT
HETATM    1  N   UNL     1      24.541  47.315  50.301  1.00  0.00    -0.360 N 
HETATM    2  C   UNL     1      25.074  46.046  50.198  1.00  0.00     0.237 C 
HETATM    3  O   UNL     1      25.769  45.721  49.235  1.00  0.00    -0.272 OA
HETATM    4  H   UNL     1      23.973  47.506  51.126  1.00  0.00     0.162 HD
ENDROOT
BRANCH   1   5
HETATM    5  C   UNL     1      24.971  48.381  49.431  1.00  0.00     0.124 C 
BRANCH   5   6
HETATM    6  C   UNL     1      23.791  49.139  48.817  1.00  0.00     0.047 C 
BRANCH   6   7
HETATM    7  C   UNL     1      22.493  48.387  49.075  1.00  0.00     0.236 C 
BRANCH   7   8
HETATM    8  N   UNL     1      21.363  49.317  49.482  1.00  0.00    -0.068 N 
HETATM    9  C   UNL     1      21.305  50.599  48.639  1.00  0.00     0.254 C 
HETATM   10  C   UNL     1      20.050  51.440  48.955  1.00  0.00     0.150 C 
HETATM   11  N   UNL     1      18.855  50.596  48.781  1.00  0.00    -0.377 N 
HETATM   12  C   UNL     1      18.818  49.462  49.718  1.00  0.00     0.150 C 
HETATM   13  C   UNL     1      20.028  48.546  49.439  1.00  0.00     0.254 C 
HETATM   14  H   UNL     1      21.516  49.599  50.459  1.00  0.00     0.280 HD
BRANCH  11  15
HETATM   15  C   UNL     1      17.672  51.315  48.560  1.00  0.00     0.037 A 
HETATM   16  C   UNL     1      17.244  51.587  47.236  1.00  0.00    -0.035 A 
HETATM   17  C   UNL     1      18.010  51.115  46.028  1.00  0.00     0.050 C 
HETATM   18  C   UNL     1      16.068  52.327  47.012  1.00  0.00     0.011 A 
HETATM   19  C   UNL     1      15.289  52.767  48.078  1.00  0.00     0.024 A 
HETATM   20  C   UNL     1      15.690  52.482  49.376  1.00  0.00     0.036 A 
HETATM   21  C   UNL     1      16.868  51.769  49.618  1.00  0.00     0.053 A 
HETATM   22 CL   UNL     1      14.731  53.013  50.701  1.00  0.00    -0.084 Cl
ENDBRANCH  11  15
ENDBRANCH   7   8
ENDBRANCH   6   7
ENDBRANCH   5   6
ENDBRANCH   1   5
BRANCH   2  23
HETATM   23  C   UNL     1      24.615  45.044  51.255  1.00  0.00     0.257 C 
BRANCH  23  24
HETATM   24  N   UNL     1      25.666  44.692  52.205  1.00  0.00    -0.224 N 
HETATM   25  N   UNL     1      26.234  43.411  52.071  1.00  0.00    -0.180 NA
HETATM   26  C   UNL     1      27.283  43.097  52.782  1.00  0.00     0.153 A 
HETATM   27  C   UNL     1      27.843  44.026  53.721  1.00  0.00     0.028 A 
HETATM   28  C   UNL     1      27.244  45.251  53.878  1.00  0.00     0.116 A 
HETATM   29  C   UNL     1      28.970  43.975  54.581  1.00  0.00     0.005 A 
HETATM   30  N   UNL     1      27.942  45.954  54.817  1.00  0.00    -0.350 N 
HETATM   31  C   UNL     1      26.099  45.667  53.126  1.00  0.00     0.291 A 
HETATM   32  H   UNL     1      27.726  46.896  55.120  1.00  0.00     0.166 HD
HETATM   33  C   UNL     1      29.010  45.199  55.259  1.00  0.00     0.044 A 
HETATM   34  C   UNL     1      30.005  45.511  56.194  1.00  0.00     0.030 A 
HETATM   35  C   UNL     1      30.990  44.549  56.437  1.00  0.00     0.002 A 
HETATM   36  C   UNL     1      30.977  43.323  55.775  1.00  0.00     0.001 A 
HETATM   37  C   UNL     1      29.973  43.022  54.847  1.00  0.00     0.014 A 
HETATM   38  O   UNL     1      25.555  46.756  53.277  1.00  0.00    -0.264 OA
ENDBRANCH  23  24
ENDBRANCH   2  23
TORSDOF 7
ENDMDL
MODEL 3
REMARK VINA RESULT:     -10.1      3.769     11.692
REMARK  7 active torsions:
REMARK  status: ('A' for Active; 'I' for Inactive)
REMARK    1  A    between atoms: C_3  and  N_4 
REMARK    2  A    between atoms: N_7  and  C_9 
REMARK    3  A    between atoms: C_9  and  C_10 
REMARK    4  A    between atoms: C_10  and  C_11 
REMARK    5  A    between atoms: C_11  and  N_12 
REMARK       I    between atoms: N_12  and  C_13 
REMARK    6  A    between atoms: C_13  and  C_14 
REMARK    7  A    between atoms: C_14  and  N_15 
ROOT
HETATM    1  N   UNL     1      24.987  43.952  51.459  1.00  0.00    -0.360 N 
HETATM    2  C   UNL     1      25.580  45.126  51.038  1.00  0.00     0.237 C 
HETATM    3  O   UNL     1      25.904  45.292  49.862  1.00  0.00    -0.272 OA
HETATM    4  H   UNL     1      24.751  43.889  52.448  1.00  0.00     0.162 HD
ENDROOT
BRANCH   1   5
HETATM    5  C   UNL     1      24.495  42.980  50.513  1.00  0.00     0.124 C 
BRANCH   5   6
HETATM    6  C   UNL     1      22.983  43.088  50.307  1.00  0.00     0.047 C 
BRANCH   6   7
HETATM    7  C   UNL     1      22.681  43.747  48.969  1.00  0.00     0.236 C 
BRANCH   7   8
HETATM    8  N   UNL     1      22.030  45.110  49.134  1.00  0.00    -0.068 N 
HETATM    9  C   UNL     1      22.762  46.223  48.370  1.00  0.00     0.254 C 
HETATM   10  C   UNL     1      21.987  47.557  48.412  1.00  0.00     0.150 C 
HETATM   11  N   UNL     1      20.621  47.329  47.907  1.00  0.00    -0.377 N 
HETATM   12  C   UNL     1      19.851  46.397  48.746  1.00  0.00     0.150 C 
HETATM   13  C   UNL     1      20.546  45.019  48.725  1.00  0.00     0.254 C 
HETATM   14  H   UNL     1      22.053  45.357  50.132  1.00  0.00     0.280 HD
BRANCH  11  15
HETATM   15  C   UNL     1      19.982  48.486  47.440  1.00  0.00     0.037 A 
HETATM   16  C   UNL     1      19.216  48.442  46.248  1.00  0.00    -0.035 A 
HETATM   17  C   UNL     1      19.040  47.177  45.449  1.00  0.00     0.050 C 
HETATM   18  C   UNL     1      18.591  49.608  45.767  1.00  0.00     0.011 A 
HETATM   19  C   UNL     1      18.681  50.806  46.469  1.00  0.00     0.024 A 
HETATM   20  C   UNL     1      19.408  50.849  47.650  1.00  0.00     0.036 A 
HETATM   21  C   UNL     1      20.055  49.707  48.130  1.00  0.00     0.053 A 
HETATM   22 CL   UNL     1      19.518  52.322  48.531  1.00  0.00    -0.084 Cl
ENDBRANCH  11  15
ENDBRANCH   7   8
ENDBRANCH   6   7
ENDBRANCH   5   6
ENDBRANCH   1   5
BRANCH   2  23
HETATM   23  C   UNL     1      25.950  46.116  52.140  1.00  0.00     0.257 C 
BRANCH  23  24
HETATM   24  N   UNL     1      26.881  45.563  53.118  1.00  0.00    -0.224 N 
HETATM   25  N   UNL     1      27.571  44.395  52.743  1.00  0.00    -0.180 NA
HETATM   26  C   UNL     1      28.531  43.944  53.504  1.00  0.00     0.153 A 
HETATM   27  C   UNL     1      28.870  44.604  54.733  1.00  0.00     0.028 A 
HETATM   28  C   UNL     1      28.152  45.710  55.110  1.00  0.00     0.116 A 
HETATM   29  C   UNL     1      29.864  44.368  55.717  1.00  0.00     0.005 A 
HETATM   30  N   UNL     1      28.647  46.159  56.301  1.00  0.00    -0.350 N 
HETATM   31  C   UNL     1      27.094  46.266  54.322  1.00  0.00     0.291 A 
HETATM   32  H   UNL     1      28.310  46.971  56.803  1.00  0.00     0.166 HD
HETATM   33  C   UNL     1      29.702  45.360  56.692  1.00  0.00     0.044 A 
HETATM   34  C   UNL     1      30.523  45.447  57.822  1.00  0.00     0.030 A 
HETATM   35  C   UNL     1      31.543  44.499  57.957  1.00  0.00     0.002 A 
HETATM   36  C   UNL     1      31.730  43.503  57.001  1.00  0.00     0.001 A 
HETATM   37  C   UNL     1      30.897  43.424  55.878  1.00  0.00     0.014 A 
HETATM   38  O   UNL     1      26.442  47.246  54.666  1.00  0.00    -0.264 OA
ENDBRANCH  23  24
ENDBRANCH   2  23
TORSDOF 7
ENDMDL
MODEL 4
REMARK VINA RESULT:     -10.1      3.853     12.279
REMARK  7 active torsions:
REMARK  status: ('A' for Active; 'I' for Inactive)
REMARK    1  A    between atoms: C_3  and  N_4 
REMARK    2  A    between atoms: N_7  and  C_9 
REMARK    3  A    between atoms: C_9  and  C_10 
REMARK    4  A    between atoms: C_10  and  C_11 
REMARK    5  A    between atoms: C_11  and  N_12 
REMARK       I    between atoms: N_12  and  C_13 
REMARK    6  A    between atoms: C_13  and  C_14 
REMARK    7  A    between atoms: C_14  and  N_15 
ROOT
HETATM    1  N   UNL     1      25.144  44.549  50.041  1.00  0.00    -0.360 N 
HETATM    2  C   UNL     1      26.513  44.441  50.178  1.00  0.00     0.237 C 
HETATM    3  O   UNL     1      27.280  45.114  49.488  1.00  0.00    -0.272 OA
HETATM    4  H   UNL     1      24.577  43.956  50.645  1.00  0.00     0.162 HD
ENDROOT
BRANCH   1   5
HETATM    5  C   UNL     1      24.550  45.618  49.277  1.00  0.00     0.124 C 
BRANCH   5   6
HETATM    6  C   UNL     1      24.259  46.851  50.136  1.00  0.00     0.047 C 
BRANCH   6   7
HETATM    7  C   UNL     1      23.934  48.044  49.249  1.00  0.00     0.236 C 
BRANCH   7   8
HETATM    8  N   UNL     1      22.612  48.692  49.620  1.00  0.00    -0.068 N 
HETATM    9  C   UNL     1      22.572  50.197  49.315  1.00  0.00     0.254 C 
HETATM   10  C   UNL     1      21.166  50.793  49.538  1.00  0.00     0.150 C 
HETATM   11  N   UNL     1      20.192  50.028  48.738  1.00  0.00    -0.377 N 
HETATM   12  C   UNL     1      20.096  48.620  49.152  1.00  0.00     0.150 C 
HETATM   13  C   UNL     1      21.461  47.939  48.923  1.00  0.00     0.254 C 
HETATM   14  H   UNL     1      22.474  48.582  50.633  1.00  0.00     0.280 HD
BRANCH  11  15
HETATM   15  C   UNL     1      19.007  50.723  48.460  1.00  0.00     0.037 A 
HETATM   16  C   UNL     1      18.419  50.637  47.173  1.00  0.00    -0.035 A 
HETATM   17  C   UNL     1      19.013  49.803  46.068  1.00  0.00     0.050 C 
HETATM   18  C   UNL     1      17.240  51.351  46.886  1.00  0.00     0.011 A 
HETATM   19  C   UNL     1      16.613  52.116  47.866  1.00  0.00     0.024 A 
HETATM   20  C   UNL     1      17.171  52.182  49.135  1.00  0.00     0.036 A 
HETATM   21  C   UNL     1      18.354  51.500  49.431  1.00  0.00     0.053 A 
HETATM   22 CL   UNL     1      16.401  53.117  50.357  1.00  0.00    -0.084 Cl
ENDBRANCH  11  15
ENDBRANCH   7   8
ENDBRANCH   6   7
ENDBRANCH   5   6
ENDBRANCH   1   5
BRANCH   2  23
HETATM   23  C   UNL     1      27.003  43.333  51.106  1.00  0.00     0.257 C 
BRANCH  23  24
HETATM   24  N   UNL     1      27.728  43.838  52.269  1.00  0.00    -0.224 N 
HETATM   25  N   UNL     1      27.189  44.974  52.903  1.00  0.00    -0.180 NA
HETATM   26  C   UNL     1      27.696  45.376  54.037  1.00  0.00     0.153 A 
HETATM   27  C   UNL     1      28.815  44.698  54.627  1.00  0.00     0.028 A 
HETATM   28  C   UNL     1      29.361  43.626  53.968  1.00  0.00     0.116 A 
HETATM   29  C   UNL     1      29.532  44.883  55.837  1.00  0.00     0.005 A 
HETATM   30  N   UNL     1      30.405  43.151  54.711  1.00  0.00    -0.350 N 
HETATM   31  C   UNL     1      28.852  43.123  52.728  1.00  0.00     0.291 A 
HETATM   32  H   UNL     1      30.980  42.355  54.465  1.00  0.00     0.166 HD
HETATM   33  C   UNL     1      30.527  43.898  55.864  1.00  0.00     0.044 A 
HETATM   34  C   UNL     1      31.430  43.770  56.926  1.00  0.00     0.030 A 
HETATM   35  C   UNL     1      31.310  44.667  57.992  1.00  0.00     0.002 A 
HETATM   36  C   UNL     1      30.328  45.655  57.993  1.00  0.00     0.001 A 
HETATM   37  C   UNL     1      29.435  45.777  56.922  1.00  0.00     0.014 A 
HETATM   38  O   UNL     1      29.351  42.174  52.132  1.00  0.00    -0.264 OA
ENDBRANCH  23  24
ENDBRANCH   2  23
TORSDOF 7
ENDMDL
MODEL 5
REMARK VINA RESULT:     -10.0      2.321      3.252
REMARK  7 active torsions:
REMARK  status: ('A' for Active; 'I' for Inactive)
REMARK    1  A    between atoms: C_3  and  N_4 
REMARK    2  A    between atoms: N_7  and  C_9 
REMARK    3  A    between atoms: C_9  and  C_10 
REMARK    4  A    between atoms: C_10  and  C_11 
REMARK    5  A    between atoms: C_11  and  N_12 
REMARK       I    between atoms: N_12  and  C_13 
REMARK    6  A    between atoms: C_13  and  C_14 
REMARK    7  A    between atoms: C_14  and  N_15 
ROOT
HETATM    1  N   UNL     1      23.325  44.026  48.117  1.00  0.00    -0.360 N 
HETATM    2  C   UNL     1      22.221  43.348  47.641  1.00  0.00     0.237 C 
HETATM    3  O   UNL     1      22.135  42.123  47.731  1.00  0.00    -0.272 OA
HETATM    4  H   UNL     1      23.324  45.039  48.002  1.00  0.00     0.162 HD
ENDROOT
BRANCH   1   5
HETATM    5  C   UNL     1      24.300  43.373  48.956  1.00  0.00     0.124 C 
BRANCH   5   6
HETATM    6  C   UNL     1      25.241  44.372  49.635  1.00  0.00     0.047 C 
BRANCH   6   7
HETATM    7  C   UNL     1      24.491  45.159  50.699  1.00  0.00     0.236 C 
BRANCH   7   8
HETATM    8  N   UNL     1      25.146  45.046  52.065  1.00  0.00    -0.068 N 
HETATM    9  C   UNL     1      25.811  43.682  52.302  1.00  0.00     0.254 C 
HETATM   10  C   UNL     1      26.615  43.654  53.619  1.00  0.00     0.150 C 
HETATM   11  N   UNL     1      27.587  44.761  53.607  1.00  0.00    -0.377 N 
HETATM   12  C   UNL     1      26.944  46.084  53.564  1.00  0.00     0.150 C 
HETATM   13  C   UNL     1      26.146  46.206  52.249  1.00  0.00     0.254 C 
HETATM   14  H   UNL     1      24.417  45.160  52.781  1.00  0.00     0.280 HD
BRANCH  11  15
HETATM   15  C   UNL     1      28.675  44.579  54.472  1.00  0.00     0.037 A 
HETATM   16  C   UNL     1      29.666  43.611  54.171  1.00  0.00    -0.035 A 
HETATM   17  C   UNL     1      29.613  42.761  52.928  1.00  0.00     0.050 C 
HETATM   18  C   UNL     1      30.748  43.411  55.049  1.00  0.00     0.011 A 
HETATM   19  C   UNL     1      30.884  44.182  56.200  1.00  0.00     0.024 A 
HETATM   20  C   UNL     1      29.930  45.149  56.486  1.00  0.00     0.036 A 
HETATM   21  C   UNL     1      28.836  45.345  55.638  1.00  0.00     0.053 A 
HETATM   22 CL   UNL     1      30.092  46.115  57.900  1.00  0.00    -0.084 Cl
ENDBRANCH  11  15
ENDBRANCH   7   8
ENDBRANCH   6   7
ENDBRANCH   5   6
ENDBRANCH   1   5
BRANCH   2  23
HETATM   23  C   UNL     1      21.211  44.187  46.862  1.00  0.00     0.257 C 
BRANCH  23  24
HETATM   24  N   UNL     1      21.011  45.517  47.431  1.00  0.00    -0.224 N 
HETATM   25  N   UNL     1      21.906  46.521  47.016  1.00  0.00    -0.180 NA
HETATM   26  C   UNL     1      21.685  47.761  47.361  1.00  0.00     0.153 A 
HETATM   27  C   UNL     1      20.561  48.108  48.183  1.00  0.00     0.028 A 
HETATM   28  C   UNL     1      19.728  47.110  48.622  1.00  0.00     0.116 A 
HETATM   29  C   UNL     1      20.062  49.343  48.672  1.00  0.00     0.005 A 
HETATM   30  N   UNL     1      18.744  47.673  49.383  1.00  0.00    -0.350 N 
HETATM   31  C   UNL     1      19.904  45.731  48.277  1.00  0.00     0.291 A 
HETATM   32  H   UNL     1      17.986  47.167  49.824  1.00  0.00     0.166 HD
HETATM   33  C   UNL     1      18.920  49.042  49.424  1.00  0.00     0.044 A 
HETATM   34  C   UNL     1      18.153  50.027  50.057  1.00  0.00     0.030 A 
HETATM   35  C   UNL     1      18.560  51.358  49.912  1.00  0.00     0.002 A 
HETATM   36  C   UNL     1      19.690  51.687  49.168  1.00  0.00     0.001 A 
HETATM   37  C   UNL     1      20.452  50.691  48.545  1.00  0.00     0.014 A 
HETATM   38  O   UNL     1      19.169  44.838  48.682  1.00  0.00    -0.264 OA
ENDBRANCH  23  24
ENDBRANCH   2  23
TORSDOF 7
ENDMDL
MODEL 6
REMARK VINA RESULT:      -9.8      4.011     11.573
REMARK  7 active torsions:
REMARK  status: ('A' for Active; 'I' for Inactive)
REMARK    1  A    between atoms: C_3  and  N_4 
REMARK    2  A    between atoms: N_7  and  C_9 
REMARK    3  A    between atoms: C_9  and  C_10 
REMARK    4  A    between atoms: C_10  and  C_11 
REMARK    5  A    between atoms: C_11  and  N_12 
REMARK       I    between atoms: N_12  and  C_13 
REMARK    6  A    between atoms: C_13  and  C_14 
REMARK    7  A    between atoms: C_14  and  N_15 
ROOT
HETATM    1  N   UNL     1      24.397  44.685  50.147  1.00  0.00    -0.360 N 
HETATM    2  C   UNL     1      25.332  45.698  50.224  1.00  0.00     0.237 C 
HETATM    3  O   UNL     1      26.142  45.889  49.316  1.00  0.00    -0.272 OA
HETATM    4  H   UNL     1      23.763  44.589  50.939  1.00  0.00     0.162 HD
ENDROOT
BRANCH   1   5
HETATM    5  C   UNL     1      24.162  43.974  48.914  1.00  0.00     0.124 C 
BRANCH   5   6
HETATM    6  C   UNL     1      23.261  44.758  47.957  1.00  0.00     0.047 C 
BRANCH   6   7
HETATM    7  C   UNL     1      21.842  44.818  48.503  1.00  0.00     0.236 C 
BRANCH   7   8
HETATM    8  N   UNL     1      21.449  46.222  48.927  1.00  0.00    -0.068 N 
HETATM    9  C   UNL     1      22.138  47.317  48.098  1.00  0.00     0.254 C 
HETATM   10  C   UNL     1      21.593  48.721  48.432  1.00  0.00     0.150 C 
HETATM   11  N   UNL     1      20.129  48.718  48.257  1.00  0.00    -0.377 N 
HETATM   12  C   UNL     1      19.447  47.798  49.182  1.00  0.00     0.150 C 
HETATM   13  C   UNL     1      19.913  46.358  48.884  1.00  0.00     0.254 C 
HETATM   14  H   UNL     1      21.736  46.353  49.906  1.00  0.00     0.280 HD
BRANCH  11  15
HETATM   15  C   UNL     1      19.573  49.988  48.051  1.00  0.00     0.037 A 
HETATM   16  C   UNL     1      19.771  51.013  49.011  1.00  0.00    -0.035 A 
HETATM   17  C   UNL     1      20.582  50.800  50.263  1.00  0.00     0.050 C 
HETATM   18  C   UNL     1      19.197  52.282  48.817  1.00  0.00     0.011 A 
HETATM   19  C   UNL     1      18.463  52.565  47.669  1.00  0.00     0.024 A 
HETATM   20  C   UNL     1      18.288  51.574  46.714  1.00  0.00     0.036 A 
HETATM   21  C   UNL     1      18.831  50.299  46.901  1.00  0.00     0.053 A 
HETATM   22 CL   UNL     1      17.391  51.914  45.285  1.00  0.00    -0.084 Cl
ENDBRANCH  11  15
ENDBRANCH   7   8
ENDBRANCH   6   7
ENDBRANCH   5   6
ENDBRANCH   1   5
BRANCH   2  23
HETATM   23  C   UNL     1      25.397  46.444  51.554  1.00  0.00     0.257 C 
BRANCH  23  24
HETATM   24  N   UNL     1      26.318  45.834  52.508  1.00  0.00    -0.224 N 
HETATM   25  N   UNL     1      26.891  44.604  52.134  1.00  0.00    -0.180 NA
HETATM   26  C   UNL     1      27.840  44.088  52.867  1.00  0.00     0.153 A 
HETATM   27  C   UNL     1      28.284  44.742  54.065  1.00  0.00     0.028 A 
HETATM   28  C   UNL     1      27.678  45.913  54.444  1.00  0.00     0.116 A 
HETATM   29  C   UNL     1      29.295  44.443  55.014  1.00  0.00     0.005 A 
HETATM   30  N   UNL     1      28.257  46.342  55.603  1.00  0.00    -0.350 N 
HETATM   31  C   UNL     1      26.639  46.541  53.685  1.00  0.00     0.291 A 
HETATM   32  H   UNL     1      28.011  47.190  56.099  1.00  0.00     0.166 HD
HETATM   33  C   UNL     1      29.257  45.464  55.972  1.00  0.00     0.044 A 
HETATM   34  C   UNL     1      30.129  45.504  57.066  1.00  0.00     0.030 A 
HETATM   35  C   UNL     1      31.070  44.476  57.182  1.00  0.00     0.002 A 
HETATM   36  C   UNL     1      31.133  43.448  56.244  1.00  0.00     0.001 A 
HETATM   37  C   UNL     1      30.251  43.417  55.158  1.00  0.00     0.014 A 
HETATM   38  O   UNL     1      26.087  47.579  54.032  1.00  0.00    -0.264 OA
ENDBRANCH  23  24
ENDBRANCH   2  23
TORSDOF 7
ENDMDL
MODEL 7
REMARK VINA RESULT:      -9.6      4.203     11.998
REMARK  7 active torsions:
REMARK  status: ('A' for Active; 'I' for Inactive)
REMARK    1  A    between atoms: C_3  and  N_4 
REMARK    2  A    between atoms: N_7  and  C_9 
REMARK    3  A    between atoms: C_9  and  C_10 
REMARK    4  A    between atoms: C_10  and  C_11 
REMARK    5  A    between atoms: C_11  and  N_12 
REMARK       I    between atoms: N_12  and  C_13 
REMARK    6  A    between atoms: C_13  and  C_14 
REMARK    7  A    between atoms: C_14  and  N_15 
ROOT
HETATM    1  N   UNL     1      24.961  43.269  49.788  1.00  0.00    -0.360 N 
HETATM    2  C   UNL     1      26.230  42.727  49.822  1.00  0.00     0.237 C 
HETATM    3  O   UNL     1      26.979  42.793  48.847  1.00  0.00    -0.272 OA
HETATM    4  H   UNL     1      24.400  43.171  50.634  1.00  0.00     0.162 HD
ENDROOT
BRANCH   1   5
HETATM    5  C   UNL     1      24.548  44.145  48.720  1.00  0.00     0.124 C 
BRANCH   5   6
HETATM    6  C   UNL     1      23.653  45.282  49.217  1.00  0.00     0.047 C 
BRANCH   6   7
HETATM    7  C   UNL     1      22.193  44.969  48.920  1.00  0.00     0.236 C 
BRANCH   7   8
HETATM    8  N   UNL     1      21.514  46.084  48.145  1.00  0.00    -0.068 N 
HETATM    9  C   UNL     1      20.060  46.322  48.581  1.00  0.00     0.254 C 
HETATM   10  C   UNL     1      19.451  47.568  47.904  1.00  0.00     0.150 C 
HETATM   11  N   UNL     1      20.319  48.728  48.175  1.00  0.00    -0.377 N 
HETATM   12  C   UNL     1      21.664  48.581  47.597  1.00  0.00     0.150 C 
HETATM   13  C   UNL     1      22.358  47.371  48.255  1.00  0.00     0.254 C 
HETATM   14  H   UNL     1      21.496  45.820  47.151  1.00  0.00     0.280 HD
BRANCH  11  15
HETATM   15  C   UNL     1      19.674  49.967  48.052  1.00  0.00     0.037 A 
HETATM   16  C   UNL     1      19.814  50.944  49.070  1.00  0.00    -0.035 A 
HETATM   17  C   UNL     1      20.655  50.714  50.299  1.00  0.00     0.050 C 
HETATM   18  C   UNL     1      19.151  52.180  48.958  1.00  0.00     0.011 A 
HETATM   19  C   UNL     1      18.383  52.478  47.836  1.00  0.00     0.024 A 
HETATM   20  C   UNL     1      18.264  51.536  46.825  1.00  0.00     0.036 A 
HETATM   21  C   UNL     1      18.896  50.293  46.930  1.00  0.00     0.053 A 
HETATM   22 CL   UNL     1      17.326  51.897  45.428  1.00  0.00    -0.084 Cl
ENDBRANCH  11  15
ENDBRANCH   7   8
ENDBRANCH   6   7
ENDBRANCH   5   6
ENDBRANCH   1   5
BRANCH   2  23
HETATM   23  C   UNL     1      26.572  41.912  51.067  1.00  0.00     0.257 C 
BRANCH  23  24
HETATM   24  N   UNL     1      27.337  42.668  52.054  1.00  0.00    -0.224 N 
HETATM   25  N   UNL     1      26.829  43.930  52.414  1.00  0.00    -0.180 NA
HETATM   26  C   UNL     1      27.376  44.583  53.404  1.00  0.00     0.153 A 
HETATM   27  C   UNL     1      28.506  44.047  54.106  1.00  0.00     0.028 A 
HETATM   28  C   UNL     1      29.022  42.840  53.707  1.00  0.00     0.116 A 
HETATM   29  C   UNL     1      29.263  44.504  55.216  1.00  0.00     0.005 A 
HETATM   30  N   UNL     1      30.084  42.539  54.512  1.00  0.00    -0.350 N 
HETATM   31  C   UNL     1      28.469  42.064  52.639  1.00  0.00     0.291 A 
HETATM   32  H   UNL     1      30.643  41.697  54.447  1.00  0.00     0.166 HD
HETATM   33  C   UNL     1      30.249  43.537  55.450  1.00  0.00     0.044 A 
HETATM   34  C   UNL     1      31.185  43.650  56.485  1.00  0.00     0.030 A 
HETATM   35  C   UNL     1      31.106  44.778  57.309  1.00  0.00     0.002 A 
HETATM   36  C   UNL     1      30.134  45.754  57.101  1.00  0.00     0.001 A 
HETATM   37  C   UNL     1      29.209  45.632  56.058  1.00  0.00     0.014 A 
HETATM   38  O   UNL     1      28.940  40.993  52.272  1.00  0.00    -0.264 OA
ENDBRANCH  23  24
ENDBRANCH   2  23
TORSDOF 7
ENDMDL
MODEL 8
REMARK VINA RESULT:      -9.6      4.118     11.634
REMARK  7 active torsions:
REMARK  status: ('A' for Active; 'I' for Inactive)
REMARK    1  A    between atoms: C_3  and  N_4 
REMARK    2  A    between atoms: N_7  and  C_9 
REMARK    3  A    between atoms: C_9  and  C_10 
REMARK    4  A    between atoms: C_10  and  C_11 
REMARK    5  A    between atoms: C_11  and  N_12 
REMARK       I    between atoms: N_12  and  C_13 
REMARK    6  A    between atoms: C_13  and  C_14 
REMARK    7  A    between atoms: C_14  and  N_15 
ROOT
HETATM    1  N   UNL     1      23.414  43.969  48.827  1.00  0.00    -0.360 N 
HETATM    2  C   UNL     1      24.464  44.332  49.646  1.00  0.00     0.237 C 
HETATM    3  O   UNL     1      25.509  44.788  49.180  1.00  0.00    -0.272 OA
HETATM    4  H   UNL     1      22.584  43.597  49.287  1.00  0.00     0.162 HD
ENDROOT
BRANCH   1   5
HETATM    5  C   UNL     1      23.390  44.335  47.432  1.00  0.00     0.124 C 
BRANCH   5   6
HETATM    6  C   UNL     1      22.385  45.452  47.143  1.00  0.00     0.047 C 
BRANCH   6   7
HETATM    7  C   UNL     1      20.978  44.881  47.047  1.00  0.00     0.236 C 
BRANCH   7   8
HETATM    8  N   UNL     1      19.916  45.911  47.392  1.00  0.00    -0.068 N 
HETATM    9  C   UNL     1      20.095  46.514  48.793  1.00  0.00     0.254 C 
HETATM   10  C   UNL     1      19.112  47.676  49.050  1.00  0.00     0.150 C 
HETATM   11  N   UNL     1      19.270  48.677  47.980  1.00  0.00    -0.377 N 
HETATM   12  C   UNL     1      18.922  48.151  46.651  1.00  0.00     0.150 C 
HETATM   13  C   UNL     1      19.890  47.002  46.302  1.00  0.00     0.254 C 
HETATM   14  H   UNL     1      18.999  45.445  47.373  1.00  0.00     0.280 HD
BRANCH  11  15
HETATM   15  C   UNL     1      18.823  49.961  48.326  1.00  0.00     0.037 A 
HETATM   16  C   UNL     1      19.737  51.044  48.365  1.00  0.00    -0.035 A 
HETATM   17  C   UNL     1      21.197  50.880  48.031  1.00  0.00     0.050 C 
HETATM   18  C   UNL     1      19.294  52.328  48.732  1.00  0.00     0.011 A 
HETATM   19  C   UNL     1      17.953  52.564  49.022  1.00  0.00     0.024 A 
HETATM   20  C   UNL     1      17.050  51.513  48.959  1.00  0.00     0.036 A 
HETATM   21  C   UNL     1      17.476  50.225  48.620  1.00  0.00     0.053 A 
HETATM   22 CL   UNL     1      15.388  51.794  49.306  1.00  0.00    -0.084 Cl
ENDBRANCH  11  15
ENDBRANCH   7   8
ENDBRANCH   6   7
ENDBRANCH   5   6
ENDBRANCH   1   5
BRANCH   2  23
HETATM   23  C   UNL     1      24.307  43.982  51.123  1.00  0.00     0.257 C 
BRANCH  23  24
HETATM   24  N   UNL     1      25.495  44.290  51.914  1.00  0.00    -0.224 N 
HETATM   25  N   UNL     1      25.525  45.548  52.545  1.00  0.00    -0.180 NA
HETATM   26  C   UNL     1      26.480  45.819  53.392  1.00  0.00     0.153 A 
HETATM   27  C   UNL     1      27.517  44.864  53.664  1.00  0.00     0.028 A 
HETATM   28  C   UNL     1      27.502  43.664  53.001  1.00  0.00     0.116 A 
HETATM   29  C   UNL     1      28.632  44.869  54.542  1.00  0.00     0.005 A 
HETATM   30  N   UNL     1      28.577  42.930  53.415  1.00  0.00    -0.350 N 
HETATM   31  C   UNL     1      26.482  43.295  52.067  1.00  0.00     0.291 A 
HETATM   32  H   UNL     1      28.803  41.996  53.097  1.00  0.00     0.166 HD
HETATM   33  C   UNL     1      29.282  43.641  54.365  1.00  0.00     0.044 A 
HETATM   34  C   UNL     1      30.431  43.287  55.082  1.00  0.00     0.030 A 
HETATM   35  C   UNL     1      30.926  44.210  56.009  1.00  0.00     0.002 A 
HETATM   36  C   UNL     1      30.299  45.438  56.207  1.00  0.00     0.001 A 
HETATM   37  C   UNL     1      29.154  45.781  55.479  1.00  0.00     0.014 A 
HETATM   38  O   UNL     1      26.477  42.228  51.463  1.00  0.00    -0.264 OA
ENDBRANCH  23  24
ENDBRANCH   2  23
TORSDOF 7
ENDMDL
MODEL 9
REMARK VINA RESULT:      -9.2      4.096     10.931
REMARK  7 active torsions:
REMARK  status: ('A' for Active; 'I' for Inactive)
REMARK    1  A    between atoms: C_3  and  N_4 
REMARK    2  A    between atoms: N_7  and  C_9 
REMARK    3  A    between atoms: C_9  and  C_10 
REMARK    4  A    between atoms: C_10  and  C_11 
REMARK    5  A    between atoms: C_11  and  N_12 
REMARK       I    between atoms: N_12  and  C_13 
REMARK    6  A    between atoms: C_13  and  C_14 
REMARK    7  A    between atoms: C_14  and  N_15 
ROOT
HETATM    1  N   UNL     1      23.932  44.084  47.783  1.00  0.00    -0.360 N 
HETATM    2  C   UNL     1      23.765  44.336  49.130  1.00  0.00     0.237 C 
HETATM    3  O   UNL     1      22.860  43.802  49.773  1.00  0.00    -0.272 OA
HETATM    4  H   UNL     1      24.702  44.566  47.321  1.00  0.00     0.162 HD
ENDROOT
BRANCH   1   5
HETATM    5  C   UNL     1      23.227  43.009  47.129  1.00  0.00     0.124 C 
BRANCH   5   6
HETATM    6  C   UNL     1      22.242  43.519  46.076  1.00  0.00     0.047 C 
BRANCH   6   7
HETATM    7  C   UNL     1      20.815  43.404  46.592  1.00  0.00     0.236 C 
BRANCH   7   8
HETATM    8  N   UNL     1      20.163  44.762  46.783  1.00  0.00    -0.068 N 
HETATM    9  C   UNL     1      20.216  45.256  48.237  1.00  0.00     0.254 C 
HETATM   10  C   UNL     1      19.705  46.706  48.372  1.00  0.00     0.150 C 
HETATM   11  N   UNL     1      20.472  47.568  47.454  1.00  0.00    -0.377 N 
HETATM   12  C   UNL     1      20.277  47.210  46.040  1.00  0.00     0.150 C 
HETATM   13  C   UNL     1      20.803  45.777  45.814  1.00  0.00     0.254 C 
HETATM   14  H   UNL     1      19.171  44.681  46.523  1.00  0.00     0.280 HD
BRANCH  11  15
HETATM   15  C   UNL     1      20.465  48.926  47.804  1.00  0.00     0.037 A 
HETATM   16  C   UNL     1      21.648  49.539  48.288  1.00  0.00    -0.035 A 
HETATM   17  C   UNL     1      22.945  48.788  48.434  1.00  0.00     0.050 C 
HETATM   18  C   UNL     1      21.638  50.897  48.659  1.00  0.00     0.011 A 
HETATM   19  C   UNL     1      20.485  51.665  48.521  1.00  0.00     0.024 A 
HETATM   20  C   UNL     1      19.332  51.076  48.023  1.00  0.00     0.036 A 
HETATM   21  C   UNL     1      19.317  49.723  47.672  1.00  0.00     0.053 A 
HETATM   22 CL   UNL     1      17.904  52.018  47.838  1.00  0.00    -0.084 Cl
ENDBRANCH  11  15
ENDBRANCH   7   8
ENDBRANCH   6   7
ENDBRANCH   5   6
ENDBRANCH   1   5
BRANCH   2  23
HETATM   23  C   UNL     1      24.657  45.427  49.718  1.00  0.00     0.257 C 
BRANCH  23  24
HETATM   24  N   UNL     1      25.613  44.919  50.697  1.00  0.00    -0.224 N 
HETATM   25  N   UNL     1      26.354  43.782  50.325  1.00  0.00    -0.180 NA
HETATM   26  C   UNL     1      27.334  43.376  51.086  1.00  0.00     0.153 A 
HETATM   27  C   UNL     1      27.643  44.054  52.313  1.00  0.00     0.028 A 
HETATM   28  C   UNL     1      26.877  45.128  52.688  1.00  0.00     0.116 A 
HETATM   29  C   UNL     1      28.648  43.866  53.297  1.00  0.00     0.005 A 
HETATM   30  N   UNL     1      27.351  45.602  53.877  1.00  0.00    -0.350 N 
HETATM   31  C   UNL     1      25.794  45.634  51.899  1.00  0.00     0.291 A 
HETATM   32  H   UNL     1      26.979  46.399  54.377  1.00  0.00     0.166 HD
HETATM   33  C   UNL     1      28.441  44.852  54.270  1.00  0.00     0.044 A 
HETATM   34  C   UNL     1      29.259  44.978  55.400  1.00  0.00     0.030 A 
HETATM   35  C   UNL     1      30.320  44.078  55.536  1.00  0.00     0.002 A 
HETATM   36  C   UNL     1      30.551  43.089  54.582  1.00  0.00     0.001 A 
HETATM   37  C   UNL     1      29.722  42.969  53.461  1.00  0.00     0.014 A 
HETATM   38  O   UNL     1      25.100  46.584  52.241  1.00  0.00    -0.264 OA
ENDBRANCH  23  24
ENDBRANCH   2  23
TORSDOF 7
ENDMDL
MODEL 10
REMARK VINA RESULT:      -9.1      3.903     12.217
REMARK  7 active torsions:
REMARK  status: ('A' for Active; 'I' for Inactive)
REMARK    1  A    between atoms: C_3  and  N_4 
REMARK    2  A    between atoms: N_7  and  C_9 
REMARK    3  A    between atoms: C_9  and  C_10 
REMARK    4  A    between atoms: C_10  and  C_11 
REMARK    5  A    between atoms: C_11  and  N_12 
REMARK       I    between atoms: N_12  and  C_13 
REMARK    6  A    between atoms: C_13  and  C_14 
REMARK    7  A    between atoms: C_14  and  N_15 
ROOT
HETATM    1  N   UNL     1      24.641  43.293  49.499  1.00  0.00    -0.360 N 
HETATM    2  C   UNL     1      25.963  42.975  49.740  1.00  0.00     0.237 C 
HETATM    3  O   UNL     1      26.874  43.516  49.112  1.00  0.00    -0.272 OA
HETATM    4  H   UNL     1      23.945  42.800  50.057  1.00  0.00     0.162 HD
ENDROOT
BRANCH   1   5
HETATM    5  C   UNL     1      24.279  44.434  48.696  1.00  0.00     0.124 C 
BRANCH   5   6
HETATM    6  C   UNL     1      22.879  44.955  49.028  1.00  0.00     0.047 C 
BRANCH   6   7
HETATM    7  C   UNL     1      22.447  45.992  48.001  1.00  0.00     0.236 C 
BRANCH   7   8
HETATM    8  N   UNL     1      21.521  47.038  48.597  1.00  0.00    -0.068 N 
HETATM    9  C   UNL     1      21.459  48.330  47.769  1.00  0.00     0.254 C 
HETATM   10  C   UNL     1      20.386  49.303  48.298  1.00  0.00     0.150 C 
HETATM   11  N   UNL     1      19.090  48.602  48.347  1.00  0.00    -0.377 N 
HETATM   12  C   UNL     1      19.092  47.467  49.284  1.00  0.00     0.150 C 
HETATM   13  C   UNL     1      20.120  46.424  48.800  1.00  0.00     0.254 C 
HETATM   14  H   UNL     1      21.877  47.288  49.529  1.00  0.00     0.280 HD
BRANCH  11  15
HETATM   15  C   UNL     1      17.976  49.454  48.336  1.00  0.00     0.037 A 
HETATM   16  C   UNL     1      16.852  49.140  47.532  1.00  0.00    -0.035 A 
HETATM   17  C   UNL     1      16.789  47.899  46.681  1.00  0.00     0.050 C 
HETATM   18  C   UNL     1      15.742  50.005  47.503  1.00  0.00     0.011 A 
HETATM   19  C   UNL     1      15.712  51.153  48.289  1.00  0.00     0.024 A 
HETATM   20  C   UNL     1      16.799  51.451  49.098  1.00  0.00     0.036 A 
HETATM   21  C   UNL     1      17.921  50.617  49.121  1.00  0.00     0.053 A 
HETATM   22 CL   UNL     1      16.771  52.863  50.080  1.00  0.00    -0.084 Cl
ENDBRANCH  11  15
ENDBRANCH   7   8
ENDBRANCH   6   7
ENDBRANCH   5   6
ENDBRANCH   1   5
BRANCH   2  23
HETATM   23  C   UNL     1      26.204  41.813  50.700  1.00  0.00     0.257 C 
BRANCH  23  24
HETATM   24  N   UNL     1      27.020  42.182  51.852  1.00  0.00    -0.224 N 
HETATM   25  N   UNL     1      28.149  41.381  52.107  1.00  0.00    -0.180 NA
HETATM   26  C   UNL     1      29.005  41.750  53.021  1.00  0.00     0.153 A 
HETATM   27  C   UNL     1      28.793  42.943  53.791  1.00  0.00     0.028 A 
HETATM   28  C   UNL     1      27.660  43.683  53.566  1.00  0.00     0.116 A 
HETATM   29  C   UNL     1      29.552  43.594  54.798  1.00  0.00     0.005 A 
HETATM   30  N   UNL     1      27.674  44.757  54.410  1.00  0.00    -0.350 N 
HETATM   31  C   UNL     1      26.684  43.345  52.575  1.00  0.00     0.291 A 
HETATM   32  H   UNL     1      26.963  45.477  54.448  1.00  0.00     0.166 HD
HETATM   33  C   UNL     1      28.825  44.732  55.170  1.00  0.00     0.044 A 
HETATM   34  C   UNL     1      29.278  45.630  56.144  1.00  0.00     0.030 A 
HETATM   35  C   UNL     1      30.510  45.362  56.750  1.00  0.00     0.002 A 
HETATM   36  C   UNL     1      31.255  44.239  56.397  1.00  0.00     0.001 A 
HETATM   37  C   UNL     1      30.788  43.346  55.426  1.00  0.00     0.014 A 
HETATM   38  O   UNL     1      25.664  43.998  52.385  1.00  0.00    -0.264 OA
ENDBRANCH  23  24
ENDBRANCH   2  23
TORSDOF 7
ENDMDL
