MODEL 1
REMARK VINA RESULT:      -9.2      0.000      0.000
REMARK  2 active torsions:
REMARK  status: ('A' for Active; 'I' for Inactive)
REMARK    1  A    between atoms: C_7  and  C_8 
REMARK    2  A    between atoms: C_8  and  O_9 
ROOT
HETATM    1  C   UNL     1      26.172  44.756  51.061  1.00  0.00     0.199 A 
HETATM    2  C   UNL     1      24.681  44.304  51.200  1.00  0.00     0.266 A 
HETATM    3  O   UNL     1      24.265  43.226  51.601  1.00  0.00    -0.269 OA
HETATM    4  N   UNL     1      23.883  45.341  50.717  1.00  0.00    -0.323 N 
HETATM    5  C   UNL     1      24.656  46.406  50.278  1.00  0.00     0.045 A 
HETATM    6  C   UNL     1      26.015  46.134  50.464  1.00  0.00     0.019 A 
HETATM    7  C   UNL     1      24.202  47.579  49.712  1.00  0.00     0.032 A 
HETATM    8  C   UNL     1      25.161  48.517  49.318  1.00  0.00     0.026 A 
HETATM    9  C   UNL     1      26.531  48.256  49.496  1.00  0.00     0.034 A 
HETATM   10 CL   UNL     1      27.686  49.428  48.993  1.00  0.00    -0.084 Cl
HETATM   11  C   UNL     1      26.971  47.059  50.066  1.00  0.00     0.037 A 
HETATM   12  H   UNL     1      22.877  45.278  50.666  1.00  0.00     0.169 HD
ENDROOT
BRANCH   1  13
HETATM   13  C   UNL     1      26.917  44.909  52.369  1.00  0.00     0.025 A 
HETATM   14  C   UNL     1      26.629  45.834  53.376  1.00  0.00     0.016 A 
HETATM   15  C   UNL     1      25.576  46.881  53.480  1.00  0.00     0.069 C 
HETATM   16  N   UNL     1      27.534  45.659  54.389  1.00  0.00    -0.359 N 
HETATM   17  H   UNL     1      27.561  46.197  55.244  1.00  0.00     0.166 HD
HETATM   18  C   UNL     1      28.407  44.646  54.093  1.00  0.00     0.043 A 
HETATM   19  C   UNL     1      28.053  44.146  52.839  1.00  0.00     0.003 A 
HETATM   20  C   UNL     1      29.478  44.147  54.846  1.00  0.00     0.030 A 
HETATM   21  C   UNL     1      28.822  43.077  52.325  1.00  0.00     0.014 A 
HETATM   22  C   UNL     1      29.899  42.567  53.062  1.00  0.00     0.001 A 
HETATM   23  C   UNL     1      30.222  43.097  54.306  1.00  0.00     0.002 A 
ENDBRANCH   1  13
BRANCH   1  24
HETATM   24  O   UNL     1      26.834  43.901  50.134  1.00  0.00    -0.371 OA
HETATM   25  H   UNL     1      26.145  43.269  49.859  1.00  0.00     0.212 HD
ENDBRANCH   1  24
TORSDOF 2
ENDMDL
MODEL 2
REMARK VINA RESULT:      -8.6      1.326      2.598
REMARK  2 active torsions:
REMARK  status: ('A' for Active; 'I' for Inactive)
REMARK    1  A    between atoms: C_7  and  C_8 
REMARK    2  A    between atoms: C_8  and  O_9 
ROOT
HETATM    1  C   UNL     1      25.802  44.786  50.442  1.00  0.00     0.199 A 
HETATM    2  C   UNL     1      24.293  44.401  50.589  1.00  0.00     0.266 A 
HETATM    3  O   UNL     1      23.830  43.308  50.880  1.00  0.00    -0.269 OA
HETATM    4  N   UNL     1      23.540  45.529  50.263  1.00  0.00    -0.323 N 
HETATM    5  C   UNL     1      24.357  46.595  49.917  1.00  0.00     0.045 A 
HETATM    6  C   UNL     1      25.705  46.230  50.014  1.00  0.00     0.019 A 
HETATM    7  C   UNL     1      23.953  47.850  49.511  1.00  0.00     0.032 A 
HETATM    8  C   UNL     1      24.950  48.774  49.187  1.00  0.00     0.026 A 
HETATM    9  C   UNL     1      26.308  48.421  49.277  1.00  0.00     0.034 A 
HETATM   10 CL   UNL     1      27.511  49.581  48.864  1.00  0.00    -0.084 Cl
HETATM   11  C   UNL     1      26.698  47.144  49.686  1.00  0.00     0.037 A 
HETATM   12  H   UNL     1      22.531  45.527  50.247  1.00  0.00     0.169 HD
ENDROOT
BRANCH   1  13
HETATM   13  C   UNL     1      26.600  44.744  51.725  1.00  0.00     0.025 A 
HETATM   14  C   UNL     1      27.514  43.752  52.093  1.00  0.00     0.016 A 
HETATM   15  C   UNL     1      27.963  42.518  51.393  1.00  0.00     0.069 C 
HETATM   16  N   UNL     1      28.018  44.071  53.327  1.00  0.00    -0.359 N 
HETATM   17  H   UNL     1      28.699  43.524  53.835  1.00  0.00     0.166 HD
HETATM   18  C   UNL     1      27.477  45.243  53.786  1.00  0.00     0.043 A 
HETATM   19  C   UNL     1      26.588  45.700  52.812  1.00  0.00     0.003 A 
HETATM   20  C   UNL     1      27.715  45.919  54.989  1.00  0.00     0.030 A 
HETATM   21  C   UNL     1      25.909  46.913  53.069  1.00  0.00     0.014 A 
HETATM   22  C   UNL     1      26.131  47.601  54.270  1.00  0.00     0.001 A 
HETATM   23  C   UNL     1      27.021  47.109  55.216  1.00  0.00     0.002 A 
ENDBRANCH   1  13
BRANCH   1  24
HETATM   24  O   UNL     1      26.379  44.012  49.394  1.00  0.00    -0.371 OA
HETATM   25  H   UNL     1      26.975  43.394  49.855  1.00  0.00     0.212 HD
ENDBRANCH   1  24
TORSDOF 2
ENDMDL
MODEL 3
REMARK VINA RESULT:      -8.4      1.649      2.579
REMARK  2 active torsions:
REMARK  status: ('A' for Active; 'I' for Inactive)
REMARK    1  A    between atoms: C_7  and  C_8 
REMARK    2  A    between atoms: C_8  and  O_9 
ROOT
HETATM    1  C   UNL     1      25.799  43.710  50.179  1.00  0.00     0.199 A 
HETATM    2  C   UNL     1      24.388  43.551  50.836  1.00  0.00     0.266 A 
HETATM    3  O   UNL     1      23.795  42.510  51.079  1.00  0.00    -0.269 OA
HETATM    4  N   UNL     1      23.879  44.832  51.047  1.00  0.00    -0.323 N 
HETATM    5  C   UNL     1      24.767  45.804  50.610  1.00  0.00     0.045 A 
HETATM    6  C   UNL     1      25.927  45.212  50.098  1.00  0.00     0.019 A 
HETATM    7  C   UNL     1      24.576  47.170  50.634  1.00  0.00     0.032 A 
HETATM    8  C   UNL     1      25.599  47.972  50.120  1.00  0.00     0.026 A 
HETATM    9  C   UNL     1      26.769  47.391  49.600  1.00  0.00     0.034 A 
HETATM   10 CL   UNL     1      28.006  48.407  48.967  1.00  0.00    -0.084 Cl
HETATM   11  C   UNL     1      26.942  46.005  49.579  1.00  0.00     0.037 A 
HETATM   12  H   UNL     1      22.960  44.999  51.431  1.00  0.00     0.169 HD
ENDROOT
BRANCH   1  13
HETATM   13  C   UNL     1      26.953  43.199  51.011  1.00  0.00     0.025 A 
HETATM   14  C   UNL     1      27.750  42.089  50.719  1.00  0.00     0.016 A 
HETATM   15  C   UNL     1      27.723  41.129  49.581  1.00  0.00     0.069 C 
HETATM   16  N   UNL     1      28.677  41.951  51.718  1.00  0.00    -0.359 N 
HETATM   17  H   UNL     1      29.381  41.228  51.763  1.00  0.00     0.166 HD
HETATM   18  C   UNL     1      28.528  42.937  52.659  1.00  0.00     0.043 A 
HETATM   19  C   UNL     1      27.464  43.742  52.252  1.00  0.00     0.003 A 
HETATM   20  C   UNL     1      29.260  43.162  53.832  1.00  0.00     0.030 A 
HETATM   21  C   UNL     1      27.128  44.840  53.076  1.00  0.00     0.014 A 
HETATM   22  C   UNL     1      27.846  45.079  54.256  1.00  0.00     0.001 A 
HETATM   23  C   UNL     1      28.897  44.250  54.627  1.00  0.00     0.002 A 
ENDBRANCH   1  13
BRANCH   1  24
HETATM   24  O   UNL     1      25.765  43.159  48.865  1.00  0.00    -0.371 OA
HETATM   25  H   UNL     1      25.306  43.834  48.335  1.00  0.00     0.212 HD
ENDBRANCH   1  24
TORSDOF 2
ENDMDL
MODEL 4
REMARK VINA RESULT:      -8.2     12.143     13.534
REMARK  2 active torsions:
REMARK  status: ('A' for Active; 'I' for Inactive)
REMARK    1  A    between atoms: C_7  and  C_8 
REMARK    2  A    between atoms: C_8  and  O_9 
ROOT
HETATM    1  C   UNL     1      29.638  52.104  40.866  1.00  0.00     0.199 A 
HETATM    2  C   UNL     1      29.208  53.186  39.820  1.00  0.00     0.266 A 
HETATM    3  O   UNL     1      29.414  54.390  39.870  1.00  0.00    -0.269 OA
HETATM    4  N   UNL     1      28.477  52.538  38.825  1.00  0.00    -0.323 N 
HETATM    5  C   UNL     1      28.368  51.180  39.086  1.00  0.00     0.045 A 
HETATM    6  C   UNL     1      29.042  50.853  40.268  1.00  0.00     0.019 A 
HETATM    7  C   UNL     1      27.689  50.245  38.332  1.00  0.00     0.032 A 
HETATM    8  C   UNL     1      27.689  48.925  38.792  1.00  0.00     0.026 A 
HETATM    9  C   UNL     1      28.359  48.582  39.979  1.00  0.00     0.034 A 
HETATM   10 CL   UNL     1      28.334  46.948  40.521  1.00  0.00    -0.084 Cl
HETATM   11  C   UNL     1      29.037  49.544  40.732  1.00  0.00     0.037 A 
HETATM   12  H   UNL     1      28.056  53.028  38.050  1.00  0.00     0.169 HD
ENDROOT
BRANCH   1  13
HETATM   13  C   UNL     1      31.130  51.886  40.984  1.00  0.00     0.025 A 
HETATM   14  C   UNL     1      32.012  51.647  39.926  1.00  0.00     0.016 A 
HETATM   15  C   UNL     1      31.785  51.542  38.459  1.00  0.00     0.069 C 
HETATM   16  N   UNL     1      33.271  51.495  40.445  1.00  0.00    -0.359 N 
HETATM   17  H   UNL     1      34.104  51.309  39.904  1.00  0.00     0.166 HD
HETATM   18  C   UNL     1      33.256  51.633  41.808  1.00  0.00     0.043 A 
HETATM   19  C   UNL     1      31.936  51.884  42.185  1.00  0.00     0.003 A 
HETATM   20  C   UNL     1      34.315  51.551  42.720  1.00  0.00     0.030 A 
HETATM   21  C   UNL     1      31.678  52.069  43.563  1.00  0.00     0.014 A 
HETATM   22  C   UNL     1      32.725  51.986  44.491  1.00  0.00     0.001 A 
HETATM   23  C   UNL     1      34.025  51.730  44.074  1.00  0.00     0.002 A 
ENDBRANCH   1  13
BRANCH   1  24
HETATM   24  O   UNL     1      29.010  52.387  42.113  1.00  0.00    -0.371 OA
HETATM   25  H   UNL     1      28.080  52.135  41.975  1.00  0.00     0.212 HD
ENDBRANCH   1  24
TORSDOF 2
ENDMDL
MODEL 5
REMARK VINA RESULT:      -8.0      6.881      9.022
REMARK  2 active torsions:
REMARK  status: ('A' for Active; 'I' for Inactive)
REMARK    1  A    between atoms: C_7  and  C_8 
REMARK    2  A    between atoms: C_8  and  O_9 
ROOT
HETATM    1  C   UNL     1      18.899  48.771  49.122  1.00  0.00     0.199 A 
HETATM    2  C   UNL     1      18.605  49.559  50.441  1.00  0.00     0.266 A 
HETATM    3  O   UNL     1      18.658  49.136  51.587  1.00  0.00    -0.269 OA
HETATM    4  N   UNL     1      18.200  50.843  50.078  1.00  0.00    -0.323 N 
HETATM    5  C   UNL     1      18.186  50.994  48.700  1.00  0.00     0.045 A 
HETATM    6  C   UNL     1      18.601  49.814  48.073  1.00  0.00     0.019 A 
HETATM    7  C   UNL     1      17.808  52.119  47.995  1.00  0.00     0.032 A 
HETATM    8  C   UNL     1      17.850  52.048  46.600  1.00  0.00     0.026 A 
HETATM    9  C   UNL     1      18.261  50.867  45.956  1.00  0.00     0.034 A 
HETATM   10 CL   UNL     1      18.294  50.810  44.236  1.00  0.00    -0.084 Cl
HETATM   11  C   UNL     1      18.636  49.737  46.687  1.00  0.00     0.037 A 
HETATM   12  H   UNL     1      17.918  51.538  50.753  1.00  0.00     0.169 HD
ENDROOT
BRANCH   1  13
HETATM   13  C   UNL     1      20.339  48.342  48.941  1.00  0.00     0.025 A 
HETATM   14  C   UNL     1      20.792  47.031  48.778  1.00  0.00     0.016 A 
HETATM   15  C   UNL     1      20.061  45.734  48.730  1.00  0.00     0.069 C 
HETATM   16  N   UNL     1      22.156  47.061  48.656  1.00  0.00    -0.359 N 
HETATM   17  H   UNL     1      22.747  46.251  48.529  1.00  0.00     0.166 HD
HETATM   18  C   UNL     1      22.623  48.348  48.723  1.00  0.00     0.043 A 
HETATM   19  C   UNL     1      21.517  49.181  48.897  1.00  0.00     0.003 A 
HETATM   20  C   UNL     1      23.939  48.820  48.644  1.00  0.00     0.030 A 
HETATM   21  C   UNL     1      21.759  50.571  48.988  1.00  0.00     0.014 A 
HETATM   22  C   UNL     1      23.070  51.062  48.915  1.00  0.00     0.001 A 
HETATM   23  C   UNL     1      24.144  50.197  48.746  1.00  0.00     0.002 A 
ENDBRANCH   1  13
BRANCH   1  24
HETATM   24  O   UNL     1      17.974  47.694  49.007  1.00  0.00    -0.371 OA
HETATM   25  H   UNL     1      17.407  47.781  49.794  1.00  0.00     0.212 HD
ENDBRANCH   1  24
TORSDOF 2
ENDMDL
MODEL 6
REMARK VINA RESULT:      -7.7     12.473     14.035
REMARK  2 active torsions:
REMARK  status: ('A' for Active; 'I' for Inactive)
REMARK    1  A    between atoms: C_7  and  C_8 
REMARK    2  A    between atoms: C_8  and  O_9 
ROOT
HETATM    1  C   UNL     1      31.327  52.325  41.343  1.00  0.00     0.199 A 
HETATM    2  C   UNL     1      30.803  53.681  40.766  1.00  0.00     0.266 A 
HETATM    3  O   UNL     1      31.360  54.769  40.804  1.00  0.00    -0.269 OA
HETATM    4  N   UNL     1      29.531  53.450  40.244  1.00  0.00    -0.323 N 
HETATM    5  C   UNL     1      29.155  52.125  40.407  1.00  0.00     0.045 A 
HETATM    6  C   UNL     1      30.173  51.401  41.037  1.00  0.00     0.019 A 
HETATM    7  C   UNL     1      27.954  51.554  40.039  1.00  0.00     0.032 A 
HETATM    8  C   UNL     1      27.774  50.197  40.319  1.00  0.00     0.026 A 
HETATM    9  C   UNL     1      28.787  49.458  40.954  1.00  0.00     0.034 A 
HETATM   10 CL   UNL     1      28.530  47.789  41.291  1.00  0.00    -0.084 Cl
HETATM   11  C   UNL     1      29.995  50.054  41.324  1.00  0.00     0.037 A 
HETATM   12  H   UNL     1      28.964  54.181  39.842  1.00  0.00     0.169 HD
ENDROOT
BRANCH   1  13
HETATM   13  C   UNL     1      32.552  51.767  40.652  1.00  0.00     0.025 A 
HETATM   14  C   UNL     1      32.659  51.453  39.295  1.00  0.00     0.016 A 
HETATM   15  C   UNL     1      31.680  51.561  38.178  1.00  0.00     0.069 C 
HETATM   16  N   UNL     1      33.919  50.968  39.065  1.00  0.00    -0.359 N 
HETATM   17  H   UNL     1      34.270  50.661  38.168  1.00  0.00     0.166 HD
HETATM   18  C   UNL     1      34.655  50.958  40.221  1.00  0.00     0.043 A 
HETATM   19  C   UNL     1      33.838  51.455  41.237  1.00  0.00     0.003 A 
HETATM   20  C   UNL     1      35.976  50.542  40.429  1.00  0.00     0.030 A 
HETATM   21  C   UNL     1      34.394  51.542  42.534  1.00  0.00     0.014 A 
HETATM   22  C   UNL     1      35.714  51.127  42.762  1.00  0.00     0.001 A 
HETATM   23  C   UNL     1      36.493  50.634  41.722  1.00  0.00     0.002 A 
ENDBRANCH   1  13
BRANCH   1  24
HETATM   24  O   UNL     1      31.485  52.448  42.754  1.00  0.00    -0.371 OA
HETATM   25  H   UNL     1      30.575  52.550  43.086  1.00  0.00     0.212 HD
ENDBRANCH   1  24
TORSDOF 2
ENDMDL
MODEL 7
REMARK VINA RESULT:      -7.6      2.504      3.391
REMARK  2 active torsions:
REMARK  status: ('A' for Active; 'I' for Inactive)
REMARK    1  A    between atoms: C_7  and  C_8 
REMARK    2  A    between atoms: C_8  and  O_9 
ROOT
HETATM    1  C   UNL     1      28.433  43.062  52.773  1.00  0.00     0.199 A 
HETATM    2  C   UNL     1      27.700  41.688  52.910  1.00  0.00     0.266 A 
HETATM    3  O   UNL     1      27.985  40.765  53.660  1.00  0.00    -0.269 OA
HETATM    4  N   UNL     1      26.676  41.663  51.964  1.00  0.00    -0.323 N 
HETATM    5  C   UNL     1      26.648  42.837  51.225  1.00  0.00     0.045 A 
HETATM    6  C   UNL     1      27.649  43.713  51.659  1.00  0.00     0.019 A 
HETATM    7  C   UNL     1      25.790  43.142  50.188  1.00  0.00     0.032 A 
HETATM    8  C   UNL     1      25.951  44.381  49.563  1.00  0.00     0.026 A 
HETATM    9  C   UNL     1      26.955  45.270  49.986  1.00  0.00     0.034 A 
HETATM   10 CL   UNL     1      27.131  46.786  49.189  1.00  0.00    -0.084 Cl
HETATM   11  C   UNL     1      27.817  44.942  51.035  1.00  0.00     0.037 A 
HETATM   12  H   UNL     1      26.076  40.864  51.828  1.00  0.00     0.169 HD
ENDROOT
BRANCH   1  13
HETATM   13  C   UNL     1      28.335  43.963  53.984  1.00  0.00     0.025 A 
HETATM   14  C   UNL     1      27.231  44.743  54.342  1.00  0.00     0.016 A 
HETATM   15  C   UNL     1      25.901  44.921  53.698  1.00  0.00     0.069 C 
HETATM   16  N   UNL     1      27.539  45.418  55.493  1.00  0.00    -0.359 N 
HETATM   17  H   UNL     1      26.923  46.058  55.975  1.00  0.00     0.166 HD
HETATM   18  C   UNL     1      28.805  45.107  55.916  1.00  0.00     0.043 A 
HETATM   19  C   UNL     1      29.336  44.196  55.002  1.00  0.00     0.003 A 
HETATM   20  C   UNL     1      29.506  45.572  57.036  1.00  0.00     0.030 A 
HETATM   21  C   UNL     1      30.647  43.724  55.242  1.00  0.00     0.014 A 
HETATM   22  C   UNL     1      31.365  44.180  56.356  1.00  0.00     0.001 A 
HETATM   23  C   UNL     1      30.801  45.092  57.240  1.00  0.00     0.002 A 
ENDBRANCH   1  13
BRANCH   1  24
HETATM   24  O   UNL     1      29.774  42.835  52.348  1.00  0.00    -0.371 OA
HETATM   25  H   UNL     1      29.708  42.760  51.380  1.00  0.00     0.212 HD
ENDBRANCH   1  24
TORSDOF 2
ENDMDL
MODEL 8
REMARK VINA RESULT:      -7.5     16.894     18.293
REMARK  2 active torsions:
REMARK  status: ('A' for Active; 'I' for Inactive)
REMARK    1  A    between atoms: C_7  and  C_8 
REMARK    2  A    between atoms: C_8  and  O_9 
ROOT
HETATM    1  C   UNL     1      38.735  44.664  63.693  1.00  0.00     0.199 A 
HETATM    2  C   UNL     1      37.533  45.581  64.090  1.00  0.00     0.266 A 
HETATM    3  O   UNL     1      36.343  45.373  63.897  1.00  0.00    -0.269 OA
HETATM    4  N   UNL     1      38.061  46.738  64.662  1.00  0.00    -0.323 N 
HETATM    5  C   UNL     1      39.447  46.699  64.686  1.00  0.00     0.045 A 
HETATM    6  C   UNL     1      39.912  45.497  64.141  1.00  0.00     0.019 A 
HETATM    7  C   UNL     1      40.295  47.683  65.149  1.00  0.00     0.032 A 
HETATM    8  C   UNL     1      41.669  47.444  65.058  1.00  0.00     0.026 A 
HETATM    9  C   UNL     1      42.151  46.242  64.510  1.00  0.00     0.034 A 
HETATM   10 CL   UNL     1      43.849  45.983  64.406  1.00  0.00    -0.084 Cl
HETATM   11  C   UNL     1      41.276  45.259  64.041  1.00  0.00     0.037 A 
HETATM   12  H   UNL     1      37.485  47.507  64.972  1.00  0.00     0.169 HD
ENDROOT
BRANCH   1  13
HETATM   13  C   UNL     1      38.804  43.345  64.430  1.00  0.00     0.025 A 
HETATM   14  C   UNL     1      38.675  43.167  65.810  1.00  0.00     0.016 A 
HETATM   15  C   UNL     1      38.441  44.141  66.912  1.00  0.00     0.069 C 
HETATM   16  N   UNL     1      38.805  41.831  66.084  1.00  0.00    -0.359 N 
HETATM   17  H   UNL     1      38.756  41.418  67.005  1.00  0.00     0.166 HD
HETATM   18  C   UNL     1      39.008  41.116  64.932  1.00  0.00     0.043 A 
HETATM   19  C   UNL     1      39.010  42.025  63.874  1.00  0.00     0.003 A 
HETATM   20  C   UNL     1      39.190  39.737  64.764  1.00  0.00     0.030 A 
HETATM   21  C   UNL     1      39.199  41.506  62.572  1.00  0.00     0.014 A 
HETATM   22  C   UNL     1      39.387  40.130  62.385  1.00  0.00     0.001 A 
HETATM   23  C   UNL     1      39.383  39.259  63.467  1.00  0.00     0.002 A 
ENDBRANCH   1  13
BRANCH   1  24
HETATM   24  O   UNL     1      38.761  44.518  62.276  1.00  0.00    -0.371 OA
HETATM   25  H   UNL     1      38.619  43.565  62.132  1.00  0.00     0.212 HD
ENDBRANCH   1  24
TORSDOF 2
ENDMDL
MODEL 9
REMARK VINA RESULT:      -7.4      6.100      8.608
REMARK  2 active torsions:
REMARK  status: ('A' for Active; 'I' for Inactive)
REMARK    1  A    between atoms: C_7  and  C_8 
REMARK    2  A    between atoms: C_8  and  O_9 
ROOT
HETATM    1  C   UNL     1      19.741  48.669  49.178  1.00  0.00     0.199 A 
HETATM    2  C   UNL     1      18.668  49.325  50.108  1.00  0.00     0.266 A 
HETATM    3  O   UNL     1      18.763  49.554  51.306  1.00  0.00    -0.269 OA
HETATM    4  N   UNL     1      17.529  49.553  49.337  1.00  0.00    -0.323 N 
HETATM    5  C   UNL     1      17.715  49.130  48.030  1.00  0.00     0.045 A 
HETATM    6  C   UNL     1      19.003  48.610  47.862  1.00  0.00     0.019 A 
HETATM    7  C   UNL     1      16.791  49.174  47.006  1.00  0.00     0.032 A 
HETATM    8  C   UNL     1      17.183  48.670  45.763  1.00  0.00     0.026 A 
HETATM    9  C   UNL     1      18.473  48.142  45.581  1.00  0.00     0.034 A 
HETATM   10 CL   UNL     1      18.922  47.523  44.038  1.00  0.00    -0.084 Cl
HETATM   11  C   UNL     1      19.394  48.102  46.630  1.00  0.00     0.037 A 
HETATM   12  H   UNL     1      16.679  49.940  49.719  1.00  0.00     0.169 HD
ENDROOT
BRANCH   1  13
HETATM   13  C   UNL     1      20.990  49.495  48.962  1.00  0.00     0.025 A 
HETATM   14  C   UNL     1      21.032  50.859  48.662  1.00  0.00     0.016 A 
HETATM   15  C   UNL     1      19.947  51.861  48.476  1.00  0.00     0.069 C 
HETATM   16  N   UNL     1      22.345  51.229  48.535  1.00  0.00    -0.359 N 
HETATM   17  H   UNL     1      22.668  52.161  48.317  1.00  0.00     0.166 HD
HETATM   18  C   UNL     1      23.175  50.160  48.749  1.00  0.00     0.043 A 
HETATM   19  C   UNL     1      22.367  49.056  49.024  1.00  0.00     0.003 A 
HETATM   20  C   UNL     1      24.574  50.101  48.715  1.00  0.00     0.030 A 
HETATM   21  C   UNL     1      23.014  47.826  49.286  1.00  0.00     0.014 A 
HETATM   22  C   UNL     1      24.413  47.747  49.252  1.00  0.00     0.001 A 
HETATM   23  C   UNL     1      25.181  48.870  48.970  1.00  0.00     0.002 A 
ENDBRANCH   1  13
BRANCH   1  24
HETATM   24  O   UNL     1      20.012  47.348  49.638  1.00  0.00    -0.371 OA
HETATM   25  H   UNL     1      20.597  46.974  48.955  1.00  0.00     0.212 HD
ENDBRANCH   1  24
TORSDOF 2
ENDMDL
MODEL 10
REMARK VINA RESULT:      -7.4      7.421     10.995
REMARK  2 active torsions:
REMARK  status: ('A' for Active; 'I' for Inactive)
REMARK    1  A    between atoms: C_7  and  C_8 
REMARK    2  A    between atoms: C_8  and  O_9 
ROOT
HETATM    1  C   UNL     1      18.446  49.693  49.303  1.00  0.00     0.199 A 
HETATM    2  C   UNL     1      17.935  48.237  49.049  1.00  0.00     0.266 A 
HETATM    3  O   UNL     1      16.789  47.823  49.152  1.00  0.00    -0.269 OA
HETATM    4  N   UNL     1      19.045  47.453  48.738  1.00  0.00    -0.323 N 
HETATM    5  C   UNL     1      20.211  48.202  48.760  1.00  0.00     0.045 A 
HETATM    6  C   UNL     1      19.930  49.536  49.074  1.00  0.00     0.019 A 
HETATM    7  C   UNL     1      21.493  47.745  48.533  1.00  0.00     0.032 A 
HETATM    8  C   UNL     1      22.534  48.674  48.627  1.00  0.00     0.026 A 
HETATM    9  C   UNL     1      22.266  50.017  48.945  1.00  0.00     0.034 A 
HETATM   10 CL   UNL     1      23.572  51.133  49.061  1.00  0.00    -0.084 Cl
HETATM   11  C   UNL     1      20.962  50.460  49.177  1.00  0.00     0.037 A 
HETATM   12  H   UNL     1      18.982  46.460  48.565  1.00  0.00     0.169 HD
ENDROOT
BRANCH   1  13
HETATM   13  C   UNL     1      17.941  50.728  48.323  1.00  0.00     0.025 A 
HETATM   14  C   UNL     1      17.289  51.920  48.650  1.00  0.00     0.016 A 
HETATM   15  C   UNL     1      16.914  52.511  49.964  1.00  0.00     0.069 C 
HETATM   16  N   UNL     1      16.985  52.575  47.485  1.00  0.00    -0.359 N 
HETATM   17  H   UNL     1      16.509  53.464  47.425  1.00  0.00     0.166 HD
HETATM   18  C   UNL     1      17.421  51.863  46.398  1.00  0.00     0.043 A 
HETATM   19  C   UNL     1      18.029  50.703  46.879  1.00  0.00     0.003 A 
HETATM   20  C   UNL     1      17.314  52.169  45.036  1.00  0.00     0.030 A 
HETATM   21  C   UNL     1      18.565  49.807  45.925  1.00  0.00     0.014 A 
HETATM   22  C   UNL     1      18.465  50.095  44.557  1.00  0.00     0.001 A 
HETATM   23  C   UNL     1      17.846  51.260  44.120  1.00  0.00     0.002 A 
ENDBRANCH   1  13
BRANCH   1  24
HETATM   24  O   UNL     1      18.204  50.041  50.664  1.00  0.00    -0.371 OA
HETATM   25  H   UNL     1      17.734  50.892  50.611  1.00  0.00     0.212 HD
ENDBRANCH   1  24
TORSDOF 2
ENDMDL
