MODEL 1
REMARK VINA RESULT:      -7.2      0.000      0.000
REMARK  5 active torsions:
REMARK  status: ('A' for Active; 'I' for Inactive)
REMARK    1  A    between atoms: C_2  and  N_3 
REMARK    2  A    between atoms: N_3  and  C_6 
REMARK    3  A    between atoms: C_6  and  C_7 
REMARK    4  A    between atoms: C_8  and  N_9 
REMARK       I    between atoms: N_9  and  C_10 
REMARK    5  A    between atoms: C_10  and  C_11 
ROOT
HETATM    1  C   UNL     1      29.531  45.221  56.343  1.00  0.00    -0.006 A 
HETATM    2  C   UNL     1      29.744  44.155  55.441  1.00  0.00     0.043 A 
HETATM    3  C   UNL     1      30.781  43.238  55.725  1.00  0.00     0.030 A 
HETATM    4  C   UNL     1      31.614  43.371  56.835  1.00  0.00     0.002 A 
HETATM    5  C   UNL     1      31.429  44.431  57.702  1.00  0.00     0.001 A 
HETATM    6  C   UNL     1      30.400  45.339  57.462  1.00  0.00     0.011 A 
ENDROOT
BRANCH   2   7
HETATM    7  N   UNL     1      29.064  43.847  54.237  1.00  0.00    -0.321 N 
HETATM    8  C   UNL     1      27.764  43.499  53.952  1.00  0.00     0.274 C 
HETATM    9  O   UNL     1      26.889  43.239  54.770  1.00  0.00    -0.266 OA
HETATM   10  H   UNL     1      29.619  43.956  53.383  1.00  0.00     0.169 HD
BRANCH   8  11
HETATM   11  C   UNL     1      27.482  43.360  52.489  1.00  0.00     0.126 A 
HETATM   12  N   UNL     1      27.149  42.109  52.086  1.00  0.00    -0.231 NA
HETATM   13  C   UNL     1      26.806  41.991  50.786  1.00  0.00     0.127 A 
HETATM   14 CL   UNL     1      26.317  40.415  50.329  1.00  0.00    -0.062 Cl
HETATM   15  C   UNL     1      26.810  43.033  49.872  1.00  0.00     0.044 A 
HETATM   16  C   UNL     1      27.187  44.297  50.318  1.00  0.00     0.006 A 
HETATM   17  C   UNL     1      27.522  44.473  51.657  1.00  0.00     0.037 A 
ENDBRANCH   8  11
ENDBRANCH   2   7
BRANCH   1  18
HETATM   18  C   UNL     1      28.451  46.272  56.273  1.00  0.00     0.273 C 
BRANCH  18  19
HETATM   19  N   UNL     1      28.458  47.011  54.984  1.00  0.00    -0.072 N 
HETATM   20  H   UNL     1      28.693  46.383  54.210  1.00  0.00     0.277 HD
HETATM   21  H   UNL     1      29.246  47.668  55.096  1.00  0.00     0.277 HD
BRANCH  19  22
HETATM   22  C   UNL     1      27.261  47.835  54.698  1.00  0.00     0.228 C 
HETATM   23  C   UNL     1      26.185  46.938  54.119  1.00  0.00     0.034 C 
ENDBRANCH  19  22
ENDBRANCH  18  19
ENDBRANCH   1  18
TORSDOF 5
ENDMDL
MODEL 2
REMARK VINA RESULT:      -7.1      2.022      3.436
REMARK  5 active torsions:
REMARK  status: ('A' for Active; 'I' for Inactive)
REMARK    1  A    between atoms: C_2  and  N_3 
REMARK    2  A    between atoms: N_3  and  C_6 
REMARK    3  A    between atoms: C_6  and  C_7 
REMARK    4  A    between atoms: C_8  and  N_9 
REMARK       I    between atoms: N_9  and  C_10 
REMARK    5  A    between atoms: C_10  and  C_11 
ROOT
HETATM    1  C   UNL     1      30.138  43.633  55.117  1.00  0.00    -0.006 A 
HETATM    2  C   UNL     1      29.208  44.695  55.064  1.00  0.00     0.043 A 
HETATM    3  C   UNL     1      29.259  45.677  56.078  1.00  0.00     0.030 A 
HETATM    4  C   UNL     1      30.165  45.614  57.136  1.00  0.00     0.002 A 
HETATM    5  C   UNL     1      31.056  44.560  57.208  1.00  0.00     0.001 A 
HETATM    6  C   UNL     1      31.046  43.588  56.210  1.00  0.00     0.011 A 
ENDROOT
BRANCH   2   7
HETATM    7  N   UNL     1      28.177  44.940  54.124  1.00  0.00    -0.321 N 
HETATM    8  C   UNL     1      26.854  44.568  54.059  1.00  0.00     0.274 C 
HETATM    9  O   UNL     1      26.289  43.775  54.802  1.00  0.00    -0.266 OA
HETATM   10  H   UNL     1      28.428  45.570  53.356  1.00  0.00     0.169 HD
BRANCH   8  11
HETATM   11  C   UNL     1      26.117  45.158  52.898  1.00  0.00     0.126 A 
HETATM   12  N   UNL     1      25.338  44.287  52.211  1.00  0.00    -0.231 NA
HETATM   13  C   UNL     1      24.600  44.827  51.219  1.00  0.00     0.127 A 
HETATM   14 CL   UNL     1      23.572  43.713  50.422  1.00  0.00    -0.062 Cl
HETATM   15  C   UNL     1      24.622  46.165  50.858  1.00  0.00     0.044 A 
HETATM   16  C   UNL     1      25.457  47.024  51.570  1.00  0.00     0.006 A 
HETATM   17  C   UNL     1      26.216  46.517  52.620  1.00  0.00     0.037 A 
ENDBRANCH   8  11
ENDBRANCH   2   7
BRANCH   1  18
HETATM   18  C   UNL     1      30.306  42.519  54.114  1.00  0.00     0.273 C 
BRANCH  18  19
HETATM   19  N   UNL     1      29.949  42.936  52.734  1.00  0.00    -0.072 N 
HETATM   20  H   UNL     1      30.786  42.990  52.147  1.00  0.00     0.277 HD
HETATM   21  H   UNL     1      29.603  43.900  52.863  1.00  0.00     0.277 HD
BRANCH  19  22
HETATM   22  C   UNL     1      28.853  42.180  52.086  1.00  0.00     0.228 C 
HETATM   23  C   UNL     1      28.299  41.183  53.086  1.00  0.00     0.034 C 
ENDBRANCH  19  22
ENDBRANCH  18  19
ENDBRANCH   1  18
TORSDOF 5
ENDMDL
MODEL 3
REMARK VINA RESULT:      -7.1      2.744      4.170
REMARK  5 active torsions:
REMARK  status: ('A' for Active; 'I' for Inactive)
REMARK    1  A    between atoms: C_2  and  N_3 
REMARK    2  A    between atoms: N_3  and  C_6 
REMARK    3  A    between atoms: C_6  and  C_7 
REMARK    4  A    between atoms: C_8  and  N_9 
REMARK       I    between atoms: N_9  and  C_10 
REMARK    5  A    between atoms: C_10  and  C_11 
ROOT
HETATM    1  C   UNL     1      29.760  43.400  54.170  1.00  0.00    -0.006 A 
HETATM    2  C   UNL     1      28.825  44.459  54.168  1.00  0.00     0.043 A 
HETATM    3  C   UNL     1      28.898  45.416  55.205  1.00  0.00     0.030 A 
HETATM    4  C   UNL     1      29.829  45.329  56.239  1.00  0.00     0.002 A 
HETATM    5  C   UNL     1      30.725  44.277  56.261  1.00  0.00     0.001 A 
HETATM    6  C   UNL     1      30.694  43.331  55.240  1.00  0.00     0.011 A 
ENDROOT
BRANCH   2   7
HETATM    7  N   UNL     1      27.770  44.724  53.260  1.00  0.00    -0.321 N 
HETATM    8  C   UNL     1      26.408  44.546  53.321  1.00  0.00     0.274 C 
HETATM    9  O   UNL     1      25.795  43.954  54.201  1.00  0.00    -0.266 OA
HETATM   10  H   UNL     1      28.048  45.199  52.396  1.00  0.00     0.169 HD
BRANCH   8  11
HETATM   11  C   UNL     1      25.674  45.076  52.130  1.00  0.00     0.126 A 
HETATM   12  N   UNL     1      26.145  46.250  51.643  1.00  0.00    -0.231 NA
HETATM   13  C   UNL     1      25.549  46.692  50.516  1.00  0.00     0.127 A 
HETATM   14 CL   UNL     1      26.218  48.136  49.886  1.00  0.00    -0.062 Cl
HETATM   15  C   UNL     1      24.500  46.051  49.876  1.00  0.00     0.044 A 
HETATM   16  C   UNL     1      24.024  44.861  50.424  1.00  0.00     0.006 A 
HETATM   17  C   UNL     1      24.627  44.353  51.570  1.00  0.00     0.037 A 
ENDBRANCH   8  11
ENDBRANCH   2   7
BRANCH   1  18
HETATM   18  C   UNL     1      29.907  42.312  53.136  1.00  0.00     0.273 C 
BRANCH  18  19
HETATM   19  N   UNL     1      28.720  41.421  53.074  1.00  0.00    -0.072 N 
HETATM   20  H   UNL     1      27.922  41.852  53.549  1.00  0.00     0.277 HD
HETATM   21  H   UNL     1      29.009  40.607  53.639  1.00  0.00     0.277 HD
BRANCH  19  22
HETATM   22  C   UNL     1      28.365  40.899  51.735  1.00  0.00     0.228 C 
HETATM   23  C   UNL     1      26.993  41.423  51.361  1.00  0.00     0.034 C 
ENDBRANCH  19  22
ENDBRANCH  18  19
ENDBRANCH   1  18
TORSDOF 5
ENDMDL
MODEL 4
REMARK VINA RESULT:      -7.0      2.824      3.487
REMARK  5 active torsions:
REMARK  status: ('A' for Active; 'I' for Inactive)
REMARK    1  A    between atoms: C_2  and  N_3 
REMARK    2  A    between atoms: N_3  and  C_6 
REMARK    3  A    between atoms: C_6  and  C_7 
REMARK    4  A    between atoms: C_8  and  N_9 
REMARK       I    between atoms: N_9  and  C_10 
REMARK    5  A    between atoms: C_10  and  C_11 
ROOT
HETATM    1  C   UNL     1      28.377  44.566  54.335  1.00  0.00    -0.006 A 
HETATM    2  C   UNL     1      28.056  44.213  53.005  1.00  0.00     0.043 A 
HETATM    3  C   UNL     1      28.866  43.255  52.355  1.00  0.00     0.030 A 
HETATM    4  C   UNL     1      29.980  42.679  52.965  1.00  0.00     0.002 A 
HETATM    5  C   UNL     1      30.314  43.045  54.255  1.00  0.00     0.001 A 
HETATM    6  C   UNL     1      29.522  43.970  54.931  1.00  0.00     0.011 A 
ENDROOT
BRANCH   2   7
HETATM    7  N   UNL     1      27.015  44.695  52.174  1.00  0.00    -0.321 N 
HETATM    8  C   UNL     1      25.643  44.636  52.253  1.00  0.00     0.274 C 
HETATM    9  O   UNL     1      24.993  43.989  53.065  1.00  0.00    -0.266 OA
HETATM   10  H   UNL     1      27.321  45.255  51.372  1.00  0.00     0.169 HD
BRANCH   8  11
HETATM   11  C   UNL     1      24.942  45.388  51.166  1.00  0.00     0.126 A 
HETATM   12  N   UNL     1      24.141  44.634  50.373  1.00  0.00    -0.231 NA
HETATM   13  C   UNL     1      23.435  45.316  49.447  1.00  0.00     0.127 A 
HETATM   14 CL   UNL     1      22.377  44.344  48.514  1.00  0.00    -0.062 Cl
HETATM   15  C   UNL     1      23.509  46.686  49.250  1.00  0.00     0.044 A 
HETATM   16  C   UNL     1      24.366  47.421  50.065  1.00  0.00     0.006 A 
HETATM   17  C   UNL     1      25.093  46.765  51.054  1.00  0.00     0.037 A 
ENDBRANCH   8  11
ENDBRANCH   2   7
BRANCH   1  18
HETATM   18  C   UNL     1      27.619  45.510  55.235  1.00  0.00     0.273 C 
BRANCH  18  19
HETATM   19  N   UNL     1      28.313  46.813  55.406  1.00  0.00    -0.072 N 
HETATM   20  H   UNL     1      29.260  46.770  55.019  1.00  0.00     0.277 HD
HETATM   21  H   UNL     1      28.403  46.897  56.431  1.00  0.00     0.277 HD
BRANCH  19  22
HETATM   22  C   UNL     1      27.571  48.011  54.951  1.00  0.00     0.228 C 
HETATM   23  C   UNL     1      26.197  47.578  54.479  1.00  0.00     0.034 C 
ENDBRANCH  19  22
ENDBRANCH  18  19
ENDBRANCH   1  18
TORSDOF 5
ENDMDL
MODEL 5
REMARK VINA RESULT:      -7.0      7.685     10.692
REMARK  5 active torsions:
REMARK  status: ('A' for Active; 'I' for Inactive)
REMARK    1  A    between atoms: C_2  and  N_3 
REMARK    2  A    between atoms: N_3  and  C_6 
REMARK    3  A    between atoms: C_6  and  C_7 
REMARK    4  A    between atoms: C_8  and  N_9 
REMARK       I    between atoms: N_9  and  C_10 
REMARK    5  A    between atoms: C_10  and  C_11 
ROOT
HETATM    1  C   UNL     1      20.122  49.049  48.638  1.00  0.00    -0.006 A 
HETATM    2  C   UNL     1      21.187  49.818  49.158  1.00  0.00     0.043 A 
HETATM    3  C   UNL     1      20.880  51.054  49.770  1.00  0.00     0.030 A 
HETATM    4  C   UNL     1      19.579  51.549  49.845  1.00  0.00     0.002 A 
HETATM    5  C   UNL     1      18.539  50.813  49.309  1.00  0.00     0.001 A 
HETATM    6  C   UNL     1      18.806  49.580  48.719  1.00  0.00     0.011 A 
ENDROOT
BRANCH   2   7
HETATM    7  N   UNL     1      22.577  49.546  49.156  1.00  0.00    -0.321 N 
HETATM    8  C   UNL     1      23.588  49.813  48.261  1.00  0.00     0.274 C 
HETATM    9  O   UNL     1      23.452  50.268  47.132  1.00  0.00    -0.266 OA
HETATM   10  H   UNL     1      22.938  49.112  50.011  1.00  0.00     0.169 HD
BRANCH   8  11
HETATM   11  C   UNL     1      24.945  49.409  48.744  1.00  0.00     0.126 A 
HETATM   12  N   UNL     1      24.955  48.393  49.641  1.00  0.00    -0.231 NA
HETATM   13  C   UNL     1      26.177  47.961  50.015  1.00  0.00     0.127 A 
HETATM   14 CL   UNL     1      26.154  46.627  51.089  1.00  0.00    -0.062 Cl
HETATM   15  C   UNL     1      27.375  48.504  49.574  1.00  0.00     0.044 A 
HETATM   16  C   UNL     1      27.322  49.567  48.676  1.00  0.00     0.006 A 
HETATM   17  C   UNL     1      26.083  50.027  48.240  1.00  0.00     0.037 A 
ENDBRANCH   8  11
ENDBRANCH   2   7
BRANCH   1  18
HETATM   18  C   UNL     1      20.211  47.683  48.005  1.00  0.00     0.273 C 
BRANCH  18  19
HETATM   19  N   UNL     1      20.708  46.649  48.949  1.00  0.00    -0.072 N 
HETATM   20  H   UNL     1      20.553  46.942  49.918  1.00  0.00     0.277 HD
HETATM   21  H   UNL     1      21.727  46.654  48.786  1.00  0.00     0.277 HD
BRANCH  19  22
HETATM   22  C   UNL     1      20.251  45.263  48.699  1.00  0.00     0.228 C 
HETATM   23  C   UNL     1      18.880  45.316  48.053  1.00  0.00     0.034 C 
ENDBRANCH  19  22
ENDBRANCH  18  19
ENDBRANCH   1  18
TORSDOF 5
ENDMDL
MODEL 6
REMARK VINA RESULT:      -7.0      7.642      9.866
REMARK  5 active torsions:
REMARK  status: ('A' for Active; 'I' for Inactive)
REMARK    1  A    between atoms: C_2  and  N_3 
REMARK    2  A    between atoms: N_3  and  C_6 
REMARK    3  A    between atoms: C_6  and  C_7 
REMARK    4  A    between atoms: C_8  and  N_9 
REMARK       I    between atoms: N_9  and  C_10 
REMARK    5  A    between atoms: C_10  and  C_11 
ROOT
HETATM    1  C   UNL     1      25.177  48.094  49.673  1.00  0.00    -0.006 A 
HETATM    2  C   UNL     1      24.691  49.184  48.919  1.00  0.00     0.043 A 
HETATM    3  C   UNL     1      25.628  50.007  48.255  1.00  0.00     0.030 A 
HETATM    4  C   UNL     1      27.004  49.800  48.349  1.00  0.00     0.002 A 
HETATM    5  C   UNL     1      27.484  48.752  49.112  1.00  0.00     0.001 A 
HETATM    6  C   UNL     1      26.584  47.909  49.759  1.00  0.00     0.011 A 
ENDROOT
BRANCH   2   7
HETATM    7  N   UNL     1      23.356  49.615  48.720  1.00  0.00    -0.321 N 
HETATM    8  C   UNL     1      22.271  49.058  48.083  1.00  0.00     0.274 C 
HETATM    9  O   UNL     1      22.279  48.046  47.393  1.00  0.00    -0.266 OA
HETATM   10  H   UNL     1      23.107  50.494  49.185  1.00  0.00     0.169 HD
BRANCH   8  11
HETATM   11  C   UNL     1      21.014  49.858  48.219  1.00  0.00     0.126 A 
HETATM   12  N   UNL     1      19.868  49.134  48.184  1.00  0.00    -0.231 NA
HETATM   13  C   UNL     1      18.734  49.833  48.394  1.00  0.00     0.127 A 
HETATM   14 CL   UNL     1      17.313  48.878  48.420  1.00  0.00    -0.062 Cl
HETATM   15  C   UNL     1      18.679  51.203  48.602  1.00  0.00     0.044 A 
HETATM   16  C   UNL     1      19.875  51.916  48.601  1.00  0.00     0.006 A 
HETATM   17  C   UNL     1      21.073  51.232  48.416  1.00  0.00     0.037 A 
ENDBRANCH   8  11
ENDBRANCH   2   7
BRANCH   1  18
HETATM   18  C   UNL     1      24.362  47.057  50.405  1.00  0.00     0.273 C 
BRANCH  18  19
HETATM   19  N   UNL     1      23.603  46.174  49.482  1.00  0.00    -0.072 N 
HETATM   20  H   UNL     1      23.739  46.467  48.511  1.00  0.00     0.277 HD
HETATM   21  H   UNL     1      22.619  46.369  49.726  1.00  0.00     0.277 HD
BRANCH  19  22
HETATM   22  C   UNL     1      23.799  44.717  49.664  1.00  0.00     0.228 C 
HETATM   23  C   UNL     1      25.220  44.368  49.265  1.00  0.00     0.034 C 
ENDBRANCH  19  22
ENDBRANCH  18  19
ENDBRANCH   1  18
TORSDOF 5
ENDMDL
MODEL 7
REMARK VINA RESULT:      -7.0      1.420      1.574
REMARK  5 active torsions:
REMARK  status: ('A' for Active; 'I' for Inactive)
REMARK    1  A    between atoms: C_2  and  N_3 
REMARK    2  A    between atoms: N_3  and  C_6 
REMARK    3  A    between atoms: C_6  and  C_7 
REMARK    4  A    between atoms: C_8  and  N_9 
REMARK       I    between atoms: N_9  and  C_10 
REMARK    5  A    between atoms: C_10  and  C_11 
ROOT
HETATM    1  C   UNL     1      29.077  45.059  55.076  1.00  0.00    -0.006 A 
HETATM    2  C   UNL     1      29.451  43.875  54.402  1.00  0.00     0.043 A 
HETATM    3  C   UNL     1      30.468  43.076  54.971  1.00  0.00     0.030 A 
HETATM    4  C   UNL     1      31.132  43.434  56.144  1.00  0.00     0.002 A 
HETATM    5  C   UNL     1      30.791  44.607  56.789  1.00  0.00     0.001 A 
HETATM    6  C   UNL     1      29.775  45.404  56.266  1.00  0.00     0.011 A 
ENDROOT
BRANCH   2   7
HETATM    7  N   UNL     1      28.958  43.339  53.187  1.00  0.00    -0.321 N 
HETATM    8  C   UNL     1      28.223  42.217  52.882  1.00  0.00     0.274 C 
HETATM    9  O   UNL     1      27.930  41.312  53.655  1.00  0.00    -0.266 OA
HETATM   10  H   UNL     1      29.120  43.918  52.357  1.00  0.00     0.169 HD
BRANCH   8  11
HETATM   11  C   UNL     1      27.849  42.113  51.437  1.00  0.00     0.126 A 
HETATM   12  N   UNL     1      28.244  40.971  50.824  1.00  0.00    -0.231 NA
HETATM   13  C   UNL     1      27.836  40.827  49.546  1.00  0.00     0.127 A 
HETATM   14 CL   UNL     1      28.286  39.340  48.826  1.00  0.00    -0.062 Cl
HETATM   15  C   UNL     1      27.091  41.764  48.846  1.00  0.00     0.044 A 
HETATM   16  C   UNL     1      26.730  42.939  49.502  1.00  0.00     0.006 A 
HETATM   17  C   UNL     1      27.106  43.118  50.830  1.00  0.00     0.037 A 
ENDBRANCH   8  11
ENDBRANCH   2   7
BRANCH   1  18
HETATM   18  C   UNL     1      27.982  46.020  54.688  1.00  0.00     0.273 C 
BRANCH  18  19
HETATM   19  N   UNL     1      27.778  47.089  55.700  1.00  0.00    -0.072 N 
HETATM   20  H   UNL     1      28.655  47.587  55.879  1.00  0.00     0.277 HD
HETATM   21  H   UNL     1      27.545  46.561  56.555  1.00  0.00     0.277 HD
BRANCH  19  22
HETATM   22  C   UNL     1      26.645  48.012  55.455  1.00  0.00     0.228 C 
HETATM   23  C   UNL     1      25.964  47.606  54.163  1.00  0.00     0.034 C 
ENDBRANCH  19  22
ENDBRANCH  18  19
ENDBRANCH   1  18
TORSDOF 5
ENDMDL
MODEL 8
REMARK VINA RESULT:      -6.8      1.587      3.705
REMARK  5 active torsions:
REMARK  status: ('A' for Active; 'I' for Inactive)
REMARK    1  A    between atoms: C_2  and  N_3 
REMARK    2  A    between atoms: N_3  and  C_6 
REMARK    3  A    between atoms: C_6  and  C_7 
REMARK    4  A    between atoms: C_8  and  N_9 
REMARK       I    between atoms: N_9  and  C_10 
REMARK    5  A    between atoms: C_10  and  C_11 
ROOT
HETATM    1  C   UNL     1      28.505  45.479  55.007  1.00  0.00    -0.006 A 
HETATM    2  C   UNL     1      27.722  45.283  53.848  1.00  0.00     0.043 A 
HETATM    3  C   UNL     1      26.704  46.221  53.565  1.00  0.00     0.030 A 
HETATM    4  C   UNL     1      26.429  47.302  54.402  1.00  0.00     0.002 A 
HETATM    5  C   UNL     1      27.173  47.478  55.553  1.00  0.00     0.001 A 
HETATM    6  C   UNL     1      28.199  46.583  55.847  1.00  0.00     0.011 A 
ENDROOT
BRANCH   2   7
HETATM    7  N   UNL     1      27.784  44.246  52.885  1.00  0.00    -0.321 N 
HETATM    8  C   UNL     1      27.653  42.879  52.963  1.00  0.00     0.274 C 
HETATM    9  O   UNL     1      27.575  42.218  53.992  1.00  0.00    -0.266 OA
HETATM   10  H   UNL     1      27.891  44.557  51.915  1.00  0.00     0.169 HD
BRANCH   8  11
HETATM   11  C   UNL     1      27.702  42.189  51.636  1.00  0.00     0.126 A 
HETATM   12  N   UNL     1      28.353  41.000  51.632  1.00  0.00    -0.231 NA
HETATM   13  C   UNL     1      28.326  40.328  50.462  1.00  0.00     0.127 A 
HETATM   14 CL   UNL     1      29.090  38.797  50.513  1.00  0.00    -0.062 Cl
HETATM   15  C   UNL     1      27.721  40.788  49.302  1.00  0.00     0.044 A 
HETATM   16  C   UNL     1      27.089  42.029  49.339  1.00  0.00     0.006 A 
HETATM   17  C   UNL     1      27.066  42.745  50.532  1.00  0.00     0.037 A 
ENDBRANCH   8  11
ENDBRANCH   2   7
BRANCH   1  18
HETATM   18  C   UNL     1      29.676  44.645  55.465  1.00  0.00     0.273 C 
BRANCH  18  19
HETATM   19  N   UNL     1      30.510  45.343  56.478  1.00  0.00    -0.072 N 
HETATM   20  H   UNL     1      30.048  46.200  56.795  1.00  0.00     0.277 HD
HETATM   21  H   UNL     1      31.344  45.625  55.941  1.00  0.00     0.277 HD
BRANCH  19  22
HETATM   22  C   UNL     1      30.996  44.515  57.606  1.00  0.00     0.228 C 
HETATM   23  C   UNL     1      31.722  43.310  57.040  1.00  0.00     0.034 C 
ENDBRANCH  19  22
ENDBRANCH  18  19
ENDBRANCH   1  18
TORSDOF 5
ENDMDL
MODEL 9
REMARK VINA RESULT:      -6.8      3.493      6.501
REMARK  5 active torsions:
REMARK  status: ('A' for Active; 'I' for Inactive)
REMARK    1  A    between atoms: C_2  and  N_3 
REMARK    2  A    between atoms: N_3  and  C_6 
REMARK    3  A    between atoms: C_6  and  C_7 
REMARK    4  A    between atoms: C_8  and  N_9 
REMARK       I    between atoms: N_9  and  C_10 
REMARK    5  A    between atoms: C_10  and  C_11 
ROOT
HETATM    1  C   UNL     1      25.548  45.962  51.061  1.00  0.00    -0.006 A 
HETATM    2  C   UNL     1      25.891  44.929  51.960  1.00  0.00     0.043 A 
HETATM    3  C   UNL     1      25.248  43.679  51.818  1.00  0.00     0.030 A 
HETATM    4  C   UNL     1      24.270  43.447  50.851  1.00  0.00     0.002 A 
HETATM    5  C   UNL     1      23.910  44.466  49.989  1.00  0.00     0.001 A 
HETATM    6  C   UNL     1      24.543  45.702  50.089  1.00  0.00     0.011 A 
ENDROOT
BRANCH   2   7
HETATM    7  N   UNL     1      26.809  44.945  53.040  1.00  0.00    -0.321 N 
HETATM    8  C   UNL     1      28.070  44.423  53.212  1.00  0.00     0.274 C 
HETATM    9  O   UNL     1      28.651  43.667  52.442  1.00  0.00    -0.266 OA
HETATM   10  H   UNL     1      26.520  45.502  53.849  1.00  0.00     0.169 HD
BRANCH   8  11
HETATM   11  C   UNL     1      28.702  44.786  54.519  1.00  0.00     0.126 A 
HETATM   12  N   UNL     1      29.690  43.953  54.928  1.00  0.00    -0.231 NA
HETATM   13  C   UNL     1      30.326  44.320  56.060  1.00  0.00     0.127 A 
HETATM   14 CL   UNL     1      31.618  43.289  56.506  1.00  0.00    -0.062 Cl
HETATM   15  C   UNL     1      30.012  45.441  56.813  1.00  0.00     0.044 A 
HETATM   16  C   UNL     1      28.970  46.255  56.375  1.00  0.00     0.006 A 
HETATM   17  C   UNL     1      28.304  45.931  55.197  1.00  0.00     0.037 A 
ENDBRANCH   8  11
ENDBRANCH   2   7
BRANCH   1  18
HETATM   18  C   UNL     1      26.150  47.344  50.988  1.00  0.00     0.273 C 
BRANCH  18  19
HETATM   19  N   UNL     1      25.875  48.017  49.693  1.00  0.00    -0.072 N 
HETATM   20  H   UNL     1      24.984  48.520  49.731  1.00  0.00     0.277 HD
HETATM   21  H   UNL     1      25.754  47.228  49.039  1.00  0.00     0.277 HD
BRANCH  19  22
HETATM   22  C   UNL     1      26.971  48.850  49.145  1.00  0.00     0.228 C 
HETATM   23  C   UNL     1      26.375  49.856  48.180  1.00  0.00     0.034 C 
ENDBRANCH  19  22
ENDBRANCH  18  19
ENDBRANCH   1  18
TORSDOF 5
ENDMDL
MODEL 10
REMARK VINA RESULT:      -6.7      4.677      6.358
REMARK  5 active torsions:
REMARK  status: ('A' for Active; 'I' for Inactive)
REMARK    1  A    between atoms: C_2  and  N_3 
REMARK    2  A    between atoms: N_3  and  C_6 
REMARK    3  A    between atoms: C_6  and  C_7 
REMARK    4  A    between atoms: C_8  and  N_9 
REMARK       I    between atoms: N_9  and  C_10 
REMARK    5  A    between atoms: C_10  and  C_11 
ROOT
HETATM    1  C   UNL     1      26.713  45.093  53.019  1.00  0.00    -0.006 A 
HETATM    2  C   UNL     1      26.196  46.392  52.825  1.00  0.00     0.043 A 
HETATM    3  C   UNL     1      26.541  47.394  53.760  1.00  0.00     0.030 A 
HETATM    4  C   UNL     1      27.338  47.134  54.874  1.00  0.00     0.002 A 
HETATM    5  C   UNL     1      27.820  45.856  55.083  1.00  0.00     0.001 A 
HETATM    6  C   UNL     1      27.517  44.853  54.166  1.00  0.00     0.011 A 
ENDROOT
BRANCH   2   7
HETATM    7  N   UNL     1      25.337  46.876  51.806  1.00  0.00    -0.321 N 
HETATM    8  C   UNL     1      25.565  47.456  50.580  1.00  0.00     0.274 C 
HETATM    9  O   UNL     1      26.650  47.817  50.141  1.00  0.00    -0.266 OA
HETATM   10  H   UNL     1      24.338  46.719  51.968  1.00  0.00     0.169 HD
BRANCH   8  11
HETATM   11  C   UNL     1      24.319  47.719  49.795  1.00  0.00     0.126 A 
HETATM   12  N   UNL     1      24.018  49.029  49.619  1.00  0.00    -0.231 NA
HETATM   13  C   UNL     1      22.946  49.278  48.838  1.00  0.00     0.127 A 
HETATM   14 CL   UNL     1      22.640  50.942  48.574  1.00  0.00    -0.062 Cl
HETATM   15  C   UNL     1      22.150  48.303  48.257  1.00  0.00     0.044 A 
HETATM   16  C   UNL     1      22.474  46.968  48.486  1.00  0.00     0.006 A 
HETATM   17  C   UNL     1      23.588  46.663  49.263  1.00  0.00     0.037 A 
ENDBRANCH   8  11
ENDBRANCH   2   7
BRANCH   1  18
HETATM   18  C   UNL     1      26.529  43.896  52.119  1.00  0.00     0.273 C 
BRANCH  18  19
HETATM   19  N   UNL     1      26.897  42.620  52.786  1.00  0.00    -0.072 N 
HETATM   20  H   UNL     1      26.057  42.107  53.068  1.00  0.00     0.277 HD
HETATM   21  H   UNL     1      27.369  42.934  53.648  1.00  0.00     0.277 HD
BRANCH  19  22
HETATM   22  C   UNL     1      27.866  41.763  52.065  1.00  0.00     0.228 C 
HETATM   23  C   UNL     1      29.156  41.719  52.862  1.00  0.00     0.034 C 
ENDBRANCH  19  22
ENDBRANCH  18  19
ENDBRANCH   1  18
TORSDOF 5
ENDMDL
