MODEL 1
REMARK VINA RESULT:      -9.2      0.000      0.000
REMARK  6 active torsions:
REMARK  status: ('A' for Active; 'I' for Inactive)
REMARK    1  A    between atoms: O_2  and  C_3 
REMARK    2  A    between atoms: C_6  and  N_7 
REMARK    3  A    between atoms: C_16  and  C_17 
REMARK    4  A    between atoms: C_17  and  C_18 
REMARK    5  A    between atoms: C_26  and  C_27 
REMARK    6  A    between atoms: C_26  and  C_31 
ROOT
HETATM    1  N   UNL     1      28.097  48.136  39.116  1.00  0.00    -0.249 N 
HETATM    2  C   UNL     1      27.087  48.509  38.215  1.00  0.00     0.335 C 
HETATM    3  O   UNL     1      26.408  47.744  37.536  1.00  0.00    -0.246 OA
HETATM    4  N   UNL     1      26.901  49.856  38.059  1.00  0.00    -0.274 N 
HETATM    5  C   UNL     1      27.746  50.813  38.506  1.00  0.00     0.262 C 
HETATM    6  O   UNL     1      27.743  51.958  38.090  1.00  0.00    -0.267 OA
HETATM    7  C   UNL     1      28.686  50.417  39.554  1.00  0.00     0.101 C 
HETATM    8  C   UNL     1      28.822  49.108  39.806  1.00  0.00     0.132 C 
HETATM    9  N   UNL     1      29.667  48.711  40.823  1.00  0.00    -0.331 N 
HETATM   10  C   UNL     1      30.440  49.546  41.485  1.00  0.00     0.084 C 
HETATM   11  N   UNL     1      30.400  50.842  41.271  1.00  0.00    -0.351 N 
HETATM   12  H   UNL     1      31.041  51.452  41.788  1.00  0.00     0.162 HD
HETATM   13  C   UNL     1      29.405  51.513  40.308  1.00  0.00     0.264 C 
HETATM   14  H   UNL     1      26.253  50.115  37.322  1.00  0.00     0.173 HD
HETATM   15  H   UNL     1      29.727  47.724  41.060  1.00  0.00     0.168 HD
ENDROOT
BRANCH   1  16
HETATM   16  C   UNL     1      28.339  46.728  39.280  1.00  0.00     0.045 A 
HETATM   17  C   UNL     1      27.614  45.979  40.218  1.00  0.00     0.033 A 
HETATM   18  C   UNL     1      27.796  44.596  40.311  1.00  0.00     0.039 A 
HETATM   19  C   UNL     1      28.706  43.940  39.481  1.00  0.00     0.068 A 
HETATM   20  C   UNL     1      29.460  44.683  38.575  1.00  0.00     0.039 A 
HETATM   21  C   UNL     1      29.283  46.069  38.481  1.00  0.00     0.033 A 
BRANCH  19  22
HETATM   22  O   UNL     1      28.763  42.586  39.656  1.00  0.00    -0.356 OA
HETATM   23  C   UNL     1      28.011  42.041  40.735  1.00  0.00     0.210 C 
ENDBRANCH  19  22
ENDBRANCH   1  16
BRANCH  13  24
HETATM   24  C   UNL     1      28.450  52.350  41.164  1.00  0.00     0.426 C 
HETATM   25  F   UNL     1      27.367  51.589  41.482  1.00  0.00    -0.168 F 
HETATM   26  F   UNL     1      29.035  52.685  42.337  1.00  0.00    -0.168 F 
HETATM   27  F   UNL     1      27.990  53.464  40.584  1.00  0.00    -0.168 F 
ENDBRANCH  13  24
BRANCH  13  28
HETATM   28  C   UNL     1      30.204  52.511  39.461  1.00  0.00     0.426 C 
HETATM   29  F   UNL     1      30.762  51.878  38.402  1.00  0.00    -0.168 F 
HETATM   30  F   UNL     1      29.531  53.580  39.022  1.00  0.00    -0.168 F 
HETATM   31  F   UNL     1      31.244  52.975  40.211  1.00  0.00    -0.168 F 
ENDBRANCH  13  28
BRANCH  10  32
HETATM   32  C   UNL     1      31.396  48.995  42.491  1.00  0.00     0.114 C 
BRANCH  32  33
HETATM   33  C   UNL     1      32.500  49.974  42.808  1.00  0.00    -0.051 A 
HETATM   34  C   UNL     1      32.325  50.936  43.813  1.00  0.00     0.007 A 
HETATM   35  C   UNL     1      33.328  51.869  44.079  1.00  0.00     0.001 A 
HETATM   36  C   UNL     1      34.511  51.851  43.344  1.00  0.00     0.000 A 
HETATM   37  C   UNL     1      34.696  50.900  42.345  1.00  0.00     0.001 A 
HETATM   38  C   UNL     1      33.696  49.963  42.075  1.00  0.00     0.007 A 
ENDBRANCH  32  33
ENDBRANCH  10  32
TORSDOF 6
ENDMDL
MODEL 2
REMARK VINA RESULT:      -8.7     12.401     13.800
REMARK  6 active torsions:
REMARK  status: ('A' for Active; 'I' for Inactive)
REMARK    1  A    between atoms: O_2  and  C_3 
REMARK    2  A    between atoms: C_6  and  N_7 
REMARK    3  A    between atoms: C_16  and  C_17 
REMARK    4  A    between atoms: C_17  and  C_18 
REMARK    5  A    between atoms: C_26  and  C_27 
REMARK    6  A    between atoms: C_26  and  C_31 
ROOT
HETATM    1  N   UNL     1      26.095  41.882  50.403  1.00  0.00    -0.249 N 
HETATM    2  C   UNL     1      24.754  41.987  50.000  1.00  0.00     0.335 C 
HETATM    3  O   UNL     1      24.206  41.308  49.137  1.00  0.00    -0.246 OA
HETATM    4  N   UNL     1      24.031  42.981  50.602  1.00  0.00    -0.274 N 
HETATM    5  C   UNL     1      24.557  43.982  51.345  1.00  0.00     0.262 C 
HETATM    6  O   UNL     1      23.963  45.016  51.595  1.00  0.00    -0.267 OA
HETATM    7  C   UNL     1      25.905  43.768  51.870  1.00  0.00     0.101 C 
HETATM    8  C   UNL     1      26.609  42.740  51.376  1.00  0.00     0.132 C 
HETATM    9  N   UNL     1      27.865  42.487  51.889  1.00  0.00    -0.331 N 
HETATM   10  C   UNL     1      28.460  43.275  52.760  1.00  0.00     0.084 C 
HETATM   11  N   UNL     1      27.856  44.328  53.265  1.00  0.00    -0.351 N 
HETATM   12  H   UNL     1      28.368  44.931  53.916  1.00  0.00     0.162 HD
HETATM   13  C   UNL     1      26.392  44.692  52.963  1.00  0.00     0.264 C 
HETATM   14  H   UNL     1      23.102  43.124  50.220  1.00  0.00     0.173 HD
HETATM   15  H   UNL     1      28.379  41.672  51.564  1.00  0.00     0.168 HD
ENDROOT
BRANCH   1  16
HETATM   16  C   UNL     1      26.891  40.868  49.767  1.00  0.00     0.045 A 
HETATM   17  C   UNL     1      27.700  41.176  48.663  1.00  0.00     0.033 A 
HETATM   18  C   UNL     1      28.535  40.204  48.106  1.00  0.00     0.039 A 
HETATM   19  C   UNL     1      28.573  38.911  48.631  1.00  0.00     0.068 A 
HETATM   20  C   UNL     1      27.742  38.586  49.700  1.00  0.00     0.039 A 
HETATM   21  C   UNL     1      26.901  39.556  50.260  1.00  0.00     0.033 A 
BRANCH  19  22
HETATM   22  O   UNL     1      29.454  38.071  48.011  1.00  0.00    -0.356 OA
HETATM   23  C   UNL     1      28.997  37.404  46.838  1.00  0.00     0.210 C 
ENDBRANCH  19  22
ENDBRANCH   1  16
BRANCH  13  24
HETATM   24  C   UNL     1      25.609  44.512  54.267  1.00  0.00     0.426 C 
HETATM   25  F   UNL     1      24.943  43.326  54.216  1.00  0.00    -0.168 F 
HETATM   26  F   UNL     1      26.455  44.427  55.319  1.00  0.00    -0.168 F 
HETATM   27  F   UNL     1      24.702  45.461  54.524  1.00  0.00    -0.168 F 
ENDBRANCH  13  24
BRANCH  13  28
HETATM   28  C   UNL     1      26.358  46.193  52.650  1.00  0.00     0.426 C 
HETATM   29  F   UNL     1      26.743  46.409  51.369  1.00  0.00    -0.168 F 
HETATM   30  F   UNL     1      25.192  46.812  52.861  1.00  0.00    -0.168 F 
HETATM   31  F   UNL     1      27.287  46.816  53.430  1.00  0.00    -0.168 F 
ENDBRANCH  13  28
BRANCH  10  32
HETATM   32  C   UNL     1      29.864  42.967  53.167  1.00  0.00     0.114 C 
BRANCH  32  33
HETATM   33  C   UNL     1      30.182  43.511  54.538  1.00  0.00    -0.051 A 
HETATM   34  C   UNL     1      29.770  44.803  54.899  1.00  0.00     0.007 A 
HETATM   35  C   UNL     1      30.098  45.324  56.150  1.00  0.00     0.001 A 
HETATM   36  C   UNL     1      30.842  44.563  57.050  1.00  0.00     0.000 A 
HETATM   37  C   UNL     1      31.255  43.280  56.703  1.00  0.00     0.001 A 
HETATM   38  C   UNL     1      30.927  42.753  55.452  1.00  0.00     0.007 A 
ENDBRANCH  32  33
ENDBRANCH  10  32
TORSDOF 6
ENDMDL
MODEL 3
REMARK VINA RESULT:      -8.5     10.644     11.856
REMARK  6 active torsions:
REMARK  status: ('A' for Active; 'I' for Inactive)
REMARK    1  A    between atoms: O_2  and  C_3 
REMARK    2  A    between atoms: C_6  and  N_7 
REMARK    3  A    between atoms: C_16  and  C_17 
REMARK    4  A    between atoms: C_17  and  C_18 
REMARK    5  A    between atoms: C_26  and  C_27 
REMARK    6  A    between atoms: C_26  and  C_31 
ROOT
HETATM    1  N   UNL     1      19.966  47.003  47.702  1.00  0.00    -0.249 N 
HETATM    2  C   UNL     1      18.719  46.488  48.089  1.00  0.00     0.335 C 
HETATM    3  O   UNL     1      18.325  45.339  47.905  1.00  0.00    -0.246 OA
HETATM    4  N   UNL     1      17.865  47.382  48.676  1.00  0.00    -0.274 N 
HETATM    5  C   UNL     1      18.034  48.724  48.687  1.00  0.00     0.262 C 
HETATM    6  O   UNL     1      17.133  49.512  48.914  1.00  0.00    -0.267 OA
HETATM    7  C   UNL     1      19.387  49.214  48.422  1.00  0.00     0.101 C 
HETATM    8  C   UNL     1      20.282  48.341  47.941  1.00  0.00     0.132 C 
HETATM    9  N   UNL     1      21.578  48.767  47.729  1.00  0.00    -0.331 N 
HETATM   10  C   UNL     1      21.956  50.021  47.863  1.00  0.00     0.084 C 
HETATM   11  N   UNL     1      21.129  50.950  48.291  1.00  0.00    -0.351 N 
HETATM   12  H   UNL     1      21.457  51.918  48.350  1.00  0.00     0.162 HD
HETATM   13  C   UNL     1      19.690  50.658  48.751  1.00  0.00     0.264 C 
HETATM   14  H   UNL     1      16.928  47.030  48.844  1.00  0.00     0.173 HD
HETATM   15  H   UNL     1      22.277  48.094  47.423  1.00  0.00     0.168 HD
ENDROOT
BRANCH   1  16
HETATM   16  C   UNL     1      20.876  46.097  47.055  1.00  0.00     0.045 A 
HETATM   17  C   UNL     1      20.882  45.960  45.659  1.00  0.00     0.033 A 
HETATM   18  C   UNL     1      21.828  45.142  45.034  1.00  0.00     0.039 A 
HETATM   19  C   UNL     1      22.773  44.442  45.785  1.00  0.00     0.068 A 
HETATM   20  C   UNL     1      22.746  44.540  47.175  1.00  0.00     0.039 A 
HETATM   21  C   UNL     1      21.799  45.357  47.805  1.00  0.00     0.033 A 
BRANCH  19  22
HETATM   22  O   UNL     1      23.655  43.705  45.047  1.00  0.00    -0.356 OA
HETATM   23  C   UNL     1      24.057  44.244  43.792  1.00  0.00     0.210 C 
ENDBRANCH  19  22
ENDBRANCH   1  16
BRANCH  13  24
HETATM   24  C   UNL     1      19.639  50.934  50.257  1.00  0.00     0.426 C 
HETATM   25  F   UNL     1      20.849  51.417  50.653  1.00  0.00    -0.168 F 
HETATM   26  F   UNL     1      18.736  51.902  50.531  1.00  0.00    -0.168 F 
HETATM   27  F   UNL     1      19.371  49.870  51.023  1.00  0.00    -0.168 F 
ENDBRANCH  13  24
BRANCH  13  28
HETATM   28  C   UNL     1      18.788  51.711  48.096  1.00  0.00     0.426 C 
HETATM   29  F   UNL     1      18.595  51.407  46.790  1.00  0.00    -0.168 F 
HETATM   30  F   UNL     1      17.598  51.908  48.674  1.00  0.00    -0.168 F 
HETATM   31  F   UNL     1      19.441  52.907  48.110  1.00  0.00    -0.168 F 
ENDBRANCH  13  28
BRANCH  10  32
HETATM   32  C   UNL     1      23.357  50.392  47.502  1.00  0.00     0.114 C 
BRANCH  32  33
HETATM   33  C   UNL     1      24.367  49.615  48.309  1.00  0.00    -0.051 A 
HETATM   34  C   UNL     1      25.739  49.864  48.152  1.00  0.00     0.007 A 
HETATM   35  C   UNL     1      26.677  49.119  48.865  1.00  0.00     0.001 A 
HETATM   36  C   UNL     1      26.257  48.118  49.738  1.00  0.00     0.000 A 
HETATM   37  C   UNL     1      24.898  47.863  49.903  1.00  0.00     0.001 A 
HETATM   38  C   UNL     1      23.954  48.608  49.192  1.00  0.00     0.007 A 
ENDBRANCH  32  33
ENDBRANCH  10  32
TORSDOF 6
ENDMDL
MODEL 4
REMARK VINA RESULT:      -8.4     25.482     26.998
REMARK  6 active torsions:
REMARK  status: ('A' for Active; 'I' for Inactive)
REMARK    1  A    between atoms: O_2  and  C_3 
REMARK    2  A    between atoms: C_6  and  N_7 
REMARK    3  A    between atoms: C_16  and  C_17 
REMARK    4  A    between atoms: C_17  and  C_18 
REMARK    5  A    between atoms: C_26  and  C_27 
REMARK    6  A    between atoms: C_26  and  C_31 
ROOT
HETATM    1  N   UNL     1      37.607  44.005  65.004  1.00  0.00    -0.249 N 
HETATM    2  C   UNL     1      36.290  44.000  65.491  1.00  0.00     0.335 C 
HETATM    3  O   UNL     1      35.536  43.031  65.520  1.00  0.00    -0.246 OA
HETATM    4  N   UNL     1      35.812  45.209  65.917  1.00  0.00    -0.274 N 
HETATM    5  C   UNL     1      36.403  46.404  65.685  1.00  0.00     0.262 C 
HETATM    6  O   UNL     1      35.822  47.470  65.777  1.00  0.00    -0.267 OA
HETATM    7  C   UNL     1      37.820  46.371  65.323  1.00  0.00     0.101 C 
HETATM    8  C   UNL     1      38.352  45.185  64.997  1.00  0.00     0.132 C 
HETATM    9  N   UNL     1      39.698  45.119  64.698  1.00  0.00    -0.331 N 
HETATM   10  C   UNL     1      40.467  46.184  64.602  1.00  0.00     0.084 C 
HETATM   11  N   UNL     1      40.015  47.390  64.864  1.00  0.00    -0.351 N 
HETATM   12  H   UNL     1      40.640  48.193  64.746  1.00  0.00     0.162 HD
HETATM   13  C   UNL     1      38.594  47.668  65.384  1.00  0.00     0.264 C 
HETATM   14  H   UNL     1      34.825  45.218  66.155  1.00  0.00     0.173 HD
HETATM   15  H   UNL     1      40.121  44.214  64.511  1.00  0.00     0.168 HD
ENDROOT
BRANCH   1  16
HETATM   16  C   UNL     1      38.130  42.757  64.521  1.00  0.00     0.045 A 
HETATM   17  C   UNL     1      38.138  42.463  63.149  1.00  0.00     0.033 A 
HETATM   18  C   UNL     1      38.727  41.285  62.682  1.00  0.00     0.039 A 
HETATM   19  C   UNL     1      39.308  40.378  63.569  1.00  0.00     0.068 A 
HETATM   20  C   UNL     1      39.267  40.642  64.936  1.00  0.00     0.039 A 
HETATM   21  C   UNL     1      38.675  41.820  65.409  1.00  0.00     0.033 A 
BRANCH  19  22
HETATM   22  O   UNL     1      39.873  39.284  62.976  1.00  0.00    -0.356 OA
HETATM   23  C   UNL     1      40.697  38.459  63.792  1.00  0.00     0.210 C 
ENDBRANCH  19  22
ENDBRANCH   1  16
BRANCH  13  24
HETATM   24  C   UNL     1      38.738  48.191  66.817  1.00  0.00     0.426 C 
HETATM   25  F   UNL     1      39.092  47.154  67.626  1.00  0.00    -0.168 F 
HETATM   26  F   UNL     1      39.742  49.092  66.894  1.00  0.00    -0.168 F 
HETATM   27  F   UNL     1      37.634  48.736  67.339  1.00  0.00    -0.168 F 
ENDBRANCH  13  24
BRANCH  13  28
HETATM   28  C   UNL     1      38.035  48.834  64.561  1.00  0.00     0.426 C 
HETATM   29  F   UNL     1      37.233  48.364  63.575  1.00  0.00    -0.168 F 
HETATM   30  F   UNL     1      37.373  49.774  65.245  1.00  0.00    -0.168 F 
HETATM   31  F   UNL     1      39.074  49.455  63.933  1.00  0.00    -0.168 F 
ENDBRANCH  13  28
BRANCH  10  32
HETATM   32  C   UNL     1      41.885  46.009  64.165  1.00  0.00     0.114 C 
BRANCH  32  33
HETATM   33  C   UNL     1      42.849  46.680  65.111  1.00  0.00    -0.051 A 
HETATM   34  C   UNL     1      44.189  46.869  64.740  1.00  0.00     0.007 A 
HETATM   35  C   UNL     1      45.092  47.451  65.629  1.00  0.00     0.001 A 
HETATM   36  C   UNL     1      44.668  47.848  66.895  1.00  0.00     0.000 A 
HETATM   37  C   UNL     1      43.341  47.667  67.274  1.00  0.00     0.001 A 
HETATM   38  C   UNL     1      42.432  47.085  66.387  1.00  0.00     0.007 A 
ENDBRANCH  32  33
ENDBRANCH  10  32
TORSDOF 6
ENDMDL
MODEL 5
REMARK VINA RESULT:      -8.3     11.022     12.133
REMARK  6 active torsions:
REMARK  status: ('A' for Active; 'I' for Inactive)
REMARK    1  A    between atoms: O_2  and  C_3 
REMARK    2  A    between atoms: C_6  and  N_7 
REMARK    3  A    between atoms: C_16  and  C_17 
REMARK    4  A    between atoms: C_17  and  C_18 
REMARK    5  A    between atoms: C_26  and  C_27 
REMARK    6  A    between atoms: C_26  and  C_31 
ROOT
HETATM    1  N   UNL     1      20.706  45.941  48.589  1.00  0.00    -0.249 N 
HETATM    2  C   UNL     1      19.330  45.737  48.405  1.00  0.00     0.335 C 
HETATM    3  O   UNL     1      18.786  44.661  48.171  1.00  0.00    -0.246 OA
HETATM    4  N   UNL     1      18.554  46.863  48.444  1.00  0.00    -0.274 N 
HETATM    5  C   UNL     1      19.023  48.132  48.403  1.00  0.00     0.262 C 
HETATM    6  O   UNL     1      18.335  49.093  48.113  1.00  0.00    -0.267 OA
HETATM    7  C   UNL     1      20.433  48.317  48.746  1.00  0.00     0.101 C 
HETATM    8  C   UNL     1      21.205  47.224  48.818  1.00  0.00     0.132 C 
HETATM    9  N   UNL     1      22.527  47.368  49.187  1.00  0.00    -0.331 N 
HETATM   10  C   UNL     1      23.105  48.539  49.360  1.00  0.00     0.084 C 
HETATM   11  N   UNL     1      22.429  49.663  49.267  1.00  0.00    -0.351 N 
HETATM   12  H   UNL     1      22.925  50.552  49.379  1.00  0.00     0.162 HD
HETATM   13  C   UNL     1      20.909  49.722  49.038  1.00  0.00     0.264 C 
HETATM   14  H   UNL     1      17.581  46.720  48.193  1.00  0.00     0.173 HD
HETATM   15  H   UNL     1      23.103  46.538  49.304  1.00  0.00     0.168 HD
ENDROOT
BRANCH   1  16
HETATM   16  C   UNL     1      21.554  44.782  48.524  1.00  0.00     0.045 A 
HETATM   17  C   UNL     1      22.046  44.185  49.694  1.00  0.00     0.033 A 
HETATM   18  C   UNL     1      22.798  43.010  49.625  1.00  0.00     0.039 A 
HETATM   19  C   UNL     1      23.081  42.415  48.394  1.00  0.00     0.068 A 
HETATM   20  C   UNL     1      22.633  43.025  47.225  1.00  0.00     0.039 A 
HETATM   21  C   UNL     1      21.880  44.205  47.290  1.00  0.00     0.033 A 
BRANCH  19  22
HETATM   22  O   UNL     1      23.799  41.256  48.474  1.00  0.00    -0.356 OA
HETATM   23  C   UNL     1      25.026  41.302  49.195  1.00  0.00     0.210 C 
ENDBRANCH  19  22
ENDBRANCH   1  16
BRANCH  13  24
HETATM   24  C   UNL     1      20.286  50.291  50.317  1.00  0.00     0.426 C 
HETATM   25  F   UNL     1      21.271  50.860  51.065  1.00  0.00    -0.168 F 
HETATM   26  F   UNL     1      19.416  51.282  50.020  1.00  0.00    -0.168 F 
HETATM   27  F   UNL     1      19.667  49.398  51.097  1.00  0.00    -0.168 F 
ENDBRANCH  13  24
BRANCH  13  28
HETATM   28  C   UNL     1      20.660  50.767  47.943  1.00  0.00     0.426 C 
HETATM   29  F   UNL     1      20.907  50.229  46.725  1.00  0.00    -0.168 F 
HETATM   30  F   UNL     1      19.447  51.328  47.931  1.00  0.00    -0.168 F 
HETATM   31  F   UNL     1      21.565  51.775  48.097  1.00  0.00    -0.168 F 
ENDBRANCH  13  28
BRANCH  10  32
HETATM   32  C   UNL     1      24.569  48.582  49.652  1.00  0.00     0.114 C 
BRANCH  32  33
HETATM   33  C   UNL     1      25.060  47.287  50.249  1.00  0.00    -0.051 A 
HETATM   34  C   UNL     1      25.475  46.237  49.416  1.00  0.00     0.007 A 
HETATM   35  C   UNL     1      25.890  45.024  49.964  1.00  0.00     0.001 A 
HETATM   36  C   UNL     1      25.891  44.846  51.346  1.00  0.00     0.000 A 
HETATM   37  C   UNL     1      25.482  45.881  52.182  1.00  0.00     0.001 A 
HETATM   38  C   UNL     1      25.067  47.099  51.638  1.00  0.00     0.007 A 
ENDBRANCH  32  33
ENDBRANCH  10  32
TORSDOF 6
ENDMDL
MODEL 6
REMARK VINA RESULT:      -8.3     12.222     14.827
REMARK  6 active torsions:
REMARK  status: ('A' for Active; 'I' for Inactive)
REMARK    1  A    between atoms: O_2  and  C_3 
REMARK    2  A    between atoms: C_6  and  N_7 
REMARK    3  A    between atoms: C_16  and  C_17 
REMARK    4  A    between atoms: C_17  and  C_18 
REMARK    5  A    between atoms: C_26  and  C_27 
REMARK    6  A    between atoms: C_26  and  C_31 
ROOT
HETATM    1  N   UNL     1      27.390  41.726  50.938  1.00  0.00    -0.249 N 
HETATM    2  C   UNL     1      28.507  41.405  51.725  1.00  0.00     0.335 C 
HETATM    3  O   UNL     1      29.038  42.138  52.555  1.00  0.00    -0.246 OA
HETATM    4  N   UNL     1      29.066  40.179  51.488  1.00  0.00    -0.274 N 
HETATM    5  C   UNL     1      28.784  39.389  50.426  1.00  0.00     0.262 C 
HETATM    6  O   UNL     1      29.503  38.479  50.057  1.00  0.00    -0.267 OA
HETATM    7  C   UNL     1      27.532  39.666  49.722  1.00  0.00     0.101 C 
HETATM    8  C   UNL     1      26.900  40.813  50.003  1.00  0.00     0.132 C 
HETATM    9  N   UNL     1      25.692  41.075  49.388  1.00  0.00    -0.331 N 
HETATM   10  C   UNL     1      25.182  40.309  48.446  1.00  0.00     0.084 C 
HETATM   11  N   UNL     1      25.759  39.186  48.081  1.00  0.00    -0.351 N 
HETATM   12  H   UNL     1      25.344  38.636  47.322  1.00  0.00     0.162 HD
HETATM   13  C   UNL     1      27.018  38.618  48.760  1.00  0.00     0.264 C 
HETATM   14  H   UNL     1      29.939  40.007  51.976  1.00  0.00     0.173 HD
HETATM   15  H   UNL     1      25.177  41.914  49.643  1.00  0.00     0.168 HD
ENDROOT
BRANCH   1  16
HETATM   16  C   UNL     1      26.796  43.019  51.141  1.00  0.00     0.045 A 
HETATM   17  C   UNL     1      27.059  44.077  50.259  1.00  0.00     0.033 A 
HETATM   18  C   UNL     1      26.411  45.305  50.415  1.00  0.00     0.039 A 
HETATM   19  C   UNL     1      25.499  45.504  51.453  1.00  0.00     0.068 A 
HETATM   20  C   UNL     1      25.264  44.471  52.358  1.00  0.00     0.039 A 
HETATM   21  C   UNL     1      25.914  43.240  52.207  1.00  0.00     0.033 A 
BRANCH  19  22
HETATM   22  O   UNL     1      24.916  46.739  51.471  1.00  0.00    -0.356 OA
HETATM   23  C   UNL     1      24.814  47.425  50.228  1.00  0.00     0.210 C 
ENDBRANCH  19  22
ENDBRANCH   1  16
BRANCH  13  24
HETATM   24  C   UNL     1      26.597  37.331  49.476  1.00  0.00     0.426 C 
HETATM   25  F   UNL     1      25.866  37.662  50.576  1.00  0.00    -0.168 F 
HETATM   26  F   UNL     1      25.781  36.596  48.686  1.00  0.00    -0.168 F 
HETATM   27  F   UNL     1      27.603  36.553  49.892  1.00  0.00    -0.168 F 
ENDBRANCH  13  24
BRANCH  13  28
HETATM   28  C   UNL     1      27.977  38.190  47.643  1.00  0.00     0.426 C 
HETATM   29  F   UNL     1      28.709  39.251  47.228  1.00  0.00    -0.168 F 
HETATM   30  F   UNL     1      28.805  37.181  47.933  1.00  0.00    -0.168 F 
HETATM   31  F   UNL     1      27.237  37.801  46.566  1.00  0.00    -0.168 F 
ENDBRANCH  13  28
BRANCH  10  32
HETATM   32  C   UNL     1      23.923  40.743  47.770  1.00  0.00     0.114 C 
BRANCH  32  33
HETATM   33  C   UNL     1      23.518  42.136  48.181  1.00  0.00    -0.051 A 
HETATM   34  C   UNL     1      22.998  42.372  49.463  1.00  0.00     0.007 A 
HETATM   35  C   UNL     1      22.584  43.652  49.832  1.00  0.00     0.001 A 
HETATM   36  C   UNL     1      22.683  44.706  48.926  1.00  0.00     0.000 A 
HETATM   37  C   UNL     1      23.198  44.484  47.652  1.00  0.00     0.001 A 
HETATM   38  C   UNL     1      23.616  43.205  47.278  1.00  0.00     0.007 A 
ENDBRANCH  32  33
ENDBRANCH  10  32
TORSDOF 6
ENDMDL
MODEL 7
REMARK VINA RESULT:      -8.2      3.640      6.455
REMARK  6 active torsions:
REMARK  status: ('A' for Active; 'I' for Inactive)
REMARK    1  A    between atoms: O_2  and  C_3 
REMARK    2  A    between atoms: C_6  and  N_7 
REMARK    3  A    between atoms: C_16  and  C_17 
REMARK    4  A    between atoms: C_17  and  C_18 
REMARK    5  A    between atoms: C_26  and  C_27 
REMARK    6  A    between atoms: C_26  and  C_31 
ROOT
HETATM    1  N   UNL     1      27.146  49.379  39.004  1.00  0.00    -0.249 N 
HETATM    2  C   UNL     1      25.834  49.356  38.507  1.00  0.00     0.335 C 
HETATM    3  O   UNL     1      25.111  50.334  38.337  1.00  0.00    -0.246 OA
HETATM    4  N   UNL     1      25.320  48.115  38.248  1.00  0.00    -0.274 N 
HETATM    5  C   UNL     1      25.873  46.946  38.648  1.00  0.00     0.262 C 
HETATM    6  O   UNL     1      25.259  45.896  38.698  1.00  0.00    -0.267 OA
HETATM    7  C   UNL     1      27.288  46.986  39.017  1.00  0.00     0.101 C 
HETATM    8  C   UNL     1      27.854  48.189  39.181  1.00  0.00     0.132 C 
HETATM    9  N   UNL     1      29.200  48.255  39.482  1.00  0.00    -0.331 N 
HETATM   10  C   UNL     1      29.936  47.192  39.732  1.00  0.00     0.084 C 
HETATM   11  N   UNL     1      29.447  45.975  39.634  1.00  0.00    -0.351 N 
HETATM   12  H   UNL     1      30.047  45.178  39.868  1.00  0.00     0.162 HD
HETATM   13  C   UNL     1      28.021  45.670  39.143  1.00  0.00     0.264 C 
HETATM   14  H   UNL     1      24.335  48.103  38.003  1.00  0.00     0.173 HD
HETATM   15  H   UNL     1      29.650  49.165  39.547  1.00  0.00     0.168 HD
ENDROOT
BRANCH   1  16
HETATM   16  C   UNL     1      27.706  50.666  39.316  1.00  0.00     0.045 A 
HETATM   17  C   UNL     1      27.666  51.169  40.625  1.00  0.00     0.033 A 
HETATM   18  C   UNL     1      28.288  52.381  40.935  1.00  0.00     0.039 A 
HETATM   19  C   UNL     1      28.950  53.116  39.950  1.00  0.00     0.068 A 
HETATM   20  C   UNL     1      28.958  52.644  38.639  1.00  0.00     0.039 A 
HETATM   21  C   UNL     1      28.333  51.431  38.323  1.00  0.00     0.033 A 
BRANCH  19  22
HETATM   22  O   UNL     1      29.538  54.265  40.396  1.00  0.00    -0.356 OA
HETATM   23  C   UNL     1      30.932  54.211  40.678  1.00  0.00     0.210 C 
ENDBRANCH  19  22
ENDBRANCH   1  16
BRANCH  13  24
HETATM   24  C   UNL     1      28.157  44.951  37.797  1.00  0.00     0.426 C 
HETATM   25  F   UNL     1      28.307  45.884  36.817  1.00  0.00    -0.168 F 
HETATM   26  F   UNL     1      29.279  44.195  37.775  1.00  0.00    -0.168 F 
HETATM   27  F   UNL     1      27.118  44.182  37.453  1.00  0.00    -0.168 F 
ENDBRANCH  13  24
BRANCH  13  28
HETATM   28  C   UNL     1      27.421  44.646  40.114  1.00  0.00     0.426 C 
HETATM   29  F   UNL     1      26.992  45.269  41.237  1.00  0.00    -0.168 F 
HETATM   30  F   UNL     1      26.429  43.891  39.632  1.00  0.00    -0.168 F 
HETATM   31  F   UNL     1      28.412  43.798  40.511  1.00  0.00    -0.168 F 
ENDBRANCH  13  28
BRANCH  10  32
HETATM   32  C   UNL     1      31.355  47.383  40.155  1.00  0.00     0.114 C 
BRANCH  32  33
HETATM   33  C   UNL     1      31.544  48.672  40.916  1.00  0.00    -0.051 A 
HETATM   34  C   UNL     1      31.858  49.856  40.233  1.00  0.00     0.007 A 
HETATM   35  C   UNL     1      32.075  51.040  40.936  1.00  0.00     0.001 A 
HETATM   36  C   UNL     1      31.982  51.053  42.327  1.00  0.00     0.000 A 
HETATM   37  C   UNL     1      31.671  49.884  43.015  1.00  0.00     0.001 A 
HETATM   38  C   UNL     1      31.451  48.696  42.315  1.00  0.00     0.007 A 
ENDBRANCH  32  33
ENDBRANCH  10  32
TORSDOF 6
ENDMDL
MODEL 8
REMARK VINA RESULT:      -8.2     11.872     14.116
REMARK  6 active torsions:
REMARK  status: ('A' for Active; 'I' for Inactive)
REMARK    1  A    between atoms: O_2  and  C_3 
REMARK    2  A    between atoms: C_6  and  N_7 
REMARK    3  A    between atoms: C_16  and  C_17 
REMARK    4  A    between atoms: C_17  and  C_18 
REMARK    5  A    between atoms: C_26  and  C_27 
REMARK    6  A    between atoms: C_26  and  C_31 
ROOT
HETATM    1  N   UNL     1      27.261  42.840  52.720  1.00  0.00    -0.249 N 
HETATM    2  C   UNL     1      27.436  41.449  52.664  1.00  0.00     0.335 C 
HETATM    3  O   UNL     1      28.236  40.796  53.328  1.00  0.00    -0.246 OA
HETATM    4  N   UNL     1      26.669  40.793  51.740  1.00  0.00    -0.274 N 
HETATM    5  C   UNL     1      25.965  41.390  50.750  1.00  0.00     0.262 C 
HETATM    6  O   UNL     1      25.565  40.801  49.762  1.00  0.00    -0.267 OA
HETATM    7  C   UNL     1      25.678  42.813  50.921  1.00  0.00     0.101 C 
HETATM    8  C   UNL     1      26.336  43.470  51.886  1.00  0.00     0.132 C 
HETATM    9  N   UNL     1      26.048  44.803  52.099  1.00  0.00    -0.331 N 
HETATM   10  C   UNL     1      25.240  45.498  51.326  1.00  0.00     0.084 C 
HETATM   11  N   UNL     1      24.586  44.941  50.331  1.00  0.00    -0.351 N 
HETATM   12  H   UNL     1      23.993  45.526  49.735  1.00  0.00     0.162 HD
HETATM   13  C   UNL     1      24.627  43.433  50.028  1.00  0.00     0.264 C 
HETATM   14  H   UNL     1      26.888  39.808  51.626  1.00  0.00     0.173 HD
HETATM   15  H   UNL     1      26.498  45.291  52.870  1.00  0.00     0.168 HD
ENDROOT
BRANCH   1  16
HETATM   16  C   UNL     1      28.073  43.564  53.660  1.00  0.00     0.045 A 
HETATM   17  C   UNL     1      27.501  44.502  54.531  1.00  0.00     0.033 A 
HETATM   18  C   UNL     1      28.284  45.138  55.498  1.00  0.00     0.039 A 
HETATM   19  C   UNL     1      29.647  44.859  55.609  1.00  0.00     0.068 A 
HETATM   20  C   UNL     1      30.232  43.960  54.720  1.00  0.00     0.039 A 
HETATM   21  C   UNL     1      29.451  43.323  53.747  1.00  0.00     0.033 A 
BRANCH  19  22
HETATM   22  O   UNL     1      30.286  45.527  56.615  1.00  0.00    -0.356 OA
HETATM   23  C   UNL     1      29.489  45.959  57.713  1.00  0.00     0.210 C 
ENDBRANCH  19  22
ENDBRANCH   1  16
BRANCH  13  24
HETATM   24  C   UNL     1      23.226  42.882  50.312  1.00  0.00     0.426 C 
HETATM   25  F   UNL     1      23.197  42.399  51.584  1.00  0.00    -0.168 F 
HETATM   26  F   UNL     1      22.309  43.874  50.262  1.00  0.00    -0.168 F 
HETATM   27  F   UNL     1      22.828  41.891  49.506  1.00  0.00    -0.168 F 
ENDBRANCH  13  24
BRANCH  13  28
HETATM   28  C   UNL     1      24.845  43.284  48.517  1.00  0.00     0.426 C 
HETATM   29  F   UNL     1      26.170  43.241  48.241  1.00  0.00    -0.168 F 
HETATM   30  F   UNL     1      24.248  42.238  47.937  1.00  0.00    -0.168 F 
HETATM   31  F   UNL     1      24.371  44.405  47.902  1.00  0.00    -0.168 F 
ENDBRANCH  13  28
BRANCH  10  32
HETATM   32  C   UNL     1      25.084  46.961  51.581  1.00  0.00     0.114 C 
BRANCH  32  33
HETATM   33  C   UNL     1      25.553  47.787  50.410  1.00  0.00    -0.051 A 
HETATM   34  C   UNL     1      26.923  47.902  50.129  1.00  0.00     0.007 A 
HETATM   35  C   UNL     1      27.363  48.698  49.072  1.00  0.00     0.001 A 
HETATM   36  C   UNL     1      26.441  49.389  48.288  1.00  0.00     0.000 A 
HETATM   37  C   UNL     1      25.079  49.282  48.557  1.00  0.00     0.001 A 
HETATM   38  C   UNL     1      24.634  48.485  49.613  1.00  0.00     0.007 A 
ENDBRANCH  32  33
ENDBRANCH  10  32
TORSDOF 6
ENDMDL
MODEL 9
REMARK VINA RESULT:      -8.2     11.185     13.302
REMARK  6 active torsions:
REMARK  status: ('A' for Active; 'I' for Inactive)
REMARK    1  A    between atoms: O_2  and  C_3 
REMARK    2  A    between atoms: C_6  and  N_7 
REMARK    3  A    between atoms: C_16  and  C_17 
REMARK    4  A    between atoms: C_17  and  C_18 
REMARK    5  A    between atoms: C_26  and  C_27 
REMARK    6  A    between atoms: C_26  and  C_31 
ROOT
HETATM    1  N   UNL     1      21.700  49.697  49.226  1.00  0.00    -0.249 N 
HETATM    2  C   UNL     1      21.434  50.734  50.134  1.00  0.00     0.335 C 
HETATM    3  O   UNL     1      22.258  51.292  50.853  1.00  0.00    -0.246 OA
HETATM    4  N   UNL     1      20.120  51.101  50.245  1.00  0.00    -0.274 N 
HETATM    5  C   UNL     1      19.074  50.401  49.747  1.00  0.00     0.262 C 
HETATM    6  O   UNL     1      17.925  50.554  50.122  1.00  0.00    -0.267 OA
HETATM    7  C   UNL     1      19.378  49.432  48.695  1.00  0.00     0.101 C 
HETATM    8  C   UNL     1      20.665  49.123  48.487  1.00  0.00     0.132 C 
HETATM    9  N   UNL     1      20.982  48.248  47.468  1.00  0.00    -0.331 N 
HETATM   10  C   UNL     1      20.075  47.607  46.760  1.00  0.00     0.084 C 
HETATM   11  N   UNL     1      18.789  47.821  46.928  1.00  0.00    -0.351 N 
HETATM   12  H   UNL     1      18.118  47.277  46.378  1.00  0.00     0.162 HD
HETATM   13  C   UNL     1      18.224  48.883  47.888  1.00  0.00     0.264 C 
HETATM   14  H   UNL     1      19.924  51.766  50.986  1.00  0.00     0.173 HD
HETATM   15  H   UNL     1      21.960  48.056  47.264  1.00  0.00     0.168 HD
ENDROOT
BRANCH   1  16
HETATM   16  C   UNL     1      23.067  49.267  49.107  1.00  0.00     0.045 A 
HETATM   17  C   UNL     1      24.009  50.049  48.423  1.00  0.00     0.033 A 
HETATM   18  C   UNL     1      25.352  49.665  48.386  1.00  0.00     0.039 A 
HETATM   19  C   UNL     1      25.777  48.495  49.019  1.00  0.00     0.068 A 
HETATM   20  C   UNL     1      24.840  47.692  49.665  1.00  0.00     0.039 A 
HETATM   21  C   UNL     1      23.493  48.072  49.702  1.00  0.00     0.033 A 
BRANCH  19  22
HETATM   22  O   UNL     1      27.119  48.255  48.930  1.00  0.00    -0.356 OA
HETATM   23  C   UNL     1      27.991  49.358  49.158  1.00  0.00     0.210 C 
ENDBRANCH  19  22
ENDBRANCH   1  16
BRANCH  13  24
HETATM   24  C   UNL     1      17.558  49.956  47.022  1.00  0.00     0.426 C 
HETATM   25  F   UNL     1      18.529  50.697  46.421  1.00  0.00    -0.168 F 
HETATM   26  F   UNL     1      16.845  49.386  46.025  1.00  0.00    -0.168 F 
HETATM   27  F   UNL     1      16.764  50.809  47.680  1.00  0.00    -0.168 F 
ENDBRANCH  13  24
BRANCH  13  28
HETATM   28  C   UNL     1      17.095  48.215  48.682  1.00  0.00     0.426 C 
HETATM   29  F   UNL     1      17.560  47.789  49.881  1.00  0.00    -0.168 F 
HETATM   30  F   UNL     1      15.999  48.955  48.881  1.00  0.00    -0.168 F 
HETATM   31  F   UNL     1      16.703  47.094  48.012  1.00  0.00    -0.168 F 
ENDBRANCH  13  28
BRANCH  10  32
HETATM   32  C   UNL     1      20.528  46.599  45.755  1.00  0.00     0.114 C 
BRANCH  32  33
HETATM   33  C   UNL     1      21.373  45.520  46.385  1.00  0.00    -0.051 A 
HETATM   34  C   UNL     1      21.151  45.135  47.716  1.00  0.00     0.007 A 
HETATM   35  C   UNL     1      21.958  44.168  48.314  1.00  0.00     0.001 A 
HETATM   36  C   UNL     1      22.993  43.577  47.592  1.00  0.00     0.000 A 
HETATM   37  C   UNL     1      23.221  43.951  46.271  1.00  0.00     0.001 A 
HETATM   38  C   UNL     1      22.416  44.918  45.666  1.00  0.00     0.007 A 
ENDBRANCH  32  33
ENDBRANCH  10  32
TORSDOF 6
ENDMDL
MODEL 10
REMARK VINA RESULT:      -8.1      9.866     10.980
REMARK  6 active torsions:
REMARK  status: ('A' for Active; 'I' for Inactive)
REMARK    1  A    between atoms: O_2  and  C_3 
REMARK    2  A    between atoms: C_6  and  N_7 
REMARK    3  A    between atoms: C_16  and  C_17 
REMARK    4  A    between atoms: C_17  and  C_18 
REMARK    5  A    between atoms: C_26  and  C_27 
REMARK    6  A    between atoms: C_26  and  C_31 
ROOT
HETATM    1  N   UNL     1      20.565  46.339  46.559  1.00  0.00    -0.249 N 
HETATM    2  C   UNL     1      19.346  46.515  45.885  1.00  0.00     0.335 C 
HETATM    3  O   UNL     1      18.884  45.771  45.026  1.00  0.00    -0.246 OA
HETATM    4  N   UNL     1      18.658  47.657  46.196  1.00  0.00    -0.274 N 
HETATM    5  C   UNL     1      19.162  48.702  46.893  1.00  0.00     0.262 C 
HETATM    6  O   UNL     1      18.669  49.815  46.882  1.00  0.00    -0.267 OA
HETATM    7  C   UNL     1      20.352  48.435  47.701  1.00  0.00     0.101 C 
HETATM    8  C   UNL     1      20.996  47.279  47.496  1.00  0.00     0.132 C 
HETATM    9  N   UNL     1      22.094  46.982  48.279  1.00  0.00    -0.331 N 
HETATM   10  C   UNL     1      22.614  47.829  49.142  1.00  0.00     0.084 C 
HETATM   11  N   UNL     1      22.067  49.003  49.374  1.00  0.00    -0.351 N 
HETATM   12  H   UNL     1      22.524  49.643  50.031  1.00  0.00     0.162 HD
HETATM   13  C   UNL     1      20.743  49.461  48.740  1.00  0.00     0.264 C 
HETATM   14  H   UNL     1      17.841  47.833  45.620  1.00  0.00     0.173 HD
HETATM   15  H   UNL     1      22.550  46.079  48.172  1.00  0.00     0.168 HD
ENDROOT
BRANCH   1  16
HETATM   16  C   UNL     1      21.328  45.165  46.234  1.00  0.00     0.045 A 
HETATM   17  C   UNL     1      21.103  43.953  46.902  1.00  0.00     0.033 A 
HETATM   18  C   UNL     1      21.789  42.797  46.521  1.00  0.00     0.039 A 
HETATM   19  C   UNL     1      22.715  42.829  45.477  1.00  0.00     0.068 A 
HETATM   20  C   UNL     1      22.976  44.038  44.836  1.00  0.00     0.039 A 
HETATM   21  C   UNL     1      22.292  45.199  45.217  1.00  0.00     0.033 A 
BRANCH  19  22
HETATM   22  O   UNL     1      23.290  41.624  45.188  1.00  0.00    -0.356 OA
HETATM   23  C   UNL     1      23.140  41.137  43.859  1.00  0.00     0.210 C 
ENDBRANCH  19  22
ENDBRANCH   1  16
BRANCH  13  24
HETATM   24  C   UNL     1      19.717  49.562  49.872  1.00  0.00     0.426 C 
HETATM   25  F   UNL     1      19.480  48.312  50.358  1.00  0.00    -0.168 F 
HETATM   26  F   UNL     1      20.217  50.280  50.902  1.00  0.00    -0.168 F 
HETATM   27  F   UNL     1      18.533  50.080  49.526  1.00  0.00    -0.168 F 
ENDBRANCH  13  24
BRANCH  13  28
HETATM   28  C   UNL     1      20.960  50.893  48.234  1.00  0.00     0.426 C 
HETATM   29  F   UNL     1      21.335  50.874  46.932  1.00  0.00    -0.168 F 
HETATM   30  F   UNL     1      19.926  51.729  48.374  1.00  0.00    -0.168 F 
HETATM   31  F   UNL     1      22.007  51.436  48.917  1.00  0.00    -0.168 F 
ENDBRANCH  13  28
BRANCH  10  32
HETATM   32  C   UNL     1      23.868  47.447  49.859  1.00  0.00     0.114 C 
BRANCH  32  33
HETATM   33  C   UNL     1      25.050  48.258  49.389  1.00  0.00    -0.051 A 
HETATM   34  C   UNL     1      26.341  47.959  49.850  1.00  0.00     0.007 A 
HETATM   35  C   UNL     1      27.430  48.732  49.450  1.00  0.00     0.001 A 
HETATM   36  C   UNL     1      27.242  49.811  48.588  1.00  0.00     0.000 A 
HETATM   37  C   UNL     1      25.965  50.116  48.123  1.00  0.00     0.001 A 
HETATM   38  C   UNL     1      24.871  49.344  48.519  1.00  0.00     0.007 A 
ENDBRANCH  32  33
ENDBRANCH  10  32
TORSDOF 6
ENDMDL
