MODEL 1
REMARK VINA RESULT:      -9.5      0.000      0.000
REMARK  5 active torsions:
REMARK  status: ('A' for Active; 'I' for Inactive)
REMARK    1  A    between atoms: C_6  and  S_7 
REMARK    2  A    between atoms: S_7  and  C_8 
REMARK    3  A    between atoms: C_8  and  C_9 
REMARK       I    between atoms: C_9  and  N_10 
REMARK    4  A    between atoms: N_10  and  C_11 
REMARK    5  A    between atoms: N_22  and  C_23 
ROOT
HETATM    1  C   UNL     1      22.643  50.545  48.421  1.00  0.00     0.001 A 
HETATM    2  C   UNL     1      23.522  49.811  49.216  1.00  0.00     0.019 A 
HETATM    3  C   UNL     1      23.452  48.411  49.222  1.00  0.00     0.061 A 
HETATM    4  C   UNL     1      22.512  47.744  48.447  1.00  0.00     0.075 A 
HETATM    5  N   UNL     1      22.368  46.355  48.485  1.00  0.00    -0.223 NA
HETATM    6  C   UNL     1      23.222  45.658  49.167  1.00  0.00     0.177 A 
HETATM    7  N   UNL     1      24.287  46.208  49.887  1.00  0.00    -0.256 N 
HETATM    8  C   UNL     1      24.398  47.601  50.009  1.00  0.00     0.267 A 
HETATM    9  O   UNL     1      25.243  48.198  50.674  1.00  0.00    -0.267 OA
HETATM   10  C   UNL     1      21.645  48.488  47.641  1.00  0.00     0.032 A 
HETATM   11  C   UNL     1      21.709  49.883  47.627  1.00  0.00     0.002 A 
ENDROOT
BRANCH   6  12
HETATM   12  S   UNL     1      22.905  43.929  49.292  1.00  0.00    -0.082 SA
BRANCH  12  13
HETATM   13  C   UNL     1      23.684  43.271  47.792  1.00  0.00     0.185 C 
BRANCH  13  14
HETATM   14  C   UNL     1      24.315  41.903  48.029  1.00  0.00     0.231 C 
HETATM   15  N   UNL     1      25.696  41.915  47.973  1.00  0.00    -0.326 N 
HETATM   16  H   UNL     1      26.112  42.794  47.668  1.00  0.00     0.169 HD
HETATM   17  O   UNL     1      23.615  40.925  48.278  1.00  0.00    -0.272 OA
BRANCH  15  18
HETATM   18  C   UNL     1      26.589  40.858  48.237  1.00  0.00     0.037 A 
HETATM   19  C   UNL     1      27.205  40.657  49.479  1.00  0.00     0.061 A 
HETATM   20  C   UNL     1      28.088  39.604  49.576  1.00  0.00     0.065 A 
HETATM   21  C   UNL     1      28.366  38.758  48.505  1.00  0.00     0.063 A 
HETATM   22  N   UNL     1      28.850  39.181  50.660  1.00  0.00    -0.306 N 
HETATM   23  N   UNL     1      29.296  37.817  48.929  1.00  0.00    -0.307 N 
HETATM   24  C   UNL     1      27.773  38.917  47.278  1.00  0.00     0.034 A 
HETATM   25  C   UNL     1      29.610  38.070  50.272  1.00  0.00     0.325 A 
HETATM   26  H   UNL     1      29.702  37.070  48.391  1.00  0.00     0.170 HD
HETATM   27  O   UNL     1      30.395  37.445  50.963  1.00  0.00    -0.247 OA
HETATM   28  C   UNL     1      26.876  39.985  47.154  1.00  0.00     0.032 A 
HETATM   29  H   UNL     1      28.874  39.589  51.581  1.00  0.00     0.170 HD
ENDBRANCH  15  18
ENDBRANCH  13  14
ENDBRANCH  12  13
ENDBRANCH   6  12
BRANCH   7  30
HETATM   30  C   UNL     1      25.335  45.417  50.469  1.00  0.00     0.046 A 
HETATM   31  C   UNL     1      25.313  45.087  51.834  1.00  0.00     0.055 A 
HETATM   32  C   UNL     1      26.359  44.358  52.414  1.00  0.00     0.058 A 
HETATM   33 CL   UNL     1      26.239  43.981  54.096  1.00  0.00    -0.082 Cl
HETATM   34  C   UNL     1      27.449  43.960  51.636  1.00  0.00     0.055 A 
HETATM   35 CL   UNL     1      28.778  43.068  52.283  1.00  0.00    -0.083 Cl
HETATM   36  C   UNL     1      27.490  44.296  50.281  1.00  0.00     0.028 A 
HETATM   37  C   UNL     1      26.442  45.023  49.703  1.00  0.00     0.032 A 
ENDBRANCH   7  30
TORSDOF 5
ENDMDL
MODEL 2
REMARK VINA RESULT:      -9.4      4.514      6.388
REMARK  5 active torsions:
REMARK  status: ('A' for Active; 'I' for Inactive)
REMARK    1  A    between atoms: C_6  and  S_7 
REMARK    2  A    between atoms: S_7  and  C_8 
REMARK    3  A    between atoms: C_8  and  C_9 
REMARK       I    between atoms: C_9  and  N_10 
REMARK    4  A    between atoms: N_10  and  C_11 
REMARK    5  A    between atoms: N_22  and  C_23 
ROOT
HETATM    1  C   UNL     1      27.248  50.227  48.574  1.00  0.00     0.001 A 
HETATM    2  C   UNL     1      25.924  50.207  48.137  1.00  0.00     0.019 A 
HETATM    3  C   UNL     1      25.098  49.126  48.472  1.00  0.00     0.061 A 
HETATM    4  C   UNL     1      25.583  48.069  49.232  1.00  0.00     0.075 A 
HETATM    5  N   UNL     1      24.808  46.944  49.522  1.00  0.00    -0.223 NA
HETATM    6  C   UNL     1      23.557  46.944  49.180  1.00  0.00     0.177 A 
HETATM    7  N   UNL     1      22.923  48.002  48.523  1.00  0.00    -0.256 N 
HETATM    8  C   UNL     1      23.679  49.095  48.074  1.00  0.00     0.267 A 
HETATM    9  O   UNL     1      23.251  50.045  47.422  1.00  0.00    -0.267 OA
HETATM   10  C   UNL     1      26.908  48.105  49.678  1.00  0.00     0.032 A 
HETATM   11  C   UNL     1      27.738  49.180  49.351  1.00  0.00     0.002 A 
ENDROOT
BRANCH   6  12
HETATM   12  S   UNL     1      22.670  45.445  49.445  1.00  0.00    -0.082 SA
BRANCH  12  13
HETATM   13  C   UNL     1      23.964  44.182  49.293  1.00  0.00     0.185 C 
BRANCH  13  14
HETATM   14  C   UNL     1      24.660  43.914  50.623  1.00  0.00     0.231 C 
HETATM   15  N   UNL     1      25.894  44.529  50.733  1.00  0.00    -0.326 N 
HETATM   16  H   UNL     1      26.234  44.978  49.885  1.00  0.00     0.169 HD
HETATM   17  O   UNL     1      24.113  43.238  51.490  1.00  0.00    -0.272 OA
BRANCH  15  18
HETATM   18  C   UNL     1      26.751  44.568  51.851  1.00  0.00     0.037 A 
HETATM   19  C   UNL     1      27.815  43.678  52.042  1.00  0.00     0.061 A 
HETATM   20  C   UNL     1      28.541  43.811  53.204  1.00  0.00     0.065 A 
HETATM   21  C   UNL     1      28.255  44.783  54.160  1.00  0.00     0.063 A 
HETATM   22  N   UNL     1      29.623  43.069  53.665  1.00  0.00    -0.306 N 
HETATM   23  N   UNL     1      29.159  44.640  55.205  1.00  0.00    -0.307 N 
HETATM   24  C   UNL     1      27.228  45.679  54.002  1.00  0.00     0.034 A 
HETATM   25  C   UNL     1      30.018  43.571  54.912  1.00  0.00     0.325 A 
HETATM   26  H   UNL     1      29.215  45.187  56.047  1.00  0.00     0.170 HD
HETATM   27  O   UNL     1      30.928  43.161  55.610  1.00  0.00    -0.247 OA
HETATM   28  C   UNL     1      26.472  45.559  52.829  1.00  0.00     0.032 A 
HETATM   29  H   UNL     1      30.067  42.291  53.203  1.00  0.00     0.170 HD
ENDBRANCH  15  18
ENDBRANCH  13  14
ENDBRANCH  12  13
ENDBRANCH   6  12
BRANCH   7  30
HETATM   30  C   UNL     1      21.501  48.070  48.330  1.00  0.00     0.046 A 
HETATM   31  C   UNL     1      20.673  48.667  49.293  1.00  0.00     0.055 A 
HETATM   32  C   UNL     1      19.282  48.690  49.131  1.00  0.00     0.058 A 
HETATM   33 CL   UNL     1      18.343  49.463  50.358  1.00  0.00    -0.082 Cl
HETATM   34  C   UNL     1      18.700  48.101  48.005  1.00  0.00     0.055 A 
HETATM   35 CL   UNL     1      16.994  48.082  47.742  1.00  0.00    -0.083 Cl
HETATM   36  C   UNL     1      19.513  47.489  47.048  1.00  0.00     0.028 A 
HETATM   37  C   UNL     1      20.903  47.471  47.211  1.00  0.00     0.032 A 
ENDBRANCH   7  30
TORSDOF 5
ENDMDL
MODEL 3
REMARK VINA RESULT:      -9.1      4.385      6.495
REMARK  5 active torsions:
REMARK  status: ('A' for Active; 'I' for Inactive)
REMARK    1  A    between atoms: C_6  and  S_7 
REMARK    2  A    between atoms: S_7  and  C_8 
REMARK    3  A    between atoms: C_8  and  C_9 
REMARK       I    between atoms: C_9  and  N_10 
REMARK    4  A    between atoms: N_10  and  C_11 
REMARK    5  A    between atoms: N_22  and  C_23 
ROOT
HETATM    1  C   UNL     1      27.565  49.696  48.826  1.00  0.00     0.001 A 
HETATM    2  C   UNL     1      26.361  50.259  48.404  1.00  0.00     0.019 A 
HETATM    3  C   UNL     1      25.162  49.557  48.588  1.00  0.00     0.061 A 
HETATM    4  C   UNL     1      25.158  48.302  49.183  1.00  0.00     0.075 A 
HETATM    5  N   UNL     1      23.991  47.546  49.316  1.00  0.00    -0.223 NA
HETATM    6  C   UNL     1      22.858  48.086  48.990  1.00  0.00     0.177 A 
HETATM    7  N   UNL     1      22.722  49.387  48.497  1.00  0.00    -0.256 N 
HETATM    8  C   UNL     1      23.866  50.142  48.202  1.00  0.00     0.267 A 
HETATM    9  O   UNL     1      23.876  51.264  47.698  1.00  0.00    -0.267 OA
HETATM   10  C   UNL     1      26.368  47.752  49.617  1.00  0.00     0.032 A 
HETATM   11  C   UNL     1      27.567  48.445  49.439  1.00  0.00     0.002 A 
ENDROOT
BRANCH   6  12
HETATM   12  S   UNL     1      21.443  47.036  49.045  1.00  0.00    -0.082 SA
BRANCH  12  13
HETATM   13  C   UNL     1      22.017  45.546  48.184  1.00  0.00     0.185 C 
BRANCH  13  14
HETATM   14  C   UNL     1      22.626  44.530  49.144  1.00  0.00     0.231 C 
HETATM   15  N   UNL     1      24.003  44.611  49.231  1.00  0.00    -0.326 N 
HETATM   16  H   UNL     1      24.446  45.245  48.568  1.00  0.00     0.169 HD
HETATM   17  O   UNL     1      21.910  43.762  49.781  1.00  0.00    -0.272 OA
BRANCH  15  18
HETATM   18  C   UNL     1      24.866  43.895  50.084  1.00  0.00     0.037 A 
HETATM   19  C   UNL     1      25.402  44.424  51.265  1.00  0.00     0.061 A 
HETATM   20  C   UNL     1      26.265  43.620  51.975  1.00  0.00     0.065 A 
HETATM   21  C   UNL     1      26.600  42.332  51.564  1.00  0.00     0.063 A 
HETATM   22  N   UNL     1      26.953  43.880  53.156  1.00  0.00    -0.306 N 
HETATM   23  N   UNL     1      27.491  41.801  52.488  1.00  0.00    -0.307 N 
HETATM   24  C   UNL     1      26.087  41.776  50.420  1.00  0.00     0.034 A 
HETATM   25  C   UNL     1      27.724  42.758  53.487  1.00  0.00     0.325 A 
HETATM   26  H   UNL     1      27.922  40.892  52.474  1.00  0.00     0.170 HD
HETATM   27  O   UNL     1      28.457  42.634  54.452  1.00  0.00    -0.247 OA
HETATM   28  C   UNL     1      25.210  42.578  49.677  1.00  0.00     0.032 A 
HETATM   29  H   UNL     1      26.925  44.727  53.701  1.00  0.00     0.170 HD
ENDBRANCH  15  18
ENDBRANCH  13  14
ENDBRANCH  12  13
ENDBRANCH   6  12
BRANCH   7  30
HETATM   30  C   UNL     1      21.451  50.035  48.330  1.00  0.00     0.046 A 
HETATM   31  C   UNL     1      20.708  49.870  47.151  1.00  0.00     0.055 A 
HETATM   32  C   UNL     1      19.493  50.540  46.966  1.00  0.00     0.058 A 
HETATM   33 CL   UNL     1      18.637  50.261  45.490  1.00  0.00    -0.082 Cl
HETATM   34  C   UNL     1      19.011  51.399  47.957  1.00  0.00     0.055 A 
HETATM   35 CL   UNL     1      17.527  52.267  47.796  1.00  0.00    -0.083 Cl
HETATM   36  C   UNL     1      19.749  51.585  49.128  1.00  0.00     0.028 A 
HETATM   37  C   UNL     1      20.962  50.911  49.312  1.00  0.00     0.032 A 
ENDBRANCH   7  30
TORSDOF 5
ENDMDL
MODEL 4
REMARK VINA RESULT:      -9.0      3.293      9.632
REMARK  5 active torsions:
REMARK  status: ('A' for Active; 'I' for Inactive)
REMARK    1  A    between atoms: C_6  and  S_7 
REMARK    2  A    between atoms: S_7  and  C_8 
REMARK    3  A    between atoms: C_8  and  C_9 
REMARK       I    between atoms: C_9  and  N_10 
REMARK    4  A    between atoms: N_10  and  C_11 
REMARK    5  A    between atoms: N_22  and  C_23 
ROOT
HETATM    1  C   UNL     1      30.013  43.158  55.052  1.00  0.00     0.001 A 
HETATM    2  C   UNL     1      29.471  42.339  54.062  1.00  0.00     0.019 A 
HETATM    3  C   UNL     1      28.461  42.834  53.226  1.00  0.00     0.061 A 
HETATM    4  C   UNL     1      27.989  44.132  53.373  1.00  0.00     0.075 A 
HETATM    5  N   UNL     1      26.936  44.632  52.604  1.00  0.00    -0.223 NA
HETATM    6  C   UNL     1      26.470  43.905  51.637  1.00  0.00     0.177 A 
HETATM    7  N   UNL     1      26.948  42.632  51.312  1.00  0.00    -0.256 N 
HETATM    8  C   UNL     1      27.901  42.016  52.135  1.00  0.00     0.267 A 
HETATM    9  O   UNL     1      28.341  40.876  51.996  1.00  0.00    -0.267 OA
HETATM   10  C   UNL     1      28.550  44.951  54.358  1.00  0.00     0.032 A 
HETATM   11  C   UNL     1      29.557  44.467  55.195  1.00  0.00     0.002 A 
ENDROOT
BRANCH   6  12
HETATM   12  S   UNL     1      25.052  44.529  50.797  1.00  0.00    -0.082 SA
BRANCH  12  13
HETATM   13  C   UNL     1      25.716  45.958  49.899  1.00  0.00     0.185 C 
BRANCH  13  14
HETATM   14  C   UNL     1      24.888  47.217  50.137  1.00  0.00     0.231 C 
HETATM   15  N   UNL     1      24.126  47.591  49.046  1.00  0.00    -0.326 N 
HETATM   16  H   UNL     1      24.297  47.061  48.193  1.00  0.00     0.169 HD
HETATM   17  O   UNL     1      24.909  47.783  51.227  1.00  0.00    -0.272 OA
BRANCH  15  18
HETATM   18  C   UNL     1      23.186  48.636  48.956  1.00  0.00     0.037 A 
HETATM   19  C   UNL     1      21.801  48.440  49.030  1.00  0.00     0.061 A 
HETATM   20  C   UNL     1      21.004  49.553  48.884  1.00  0.00     0.065 A 
HETATM   21  C   UNL     1      21.526  50.828  48.679  1.00  0.00     0.063 A 
HETATM   22  N   UNL     1      19.617  49.659  48.893  1.00  0.00    -0.306 N 
HETATM   23  N   UNL     1      20.464  51.716  48.563  1.00  0.00    -0.307 N 
HETATM   24  C   UNL     1      22.876  51.060  48.612  1.00  0.00     0.034 A 
HETATM   25  C   UNL     1      19.265  51.001  48.692  1.00  0.00     0.325 A 
HETATM   26  H   UNL     1      20.508  52.709  48.406  1.00  0.00     0.170 HD
HETATM   27  O   UNL     1      18.137  51.459  48.635  1.00  0.00    -0.247 OA
HETATM   28  C   UNL     1      23.708  49.942  48.753  1.00  0.00     0.032 A 
HETATM   29  H   UNL     1      18.952  48.913  49.018  1.00  0.00     0.170 HD
ENDBRANCH  15  18
ENDBRANCH  13  14
ENDBRANCH  12  13
ENDBRANCH   6  12
BRANCH   7  30
HETATM   30  C   UNL     1      26.561  41.927  50.122  1.00  0.00     0.046 A 
HETATM   31  C   UNL     1      27.418  41.864  49.012  1.00  0.00     0.055 A 
HETATM   32  C   UNL     1      27.022  41.219  47.834  1.00  0.00     0.058 A 
HETATM   33 CL   UNL     1      28.149  41.174  46.525  1.00  0.00    -0.082 Cl
HETATM   34  C   UNL     1      25.753  40.639  47.746  1.00  0.00     0.055 A 
HETATM   35 CL   UNL     1      25.192  39.837  46.324  1.00  0.00    -0.083 Cl
HETATM   36  C   UNL     1      24.885  40.710  48.838  1.00  0.00     0.028 A 
HETATM   37  C   UNL     1      25.285  41.352  50.016  1.00  0.00     0.032 A 
ENDBRANCH   7  30
TORSDOF 5
ENDMDL
MODEL 5
REMARK VINA RESULT:      -9.0      3.549      8.248
REMARK  5 active torsions:
REMARK  status: ('A' for Active; 'I' for Inactive)
REMARK    1  A    between atoms: C_6  and  S_7 
REMARK    2  A    between atoms: S_7  and  C_8 
REMARK    3  A    between atoms: C_8  and  C_9 
REMARK       I    between atoms: C_9  and  N_10 
REMARK    4  A    between atoms: N_10  and  C_11 
REMARK    5  A    between atoms: N_22  and  C_23 
ROOT
HETATM    1  C   UNL     1      31.105  44.247  56.340  1.00  0.00     0.001 A 
HETATM    2  C   UNL     1      30.611  43.495  55.275  1.00  0.00     0.019 A 
HETATM    3  C   UNL     1      29.394  43.851  54.678  1.00  0.00     0.061 A 
HETATM    4  C   UNL     1      28.670  44.944  55.136  1.00  0.00     0.075 A 
HETATM    5  N   UNL     1      27.421  45.282  54.610  1.00  0.00    -0.223 NA
HETATM    6  C   UNL     1      26.984  44.633  53.577  1.00  0.00     0.177 A 
HETATM    7  N   UNL     1      27.680  43.595  52.949  1.00  0.00    -0.256 N 
HETATM    8  C   UNL     1      28.867  43.112  53.516  1.00  0.00     0.267 A 
HETATM    9  O   UNL     1      29.526  42.160  53.101  1.00  0.00    -0.267 OA
HETATM   10  C   UNL     1      29.181  45.701  56.194  1.00  0.00     0.032 A 
HETATM   11  C   UNL     1      30.393  45.355  56.795  1.00  0.00     0.002 A 
ENDROOT
BRANCH   6  12
HETATM   12  S   UNL     1      25.345  45.009  53.048  1.00  0.00    -0.082 SA
BRANCH  12  13
HETATM   13  C   UNL     1      25.500  46.714  52.448  1.00  0.00     0.185 C 
BRANCH  13  14
HETATM   14  C   UNL     1      24.953  46.873  51.033  1.00  0.00     0.231 C 
HETATM   15  N   UNL     1      24.283  45.756  50.572  1.00  0.00    -0.326 N 
HETATM   16  H   UNL     1      24.338  44.935  51.172  1.00  0.00     0.169 HD
HETATM   17  O   UNL     1      25.092  47.931  50.424  1.00  0.00    -0.272 OA
BRANCH  15  18
HETATM   18  C   UNL     1      23.581  45.599  49.360  1.00  0.00     0.037 A 
HETATM   19  C   UNL     1      22.765  46.593  48.805  1.00  0.00     0.061 A 
HETATM   20  C   UNL     1      22.107  46.281  47.636  1.00  0.00     0.065 A 
HETATM   21  C   UNL     1      22.236  45.043  47.011  1.00  0.00     0.063 A 
HETATM   22  N   UNL     1      21.230  47.049  46.878  1.00  0.00    -0.306 N 
HETATM   23  N   UNL     1      21.441  45.050  45.871  1.00  0.00    -0.307 N 
HETATM   24  C   UNL     1      23.034  44.050  47.519  1.00  0.00     0.034 A 
HETATM   25  C   UNL     1      20.804  46.295  45.776  1.00  0.00     0.325 A 
HETATM   26  H   UNL     1      21.314  44.305  45.207  1.00  0.00     0.170 HD
HETATM   27  O   UNL     1      20.028  46.648  44.905  1.00  0.00    -0.247 OA
HETATM   28  C   UNL     1      23.709  44.342  48.711  1.00  0.00     0.032 A 
HETATM   29  H   UNL     1      20.929  47.992  47.068  1.00  0.00     0.170 HD
ENDBRANCH  15  18
ENDBRANCH  13  14
ENDBRANCH  12  13
ENDBRANCH   6  12
BRANCH   7  30
HETATM   30  C   UNL     1      27.276  43.024  51.694  1.00  0.00     0.046 A 
HETATM   31  C   UNL     1      26.938  41.665  51.598  1.00  0.00     0.055 A 
HETATM   32  C   UNL     1      26.593  41.096  50.366  1.00  0.00     0.058 A 
HETATM   33 CL   UNL     1      26.173  39.419  50.346  1.00  0.00    -0.082 Cl
HETATM   34  C   UNL     1      26.596  41.879  49.209  1.00  0.00     0.055 A 
HETATM   35 CL   UNL     1      26.191  41.244  47.655  1.00  0.00    -0.083 Cl
HETATM   36  C   UNL     1      26.946  43.228  49.289  1.00  0.00     0.028 A 
HETATM   37  C   UNL     1      27.288  43.796  50.522  1.00  0.00     0.032 A 
ENDBRANCH   7  30
TORSDOF 5
ENDMDL
MODEL 6
REMARK VINA RESULT:      -8.8     12.039     13.476
REMARK  5 active torsions:
REMARK  status: ('A' for Active; 'I' for Inactive)
REMARK    1  A    between atoms: C_6  and  S_7 
REMARK    2  A    between atoms: S_7  and  C_8 
REMARK    3  A    between atoms: C_8  and  C_9 
REMARK       I    between atoms: C_9  and  N_10 
REMARK    4  A    between atoms: N_10  and  C_11 
REMARK    5  A    between atoms: N_22  and  C_23 
ROOT
HETATM    1  C   UNL     1      29.837  54.426  39.865  1.00  0.00     0.001 A 
HETATM    2  C   UNL     1      29.049  53.447  39.261  1.00  0.00     0.019 A 
HETATM    3  C   UNL     1      29.132  52.119  39.702  1.00  0.00     0.061 A 
HETATM    4  C   UNL     1      29.993  51.764  40.733  1.00  0.00     0.075 A 
HETATM    5  N   UNL     1      30.151  50.440  41.147  1.00  0.00    -0.223 NA
HETATM    6  C   UNL     1      29.376  49.532  40.641  1.00  0.00     0.177 A 
HETATM    7  N   UNL     1      28.386  49.787  39.688  1.00  0.00    -0.256 N 
HETATM    8  C   UNL     1      28.276  51.067  39.125  1.00  0.00     0.267 A 
HETATM    9  O   UNL     1      27.499  51.393  38.230  1.00  0.00    -0.267 OA
HETATM   10  C   UNL     1      30.768  52.756  41.342  1.00  0.00     0.032 A 
HETATM   11  C   UNL     1      30.691  54.082  40.910  1.00  0.00     0.002 A 
ENDROOT
BRANCH   6  12
HETATM   12  S   UNL     1      29.719  47.864  41.096  1.00  0.00    -0.082 SA
BRANCH  12  13
HETATM   13  C   UNL     1      31.196  47.478  40.117  1.00  0.00     0.185 C 
BRANCH  13  14
HETATM   14  C   UNL     1      32.479  47.886  40.833  1.00  0.00     0.231 C 
HETATM   15  N   UNL     1      32.796  49.223  40.678  1.00  0.00    -0.326 N 
HETATM   16  H   UNL     1      32.213  49.735  40.019  1.00  0.00     0.169 HD
HETATM   17  O   UNL     1      33.110  47.070  41.501  1.00  0.00    -0.272 OA
BRANCH  15  18
HETATM   18  C   UNL     1      33.848  49.944  41.277  1.00  0.00     0.037 A 
HETATM   19  C   UNL     1      33.697  50.714  42.437  1.00  0.00     0.061 A 
HETATM   20  C   UNL     1      34.805  51.398  42.882  1.00  0.00     0.065 A 
HETATM   21  C   UNL     1      36.035  51.338  42.231  1.00  0.00     0.063 A 
HETATM   22  N   UNL     1      34.946  52.243  43.978  1.00  0.00    -0.306 N 
HETATM   23  N   UNL     1      36.930  52.143  42.925  1.00  0.00    -0.307 N 
HETATM   24  C   UNL     1      36.224  50.587  41.100  1.00  0.00     0.034 A 
HETATM   25  C   UNL     1      36.264  52.718  44.017  1.00  0.00     0.325 A 
HETATM   26  H   UNL     1      37.897  52.315  42.707  1.00  0.00     0.170 HD
HETATM   27  O   UNL     1      36.742  53.483  44.836  1.00  0.00    -0.247 OA
HETATM   28  C   UNL     1      35.109  49.886  40.624  1.00  0.00     0.032 A 
HETATM   29  H   UNL     1      34.236  52.494  44.647  1.00  0.00     0.170 HD
ENDBRANCH  15  18
ENDBRANCH  13  14
ENDBRANCH  12  13
ENDBRANCH   6  12
BRANCH   7  30
HETATM   30  C   UNL     1      27.409  48.813  39.288  1.00  0.00     0.046 A 
HETATM   31  C   UNL     1      26.213  48.657  40.006  1.00  0.00     0.055 A 
HETATM   32  C   UNL     1      25.282  47.674  39.647  1.00  0.00     0.058 A 
HETATM   33 CL   UNL     1      23.829  47.567  40.575  1.00  0.00    -0.082 Cl
HETATM   34  C   UNL     1      25.545  46.822  38.570  1.00  0.00     0.055 A 
HETATM   35 CL   UNL     1      24.450  45.582  38.076  1.00  0.00    -0.083 Cl
HETATM   36  C   UNL     1      26.739  46.957  37.859  1.00  0.00     0.028 A 
HETATM   37  C   UNL     1      27.666  47.942  38.218  1.00  0.00     0.032 A 
ENDBRANCH   7  30
TORSDOF 5
ENDMDL
MODEL 7
REMARK VINA RESULT:      -8.6      3.114      9.165
REMARK  5 active torsions:
REMARK  status: ('A' for Active; 'I' for Inactive)
REMARK    1  A    between atoms: C_6  and  S_7 
REMARK    2  A    between atoms: S_7  and  C_8 
REMARK    3  A    between atoms: C_8  and  C_9 
REMARK       I    between atoms: C_9  and  N_10 
REMARK    4  A    between atoms: N_10  and  C_11 
REMARK    5  A    between atoms: N_22  and  C_23 
ROOT
HETATM    1  C   UNL     1      29.717  43.818  55.002  1.00  0.00     0.001 A 
HETATM    2  C   UNL     1      29.550  42.775  54.091  1.00  0.00     0.019 A 
HETATM    3  C   UNL     1      28.471  42.800  53.198  1.00  0.00     0.061 A 
HETATM    4  C   UNL     1      27.560  43.849  53.211  1.00  0.00     0.075 A 
HETATM    5  N   UNL     1      26.436  43.868  52.383  1.00  0.00    -0.223 NA
HETATM    6  C   UNL     1      26.306  42.941  51.486  1.00  0.00     0.177 A 
HETATM    7  N   UNL     1      27.221  41.902  51.293  1.00  0.00    -0.256 N 
HETATM    8  C   UNL     1      28.291  41.744  52.185  1.00  0.00     0.267 A 
HETATM    9  O   UNL     1      29.115  40.831  52.164  1.00  0.00    -0.267 OA
HETATM   10  C   UNL     1      27.745  44.897  54.117  1.00  0.00     0.032 A 
HETATM   11  C   UNL     1      28.819  44.882  55.011  1.00  0.00     0.002 A 
ENDROOT
BRANCH   6  12
HETATM   12  S   UNL     1      24.800  42.938  50.571  1.00  0.00    -0.082 SA
BRANCH  12  13
HETATM   13  C   UNL     1      25.085  44.226  49.326  1.00  0.00     0.185 C 
BRANCH  13  14
HETATM   14  C   UNL     1      24.259  45.478  49.600  1.00  0.00     0.231 C 
HETATM   15  N   UNL     1      23.415  45.820  48.560  1.00  0.00    -0.326 N 
HETATM   16  H   UNL     1      23.531  45.276  47.707  1.00  0.00     0.169 HD
HETATM   17  O   UNL     1      24.350  46.066  50.675  1.00  0.00    -0.272 OA
BRANCH  15  18
HETATM   18  C   UNL     1      22.455  46.851  48.519  1.00  0.00     0.037 A 
HETATM   19  C   UNL     1      22.783  48.213  48.497  1.00  0.00     0.061 A 
HETATM   20  C   UNL     1      21.737  49.108  48.500  1.00  0.00     0.065 A 
HETATM   21  C   UNL     1      20.404  48.703  48.518  1.00  0.00     0.063 A 
HETATM   22  N   UNL     1      21.757  50.499  48.500  1.00  0.00    -0.306 N 
HETATM   23  N   UNL     1      19.607  49.841  48.527  1.00  0.00    -0.307 N 
HETATM   24  C   UNL     1      20.045  47.379  48.529  1.00  0.00     0.034 A 
HETATM   25  C   UNL     1      20.438  50.971  48.520  1.00  0.00     0.325 A 
HETATM   26  H   UNL     1      18.602  49.887  48.544  1.00  0.00     0.170 HD
HETATM   27  O   UNL     1      20.079  52.135  48.531  1.00  0.00    -0.247 OA
HETATM   28  C   UNL     1      21.092  46.450  48.531  1.00  0.00     0.032 A 
HETATM   29  H   UNL     1      22.571  51.094  48.492  1.00  0.00     0.170 HD
ENDBRANCH  15  18
ENDBRANCH  13  14
ENDBRANCH  12  13
ENDBRANCH   6  12
BRANCH   7  30
HETATM   30  C   UNL     1      27.167  41.004  50.174  1.00  0.00     0.046 A 
HETATM   31  C   UNL     1      27.681  41.382  48.923  1.00  0.00     0.055 A 
HETATM   32  C   UNL     1      27.584  40.527  47.818  1.00  0.00     0.058 A 
HETATM   33 CL   UNL     1      28.262  41.067  46.323  1.00  0.00    -0.082 Cl
HETATM   34  C   UNL     1      26.958  39.284  47.948  1.00  0.00     0.055 A 
HETATM   35 CL   UNL     1      26.793  38.183  46.629  1.00  0.00    -0.083 Cl
HETATM   36  C   UNL     1      26.428  38.905  49.183  1.00  0.00     0.028 A 
HETATM   37  C   UNL     1      26.528  39.759  50.286  1.00  0.00     0.032 A 
ENDBRANCH   7  30
TORSDOF 5
ENDMDL
MODEL 8
REMARK VINA RESULT:      -8.4      3.426      8.962
REMARK  5 active torsions:
REMARK  status: ('A' for Active; 'I' for Inactive)
REMARK    1  A    between atoms: C_6  and  S_7 
REMARK    2  A    between atoms: S_7  and  C_8 
REMARK    3  A    between atoms: C_8  and  C_9 
REMARK       I    between atoms: C_9  and  N_10 
REMARK    4  A    between atoms: N_10  and  C_11 
REMARK    5  A    between atoms: N_22  and  C_23 
ROOT
HETATM    1  C   UNL     1      29.530  44.168  55.149  1.00  0.00     0.001 A 
HETATM    2  C   UNL     1      29.403  43.080  54.286  1.00  0.00     0.019 A 
HETATM    3  C   UNL     1      28.368  43.059  53.342  1.00  0.00     0.061 A 
HETATM    4  C   UNL     1      27.461  44.108  53.258  1.00  0.00     0.075 A 
HETATM    5  N   UNL     1      26.377  44.084  52.378  1.00  0.00    -0.223 NA
HETATM    6  C   UNL     1      26.287  43.112  51.525  1.00  0.00     0.177 A 
HETATM    7  N   UNL     1      27.207  42.064  51.429  1.00  0.00    -0.256 N 
HETATM    8  C   UNL     1      28.234  41.952  52.378  1.00  0.00     0.267 A 
HETATM    9  O   UNL     1      29.055  41.039  52.443  1.00  0.00    -0.267 OA
HETATM   10  C   UNL     1      27.605  45.201  54.117  1.00  0.00     0.032 A 
HETATM   11  C   UNL     1      28.635  45.232  55.060  1.00  0.00     0.002 A 
ENDROOT
BRANCH   6  12
HETATM   12  S   UNL     1      24.826  43.062  50.540  1.00  0.00    -0.082 SA
BRANCH  12  13
HETATM   13  C   UNL     1      25.108  44.391  49.338  1.00  0.00     0.185 C 
BRANCH  13  14
HETATM   14  C   UNL     1      24.048  45.484  49.434  1.00  0.00     0.231 C 
HETATM   15  N   UNL     1      22.949  45.259  48.627  1.00  0.00    -0.326 N 
HETATM   16  H   UNL     1      23.032  44.469  47.989  1.00  0.00     0.169 HD
HETATM   17  O   UNL     1      24.195  46.432  50.201  1.00  0.00    -0.272 OA
BRANCH  15  18
HETATM   18  C   UNL     1      21.760  46.009  48.545  1.00  0.00     0.037 A 
HETATM   19  C   UNL     1      20.483  45.454  48.691  1.00  0.00     0.061 A 
HETATM   20  C   UNL     1      19.410  46.305  48.543  1.00  0.00     0.065 A 
HETATM   21  C   UNL     1      19.563  47.663  48.268  1.00  0.00     0.063 A 
HETATM   22  N   UNL     1      18.047  46.037  48.613  1.00  0.00    -0.306 N 
HETATM   23  N   UNL     1      18.297  48.228  48.171  1.00  0.00    -0.307 N 
HETATM   24  C   UNL     1      20.797  48.243  48.130  1.00  0.00     0.034 A 
HETATM   25  C   UNL     1      17.340  47.225  48.381  1.00  0.00     0.325 A 
HETATM   26  H   UNL     1      18.067  49.188  47.977  1.00  0.00     0.170 HD
HETATM   27  O   UNL     1      16.130  47.362  48.361  1.00  0.00    -0.247 OA
HETATM   28  C   UNL     1      21.904  47.396  48.271  1.00  0.00     0.032 A 
HETATM   29  H   UNL     1      17.612  45.147  48.795  1.00  0.00     0.170 HD
ENDBRANCH  15  18
ENDBRANCH  13  14
ENDBRANCH  12  13
ENDBRANCH   6  12
BRANCH   7  30
HETATM   30  C   UNL     1      27.204  41.110  50.356  1.00  0.00     0.046 A 
HETATM   31  C   UNL     1      27.715  41.446  49.093  1.00  0.00     0.055 A 
HETATM   32  C   UNL     1      27.667  40.533  48.032  1.00  0.00     0.058 A 
HETATM   33 CL   UNL     1      28.338  41.027  46.517  1.00  0.00    -0.082 Cl
HETATM   34  C   UNL     1      27.093  39.273  48.219  1.00  0.00     0.055 A 
HETATM   35 CL   UNL     1      26.990  38.100  46.956  1.00  0.00    -0.083 Cl
HETATM   36  C   UNL     1      26.566  38.933  49.466  1.00  0.00     0.028 A 
HETATM   37  C   UNL     1      26.618  39.846  50.526  1.00  0.00     0.032 A 
ENDBRANCH   7  30
TORSDOF 5
ENDMDL
MODEL 9
REMARK VINA RESULT:      -8.4      3.885      9.857
REMARK  5 active torsions:
REMARK  status: ('A' for Active; 'I' for Inactive)
REMARK    1  A    between atoms: C_6  and  S_7 
REMARK    2  A    between atoms: S_7  and  C_8 
REMARK    3  A    between atoms: C_8  and  C_9 
REMARK       I    between atoms: C_9  and  N_10 
REMARK    4  A    between atoms: N_10  and  C_11 
REMARK    5  A    between atoms: N_22  and  C_23 
ROOT
HETATM    1  C   UNL     1      27.866  46.112  55.226  1.00  0.00     0.001 A 
HETATM    2  C   UNL     1      27.527  44.993  54.466  1.00  0.00     0.019 A 
HETATM    3  C   UNL     1      26.777  45.150  53.293  1.00  0.00     0.061 A 
HETATM    4  C   UNL     1      26.361  46.409  52.878  1.00  0.00     0.075 A 
HETATM    5  N   UNL     1      25.552  46.591  51.754  1.00  0.00    -0.223 NA
HETATM    6  C   UNL     1      25.289  45.568  51.003  1.00  0.00     0.177 A 
HETATM    7  N   UNL     1      25.755  44.273  51.248  1.00  0.00    -0.256 N 
HETATM    8  C   UNL     1      26.446  43.997  52.436  1.00  0.00     0.267 A 
HETATM    9  O   UNL     1      26.839  42.889  52.798  1.00  0.00    -0.267 OA
HETATM   10  C   UNL     1      26.718  47.527  53.638  1.00  0.00     0.032 A 
HETATM   11  C   UNL     1      27.467  47.380  54.808  1.00  0.00     0.002 A 
ENDROOT
BRANCH   6  12
HETATM   12  S   UNL     1      24.150  45.834  49.683  1.00  0.00    -0.082 SA
BRANCH  12  13
HETATM   13  C   UNL     1      24.068  47.644  49.585  1.00  0.00     0.185 C 
BRANCH  13  14
HETATM   14  C   UNL     1      22.790  48.122  48.904  1.00  0.00     0.231 C 
HETATM   15  N   UNL     1      21.909  48.751  49.763  1.00  0.00    -0.326 N 
HETATM   16  H   UNL     1      22.160  48.714  50.749  1.00  0.00     0.169 HD
HETATM   17  O   UNL     1      22.630  47.967  47.696  1.00  0.00    -0.272 OA
BRANCH  15  18
HETATM   18  C   UNL     1      20.693  49.389  49.449  1.00  0.00     0.037 A 
HETATM   19  C   UNL     1      20.305  50.623  49.987  1.00  0.00     0.061 A 
HETATM   20  C   UNL     1      19.068  51.104  49.620  1.00  0.00     0.065 A 
HETATM   21  C   UNL     1      18.224  50.417  48.750  1.00  0.00     0.063 A 
HETATM   22  N   UNL     1      18.420  52.273  50.004  1.00  0.00    -0.306 N 
HETATM   23  N   UNL     1      17.061  51.162  48.599  1.00  0.00    -0.307 N 
HETATM   24  C   UNL     1      18.574  49.213  48.196  1.00  0.00     0.034 A 
HETATM   25  C   UNL     1      17.167  52.323  49.378  1.00  0.00     0.325 A 
HETATM   26  H   UNL     1      16.256  50.937  48.039  1.00  0.00     0.170 HD
HETATM   27  O   UNL     1      16.329  53.200  49.490  1.00  0.00    -0.247 OA
HETATM   28  C   UNL     1      19.827  48.701  48.558  1.00  0.00     0.032 A 
HETATM   29  H   UNL     1      18.767  52.982  50.630  1.00  0.00     0.170 HD
ENDBRANCH  15  18
ENDBRANCH  13  14
ENDBRANCH  12  13
ENDBRANCH   6  12
BRANCH   7  30
HETATM   30  C   UNL     1      25.621  43.198  50.306  1.00  0.00     0.046 A 
HETATM   31  C   UNL     1      26.715  42.780  49.532  1.00  0.00     0.055 A 
HETATM   32  C   UNL     1      26.574  41.765  48.577  1.00  0.00     0.058 A 
HETATM   33 CL   UNL     1      27.979  41.302  47.684  1.00  0.00    -0.082 Cl
HETATM   34  C   UNL     1      25.329  41.162  48.375  1.00  0.00     0.055 A 
HETATM   35 CL   UNL     1      25.077  39.913  47.211  1.00  0.00    -0.083 Cl
HETATM   36  C   UNL     1      24.230  41.581  49.127  1.00  0.00     0.028 A 
HETATM   37  C   UNL     1      24.374  42.594  50.083  1.00  0.00     0.032 A 
ENDBRANCH   7  30
TORSDOF 5
ENDMDL
MODEL 10
REMARK VINA RESULT:      -8.3     12.985     14.656
REMARK  5 active torsions:
REMARK  status: ('A' for Active; 'I' for Inactive)
REMARK    1  A    between atoms: C_6  and  S_7 
REMARK    2  A    between atoms: S_7  and  C_8 
REMARK    3  A    between atoms: C_8  and  C_9 
REMARK       I    between atoms: C_9  and  N_10 
REMARK    4  A    between atoms: N_10  and  C_11 
REMARK    5  A    between atoms: N_22  and  C_23 
ROOT
HETATM    1  C   UNL     1      28.842  53.855  38.599  1.00  0.00     0.001 A 
HETATM    2  C   UNL     1      28.687  52.491  38.349  1.00  0.00     0.019 A 
HETATM    3  C   UNL     1      29.174  51.556  39.271  1.00  0.00     0.061 A 
HETATM    4  C   UNL     1      29.814  51.969  40.433  1.00  0.00     0.075 A 
HETATM    5  N   UNL     1      30.374  51.063  41.336  1.00  0.00    -0.223 NA
HETATM    6  C   UNL     1      30.177  49.795  41.150  1.00  0.00     0.177 A 
HETATM    7  N   UNL     1      29.443  49.262  40.086  1.00  0.00    -0.256 N 
HETATM    8  C   UNL     1      28.982  50.109  39.067  1.00  0.00     0.267 A 
HETATM    9  O   UNL     1      28.394  49.752  38.048  1.00  0.00    -0.267 OA
HETATM   10  C   UNL     1      29.951  53.338  40.683  1.00  0.00     0.032 A 
HETATM   11  C   UNL     1      29.467  54.278  39.770  1.00  0.00     0.002 A 
ENDROOT
BRANCH   6  12
HETATM   12  S   UNL     1      31.025  48.699  42.240  1.00  0.00    -0.082 SA
BRANCH  12  13
HETATM   13  C   UNL     1      32.626  48.477  41.417  1.00  0.00     0.185 C 
BRANCH  13  14
HETATM   14  C   UNL     1      33.465  49.750  41.445  1.00  0.00     0.231 C 
HETATM   15  N   UNL     1      33.882  50.164  40.194  1.00  0.00    -0.326 N 
HETATM   16  H   UNL     1      33.684  49.517  39.432  1.00  0.00     0.169 HD
HETATM   17  O   UNL     1      33.688  50.329  42.505  1.00  0.00    -0.272 OA
BRANCH  15  18
HETATM   18  C   UNL     1      34.583  51.338  39.853  1.00  0.00     0.037 A 
HETATM   19  C   UNL     1      33.995  52.608  39.818  1.00  0.00     0.061 A 
HETATM   20  C   UNL     1      34.796  53.657  39.426  1.00  0.00     0.065 A 
HETATM   21  C   UNL     1      36.136  53.490  39.082  1.00  0.00     0.063 A 
HETATM   22  N   UNL     1      34.486  55.005  39.281  1.00  0.00    -0.306 N 
HETATM   23  N   UNL     1      36.648  54.732  38.727  1.00  0.00    -0.307 N 
HETATM   24  C   UNL     1      36.748  52.264  39.115  1.00  0.00     0.034 A 
HETATM   25  C   UNL     1      35.629  55.688  38.843  1.00  0.00     0.325 A 
HETATM   26  H   UNL     1      37.584  54.946  38.426  1.00  0.00     0.170 HD
HETATM   27  O   UNL     1      35.722  56.879  38.606  1.00  0.00    -0.247 OA
HETATM   28  C   UNL     1      35.952  51.180  39.506  1.00  0.00     0.032 A 
HETATM   29  H   UNL     1      33.595  55.445  39.450  1.00  0.00     0.170 HD
ENDBRANCH  15  18
ENDBRANCH  13  14
ENDBRANCH  12  13
ENDBRANCH   6  12
BRANCH   7  30
HETATM   30  C   UNL     1      29.069  47.878  40.003  1.00  0.00     0.046 A 
HETATM   31  C   UNL     1      27.974  47.385  40.730  1.00  0.00     0.055 A 
HETATM   32  C   UNL     1      27.637  46.026  40.689  1.00  0.00     0.058 A 
HETATM   33 CL   UNL     1      26.262  45.512  41.600  1.00  0.00    -0.082 Cl
HETATM   34  C   UNL     1      28.404  45.139  39.930  1.00  0.00     0.055 A 
HETATM   35 CL   UNL     1      28.056  43.450  39.839  1.00  0.00    -0.083 Cl
HETATM   36  C   UNL     1      29.506  45.614  39.216  1.00  0.00     0.028 A 
HETATM   37  C   UNL     1      29.838  46.973  39.255  1.00  0.00     0.032 A 
ENDBRANCH   7  30
TORSDOF 5
ENDMDL
