MODEL 1
REMARK VINA RESULT:      -9.9      0.000      0.000
REMARK  6 active torsions:
REMARK  status: ('A' for Active; 'I' for Inactive)
REMARK       I    between atoms: N_2  and  C_3 
REMARK    1  A    between atoms: C_3  and  C_4 
REMARK    2  A    between atoms: C_6  and  C_7 
REMARK    3  A    between atoms: C_7  and  C_8 
REMARK    4  A    between atoms: C_8  and  C_9 
REMARK       I    between atoms: C_9  and  N_10 
REMARK    5  A    between atoms: N_10  and  C_11 
REMARK    6  A    between atoms: C_13  and  C_14 
ROOT
HETATM    1  C   UNL     1      25.607  44.718  52.616  1.00  0.00     0.222 C 
HETATM    2  N   UNL     1      26.340  43.718  53.171  1.00  0.00    -0.327 N 
HETATM    3  O   UNL     1      24.384  44.531  52.555  1.00  0.00    -0.273 OA
HETATM    4  H   UNL     1      25.722  42.946  53.399  1.00  0.00     0.169 HD
ENDROOT
BRANCH   1   5
HETATM    5  C   UNL     1      26.190  45.997  52.062  1.00  0.00     0.108 C 
BRANCH   5   6
HETATM    6  C   UNL     1      26.224  46.064  50.535  1.00  0.00     0.048 C 
BRANCH   6   7
HETATM    7  C   UNL     1      26.218  47.424  49.865  1.00  0.00    -0.057 A 
HETATM    8  C   UNL     1      25.053  48.104  49.488  1.00  0.00     0.024 A 
HETATM    9  C   UNL     1      25.120  49.318  48.785  1.00  0.00     0.032 A 
HETATM   10  C   UNL     1      26.367  49.884  48.499  1.00  0.00     0.017 A 
HETATM   11  C   UNL     1      27.535  49.226  48.878  1.00  0.00     0.002 A 
HETATM   12  C   UNL     1      27.459  48.002  49.542  1.00  0.00     0.007 A 
BRANCH   9  13
HETATM   13  C   UNL     1      23.897  50.031  48.319  1.00  0.00     0.251 C 
HETATM   14  N   UNL     1      22.936  50.296  49.273  1.00  0.00    -0.361 N 
HETATM   15  C   UNL     1      21.667  50.868  48.899  1.00  0.00     0.149 C 
HETATM   16  H   UNL     1      23.016  49.890  50.196  1.00  0.00     0.162 HD
HETATM   17  O   UNL     1      23.762  50.313  47.133  1.00  0.00    -0.268 OA
ENDBRANCH   9  13
ENDBRANCH   6   7
ENDBRANCH   5   6
ENDBRANCH   1   5
BRANCH   2  18
HETATM   18  C   UNL     1      27.694  43.506  53.482  1.00  0.00     0.035 A 
HETATM   19  C   UNL     1      28.327  43.848  54.677  1.00  0.00     0.042 A 
HETATM   20  C   UNL     1      29.706  43.631  54.858  1.00  0.00    -0.021 A 
HETATM   21  C   UNL     1      30.446  43.034  53.832  1.00  0.00     0.012 A 
HETATM   22  C   UNL     1      29.821  42.655  52.648  1.00  0.00     0.003 A 
HETATM   23  C   UNL     1      28.457  42.890  52.478  1.00  0.00     0.029 A 
BRANCH  20  24
HETATM   24  C   UNL     1      30.374  44.044  56.082  1.00  0.00     0.010 A 
HETATM   25  C   UNL     1      31.340  43.379  56.873  1.00  0.00     0.152 A 
HETATM   26  N   UNL     1      31.716  44.090  57.938  1.00  0.00    -0.187 NA
HETATM   27  N   UNL     1      30.987  45.213  57.839  1.00  0.00    -0.289 N 
HETATM   28  H   UNL     1      31.098  45.922  58.557  1.00  0.00     0.188 HD
HETATM   29  C   UNL     1      30.170  45.237  56.745  1.00  0.00     0.123 A 
ENDBRANCH  20  24
ENDBRANCH   2  18
TORSDOF 6
ENDMDL
MODEL 2
REMARK VINA RESULT:      -9.5      3.638      5.377
REMARK  6 active torsions:
REMARK  status: ('A' for Active; 'I' for Inactive)
REMARK       I    between atoms: N_2  and  C_3 
REMARK    1  A    between atoms: C_3  and  C_4 
REMARK    2  A    between atoms: C_6  and  C_7 
REMARK    3  A    between atoms: C_7  and  C_8 
REMARK    4  A    between atoms: C_8  and  C_9 
REMARK       I    between atoms: C_9  and  N_10 
REMARK    5  A    between atoms: N_10  and  C_11 
REMARK    6  A    between atoms: C_13  and  C_14 
ROOT
HETATM    1  C   UNL     1      26.818  47.809  55.626  1.00  0.00     0.222 C 
HETATM    2  N   UNL     1      27.639  47.013  56.357  1.00  0.00    -0.327 N 
HETATM    3  O   UNL     1      26.163  48.650  56.259  1.00  0.00    -0.273 OA
HETATM    4  H   UNL     1      27.520  47.235  57.341  1.00  0.00     0.169 HD
ENDROOT
BRANCH   1   5
HETATM    5  C   UNL     1      26.647  47.712  54.128  1.00  0.00     0.108 C 
BRANCH   5   6
HETATM    6  C   UNL     1      25.781  46.538  53.668  1.00  0.00     0.048 C 
BRANCH   6   7
HETATM    7  C   UNL     1      25.926  46.039  52.244  1.00  0.00    -0.057 A 
HETATM    8  C   UNL     1      26.072  44.689  51.901  1.00  0.00     0.024 A 
HETATM    9  C   UNL     1      26.297  44.302  50.570  1.00  0.00     0.032 A 
HETATM   10  C   UNL     1      26.326  45.273  49.562  1.00  0.00     0.017 A 
HETATM   11  C   UNL     1      26.168  46.618  49.886  1.00  0.00     0.002 A 
HETATM   12  C   UNL     1      25.984  46.996  51.216  1.00  0.00     0.007 A 
BRANCH   9  13
HETATM   13  C   UNL     1      26.518  42.879  50.185  1.00  0.00     0.251 C 
HETATM   14  N   UNL     1      25.806  41.931  50.892  1.00  0.00    -0.361 N 
HETATM   15  C   UNL     1      26.043  40.526  50.681  1.00  0.00     0.149 C 
HETATM   16  H   UNL     1      25.283  42.203  51.715  1.00  0.00     0.162 HD
HETATM   17  O   UNL     1      27.332  42.595  49.314  1.00  0.00    -0.268 OA
ENDBRANCH   9  13
ENDBRANCH   6   7
ENDBRANCH   5   6
ENDBRANCH   1   5
BRANCH   2  18
HETATM   18  C   UNL     1      28.568  45.993  56.087  1.00  0.00     0.035 A 
HETATM   19  C   UNL     1      28.445  45.008  55.107  1.00  0.00     0.042 A 
HETATM   20  C   UNL     1      29.421  44.003  54.960  1.00  0.00    -0.021 A 
HETATM   21  C   UNL     1      30.545  44.014  55.792  1.00  0.00     0.012 A 
HETATM   22  C   UNL     1      30.698  45.012  56.750  1.00  0.00     0.003 A 
HETATM   23  C   UNL     1      29.717  45.992  56.893  1.00  0.00     0.029 A 
BRANCH  20  24
HETATM   24  C   UNL     1      29.260  42.943  53.979  1.00  0.00     0.010 A 
HETATM   25  C   UNL     1      28.221  41.998  53.805  1.00  0.00     0.152 A 
HETATM   26  N   UNL     1      28.437  41.172  52.780  1.00  0.00    -0.187 NA
HETATM   27  N   UNL     1      29.621  41.578  52.294  1.00  0.00    -0.289 N 
HETATM   28  H   UNL     1      30.007  41.085  51.496  1.00  0.00     0.188 HD
HETATM   29  C   UNL     1      30.155  42.636  52.975  1.00  0.00     0.123 A 
ENDBRANCH  20  24
ENDBRANCH   2  18
TORSDOF 6
ENDMDL
MODEL 3
REMARK VINA RESULT:      -9.4     11.912     13.520
REMARK  6 active torsions:
REMARK  status: ('A' for Active; 'I' for Inactive)
REMARK       I    between atoms: N_2  and  C_3 
REMARK    1  A    between atoms: C_3  and  C_4 
REMARK    2  A    between atoms: C_6  and  C_7 
REMARK    3  A    between atoms: C_7  and  C_8 
REMARK    4  A    between atoms: C_8  and  C_9 
REMARK       I    between atoms: C_9  and  N_10 
REMARK    5  A    between atoms: N_10  and  C_11 
REMARK    6  A    between atoms: C_13  and  C_14 
ROOT
HETATM    1  C   UNL     1      27.598  48.985  40.228  1.00  0.00     0.222 C 
HETATM    2  N   UNL     1      28.508  48.683  41.189  1.00  0.00    -0.327 N 
HETATM    3  O   UNL     1      26.406  48.852  40.541  1.00  0.00    -0.273 OA
HETATM    4  H   UNL     1      28.018  48.342  42.010  1.00  0.00     0.169 HD
ENDROOT
BRANCH   1   5
HETATM    5  C   UNL     1      27.950  49.438  38.831  1.00  0.00     0.108 C 
BRANCH   5   6
HETATM    6  C   UNL     1      28.001  50.957  38.655  1.00  0.00     0.048 C 
BRANCH   6   7
HETATM    7  C   UNL     1      29.134  51.728  39.303  1.00  0.00    -0.057 A 
HETATM    8  C   UNL     1      30.468  51.662  38.878  1.00  0.00     0.024 A 
HETATM    9  C   UNL     1      31.484  52.327  39.581  1.00  0.00     0.032 A 
HETATM   10  C   UNL     1      31.158  53.110  40.694  1.00  0.00     0.017 A 
HETATM   11  C   UNL     1      29.835  53.196  41.122  1.00  0.00     0.002 A 
HETATM   12  C   UNL     1      28.837  52.500  40.440  1.00  0.00     0.007 A 
BRANCH   9  13
HETATM   13  C   UNL     1      32.918  52.224  39.187  1.00  0.00     0.251 C 
HETATM   14  N   UNL     1      33.797  53.072  39.828  1.00  0.00    -0.361 N 
HETATM   15  C   UNL     1      35.180  53.137  39.429  1.00  0.00     0.149 C 
HETATM   16  H   UNL     1      33.442  53.812  40.421  1.00  0.00     0.162 HD
HETATM   17  O   UNL     1      33.260  51.448  38.300  1.00  0.00    -0.268 OA
ENDBRANCH   9  13
ENDBRANCH   6   7
ENDBRANCH   5   6
ENDBRANCH   1   5
BRANCH   2  18
HETATM   18  C   UNL     1      29.908  48.722  41.308  1.00  0.00     0.035 A 
HETATM   19  C   UNL     1      30.644  49.639  42.060  1.00  0.00     0.042 A 
HETATM   20  C   UNL     1      32.052  49.611  42.065  1.00  0.00    -0.021 A 
HETATM   21  C   UNL     1      32.720  48.629  41.326  1.00  0.00     0.012 A 
HETATM   22  C   UNL     1      31.998  47.687  40.600  1.00  0.00     0.003 A 
HETATM   23  C   UNL     1      30.604  47.735  40.594  1.00  0.00     0.029 A 
BRANCH  20  24
HETATM   24  C   UNL     1      32.817  50.604  42.800  1.00  0.00     0.010 A 
HETATM   25  C   UNL     1      34.143  51.065  42.620  1.00  0.00     0.152 A 
HETATM   26  N   UNL     1      34.494  51.995  43.510  1.00  0.00    -0.187 NA
HETATM   27  N   UNL     1      33.397  52.131  44.272  1.00  0.00    -0.289 N 
HETATM   28  H   UNL     1      33.425  52.794  45.040  1.00  0.00     0.188 HD
HETATM   29  C   UNL     1      32.365  51.323  43.888  1.00  0.00     0.123 A 
ENDBRANCH  20  24
ENDBRANCH   2  18
TORSDOF 6
ENDMDL
MODEL 4
REMARK VINA RESULT:      -9.1      2.327      3.493
REMARK  6 active torsions:
REMARK  status: ('A' for Active; 'I' for Inactive)
REMARK       I    between atoms: N_2  and  C_3 
REMARK    1  A    between atoms: C_3  and  C_4 
REMARK    2  A    between atoms: C_6  and  C_7 
REMARK    3  A    between atoms: C_7  and  C_8 
REMARK    4  A    between atoms: C_8  and  C_9 
REMARK       I    between atoms: C_9  and  N_10 
REMARK    5  A    between atoms: N_10  and  C_11 
REMARK    6  A    between atoms: C_13  and  C_14 
ROOT
HETATM    1  C   UNL     1      28.282  41.212  51.473  1.00  0.00     0.222 C 
HETATM    2  N   UNL     1      29.157  41.832  52.307  1.00  0.00    -0.327 N 
HETATM    3  O   UNL     1      28.717  40.230  50.855  1.00  0.00    -0.273 OA
HETATM    4  H   UNL     1      30.062  41.380  52.226  1.00  0.00     0.169 HD
ENDROOT
BRANCH   1   5
HETATM    5  C   UNL     1      26.856  41.657  51.247  1.00  0.00     0.108 C 
BRANCH   5   6
HETATM    6  C   UNL     1      26.666  42.567  50.033  1.00  0.00     0.048 C 
BRANCH   6   7
HETATM    7  C   UNL     1      26.177  43.985  50.254  1.00  0.00    -0.057 A 
HETATM    8  C   UNL     1      26.704  45.104  49.596  1.00  0.00     0.024 A 
HETATM    9  C   UNL     1      26.270  46.401  49.917  1.00  0.00     0.032 A 
HETATM   10  C   UNL     1      25.262  46.578  50.871  1.00  0.00     0.017 A 
HETATM   11  C   UNL     1      24.720  45.474  51.524  1.00  0.00     0.002 A 
HETATM   12  C   UNL     1      25.183  44.193  51.227  1.00  0.00     0.007 A 
BRANCH   9  13
HETATM   13  C   UNL     1      26.857  47.612  49.276  1.00  0.00     0.251 C 
HETATM   14  N   UNL     1      26.017  48.696  49.119  1.00  0.00    -0.361 N 
HETATM   15  C   UNL     1      26.452  49.866  48.401  1.00  0.00     0.149 C 
HETATM   16  H   UNL     1      25.027  48.596  49.303  1.00  0.00     0.162 HD
HETATM   17  O   UNL     1      28.017  47.599  48.878  1.00  0.00    -0.268 OA
ENDBRANCH   9  13
ENDBRANCH   6   7
ENDBRANCH   5   6
ENDBRANCH   1   5
BRANCH   2  18
HETATM   18  C   UNL     1      29.108  42.909  53.208  1.00  0.00     0.035 A 
HETATM   19  C   UNL     1      29.915  43.076  54.334  1.00  0.00     0.042 A 
HETATM   20  C   UNL     1      29.743  44.176  55.196  1.00  0.00    -0.021 A 
HETATM   21  C   UNL     1      28.765  45.131  54.899  1.00  0.00     0.012 A 
HETATM   22  C   UNL     1      27.977  44.996  53.760  1.00  0.00     0.003 A 
HETATM   23  C   UNL     1      28.150  43.894  52.924  1.00  0.00     0.029 A 
BRANCH  20  24
HETATM   24  C   UNL     1      30.544  44.315  56.401  1.00  0.00     0.010 A 
HETATM   25  C   UNL     1      31.604  43.520  56.899  1.00  0.00     0.152 A 
HETATM   26  N   UNL     1      32.094  43.974  58.054  1.00  0.00    -0.187 NA
HETATM   27  N   UNL     1      31.345  45.060  58.307  1.00  0.00    -0.289 N 
HETATM   28  H   UNL     1      31.530  45.583  59.157  1.00  0.00     0.188 HD
HETATM   29  C   UNL     1      30.405  45.308  57.348  1.00  0.00     0.123 A 
ENDBRANCH  20  24
ENDBRANCH   2  18
TORSDOF 6
ENDMDL
MODEL 5
REMARK VINA RESULT:      -9.1     12.191     14.896
REMARK  6 active torsions:
REMARK  status: ('A' for Active; 'I' for Inactive)
REMARK       I    between atoms: N_2  and  C_3 
REMARK    1  A    between atoms: C_3  and  C_4 
REMARK    2  A    between atoms: C_6  and  C_7 
REMARK    3  A    between atoms: C_7  and  C_8 
REMARK    4  A    between atoms: C_8  and  C_9 
REMARK       I    between atoms: C_9  and  N_10 
REMARK    5  A    between atoms: N_10  and  C_11 
REMARK    6  A    between atoms: C_13  and  C_14 
ROOT
HETATM    1  C   UNL     1      34.694  51.756  41.604  1.00  0.00     0.222 C 
HETATM    2  N   UNL     1      34.003  52.268  40.553  1.00  0.00    -0.327 N 
HETATM    3  O   UNL     1      35.731  52.355  41.922  1.00  0.00    -0.273 OA
HETATM    4  H   UNL     1      34.518  53.058  40.176  1.00  0.00     0.169 HD
ENDROOT
BRANCH   1   5
HETATM    5  C   UNL     1      34.290  50.517  42.368  1.00  0.00     0.108 C 
BRANCH   5   6
HETATM    6  C   UNL     1      33.923  49.324  41.484  1.00  0.00     0.048 C 
BRANCH   6   7
HETATM    7  C   UNL     1      32.478  48.870  41.436  1.00  0.00    -0.057 A 
HETATM    8  C   UNL     1      31.900  48.215  40.340  1.00  0.00     0.024 A 
HETATM    9  C   UNL     1      30.531  47.906  40.323  1.00  0.00     0.032 A 
HETATM   10  C   UNL     1      29.738  48.210  41.435  1.00  0.00     0.017 A 
HETATM   11  C   UNL     1      30.300  48.849  42.537  1.00  0.00     0.002 A 
HETATM   12  C   UNL     1      31.654  49.187  42.530  1.00  0.00     0.007 A 
BRANCH   9  13
HETATM   13  C   UNL     1      29.879  47.265  39.145  1.00  0.00     0.251 C 
HETATM   14  N   UNL     1      29.829  45.886  39.141  1.00  0.00    -0.361 N 
HETATM   15  C   UNL     1      29.334  45.172  37.993  1.00  0.00     0.149 C 
HETATM   16  H   UNL     1      30.342  45.362  39.838  1.00  0.00     0.162 HD
HETATM   17  O   UNL     1      29.460  47.955  38.221  1.00  0.00    -0.268 OA
ENDBRANCH   9  13
ENDBRANCH   6   7
ENDBRANCH   5   6
ENDBRANCH   1   5
BRANCH   2  18
HETATM   18  C   UNL     1      32.801  51.971  39.888  1.00  0.00     0.035 A 
HETATM   19  C   UNL     1      31.515  52.122  40.408  1.00  0.00     0.042 A 
HETATM   20  C   UNL     1      30.381  51.744  39.664  1.00  0.00    -0.021 A 
HETATM   21  C   UNL     1      30.548  51.237  38.371  1.00  0.00     0.012 A 
HETATM   22  C   UNL     1      31.823  51.115  37.826  1.00  0.00     0.003 A 
HETATM   23  C   UNL     1      32.937  51.481  38.581  1.00  0.00     0.029 A 
BRANCH  20  24
HETATM   24  C   UNL     1      29.046  51.845  40.232  1.00  0.00     0.010 A 
HETATM   25  C   UNL     1      28.533  52.708  41.229  1.00  0.00     0.152 A 
HETATM   26  N   UNL     1      27.241  52.492  41.486  1.00  0.00    -0.187 NA
HETATM   27  N   UNL     1      26.921  51.484  40.659  1.00  0.00    -0.289 N 
HETATM   28  H   UNL     1      25.969  51.131  40.678  1.00  0.00     0.188 HD
HETATM   29  C   UNL     1      27.965  51.061  39.886  1.00  0.00     0.123 A 
ENDBRANCH  20  24
ENDBRANCH   2  18
TORSDOF 6
ENDMDL
MODEL 6
REMARK VINA RESULT:      -9.1      2.912      4.390
REMARK  6 active torsions:
REMARK  status: ('A' for Active; 'I' for Inactive)
REMARK       I    between atoms: N_2  and  C_3 
REMARK    1  A    between atoms: C_3  and  C_4 
REMARK    2  A    between atoms: C_6  and  C_7 
REMARK    3  A    between atoms: C_7  and  C_8 
REMARK    4  A    between atoms: C_8  and  C_9 
REMARK       I    between atoms: C_9  and  N_10 
REMARK    5  A    between atoms: N_10  and  C_11 
REMARK    6  A    between atoms: C_13  and  C_14 
ROOT
HETATM    1  C   UNL     1      28.427  41.059  51.684  1.00  0.00     0.222 C 
HETATM    2  N   UNL     1      29.273  41.542  52.629  1.00  0.00    -0.327 N 
HETATM    3  O   UNL     1      28.759  39.994  51.144  1.00  0.00    -0.273 OA
HETATM    4  H   UNL     1      30.085  40.934  52.684  1.00  0.00     0.169 HD
ENDROOT
BRANCH   1   5
HETATM    5  C   UNL     1      27.151  41.743  51.252  1.00  0.00     0.108 C 
BRANCH   5   6
HETATM    6  C   UNL     1      27.360  42.922  50.300  1.00  0.00     0.048 C 
BRANCH   6   7
HETATM    7  C   UNL     1      26.373  44.072  50.336  1.00  0.00    -0.057 A 
HETATM    8  C   UNL     1      26.673  45.372  49.907  1.00  0.00     0.024 A 
HETATM    9  C   UNL     1      25.744  46.414  50.056  1.00  0.00     0.032 A 
HETATM   10  C   UNL     1      24.480  46.143  50.593  1.00  0.00     0.017 A 
HETATM   11  C   UNL     1      24.163  44.853  51.011  1.00  0.00     0.002 A 
HETATM   12  C   UNL     1      25.106  43.832  50.895  1.00  0.00     0.007 A 
BRANCH   9  13
HETATM   13  C   UNL     1      26.059  47.817  49.666  1.00  0.00     0.251 C 
HETATM   14  N   UNL     1      27.355  48.070  49.264  1.00  0.00    -0.361 N 
HETATM   15  C   UNL     1      27.789  49.416  48.988  1.00  0.00     0.149 C 
HETATM   16  H   UNL     1      28.065  47.359  49.377  1.00  0.00     0.162 HD
HETATM   17  O   UNL     1      25.201  48.689  49.753  1.00  0.00    -0.268 OA
ENDBRANCH   9  13
ENDBRANCH   6   7
ENDBRANCH   5   6
ENDBRANCH   1   5
BRANCH   2  18
HETATM   18  C   UNL     1      29.295  42.641  53.505  1.00  0.00     0.035 A 
HETATM   19  C   UNL     1      28.349  43.664  53.564  1.00  0.00     0.042 A 
HETATM   20  C   UNL     1      28.501  44.746  54.453  1.00  0.00    -0.021 A 
HETATM   21  C   UNL     1      29.605  44.775  55.312  1.00  0.00     0.012 A 
HETATM   22  C   UNL     1      30.538  43.743  55.289  1.00  0.00     0.003 A 
HETATM   23  C   UNL     1      30.381  42.687  54.393  1.00  0.00     0.029 A 
BRANCH  20  24
HETATM   24  C   UNL     1      27.546  45.841  54.470  1.00  0.00     0.010 A 
HETATM   25  C   UNL     1      26.252  45.943  53.904  1.00  0.00     0.152 A 
HETATM   26  N   UNL     1      25.678  47.126  54.134  1.00  0.00    -0.187 NA
HETATM   27  N   UNL     1      26.604  47.791  54.843  1.00  0.00    -0.289 N 
HETATM   28  H   UNL     1      26.394  48.740  55.136  1.00  0.00     0.188 HD
HETATM   29  C   UNL     1      27.738  47.066  55.073  1.00  0.00     0.123 A 
ENDBRANCH  20  24
ENDBRANCH   2  18
TORSDOF 6
ENDMDL
MODEL 7
REMARK VINA RESULT:      -9.1     12.086     14.923
REMARK  6 active torsions:
REMARK  status: ('A' for Active; 'I' for Inactive)
REMARK       I    between atoms: N_2  and  C_3 
REMARK    1  A    between atoms: C_3  and  C_4 
REMARK    2  A    between atoms: C_6  and  C_7 
REMARK    3  A    between atoms: C_7  and  C_8 
REMARK    4  A    between atoms: C_8  and  C_9 
REMARK       I    between atoms: C_9  and  N_10 
REMARK    5  A    between atoms: N_10  and  C_11 
REMARK    6  A    between atoms: C_13  and  C_14 
ROOT
HETATM    1  C   UNL     1      26.599  48.922  37.622  1.00  0.00     0.222 C 
HETATM    2  N   UNL     1      26.994  50.202  37.844  1.00  0.00    -0.327 N 
HETATM    3  O   UNL     1      25.877  48.735  36.632  1.00  0.00    -0.273 OA
HETATM    4  H   UNL     1      26.562  50.803  37.149  1.00  0.00     0.169 HD
ENDROOT
BRANCH   1   5
HETATM    5  C   UNL     1      26.962  47.751  38.505  1.00  0.00     0.108 C 
BRANCH   5   6
HETATM    6  C   UNL     1      28.464  47.477  38.601  1.00  0.00     0.048 C 
BRANCH   6   7
HETATM    7  C   UNL     1      29.208  47.920  39.845  1.00  0.00    -0.057 A 
HETATM    8  C   UNL     1      30.604  48.005  39.931  1.00  0.00     0.024 A 
HETATM    9  C   UNL     1      31.234  48.331  41.143  1.00  0.00     0.032 A 
HETATM   10  C   UNL     1      30.458  48.626  42.269  1.00  0.00     0.017 A 
HETATM   11  C   UNL     1      29.069  48.559  42.196  1.00  0.00     0.002 A 
HETATM   12  C   UNL     1      28.453  48.196  40.998  1.00  0.00     0.007 A 
BRANCH   9  13
HETATM   13  C   UNL     1      32.718  48.368  41.279  1.00  0.00     0.251 C 
HETATM   14  N   UNL     1      33.301  49.618  41.340  1.00  0.00    -0.361 N 
HETATM   15  C   UNL     1      34.734  49.760  41.345  1.00  0.00     0.149 C 
HETATM   16  H   UNL     1      32.746  50.443  41.155  1.00  0.00     0.162 HD
HETATM   17  O   UNL     1      33.363  47.325  41.285  1.00  0.00    -0.268 OA
ENDBRANCH   9  13
ENDBRANCH   6   7
ENDBRANCH   5   6
ENDBRANCH   1   5
BRANCH   2  18
HETATM   18  C   UNL     1      27.817  50.863  38.773  1.00  0.00     0.035 A 
HETATM   19  C   UNL     1      29.171  51.156  38.609  1.00  0.00     0.042 A 
HETATM   20  C   UNL     1      29.908  51.781  39.633  1.00  0.00    -0.021 A 
HETATM   21  C   UNL     1      29.262  52.140  40.821  1.00  0.00     0.012 A 
HETATM   22  C   UNL     1      27.904  51.886  40.983  1.00  0.00     0.003 A 
HETATM   23  C   UNL     1      27.190  51.253  39.966  1.00  0.00     0.029 A 
BRANCH  20  24
HETATM   24  C   UNL     1      31.332  52.031  39.483  1.00  0.00     0.010 A 
HETATM   25  C   UNL     1      32.277  51.471  38.590  1.00  0.00     0.152 A 
HETATM   26  N   UNL     1      33.507  51.959  38.764  1.00  0.00    -0.187 NA
HETATM   27  N   UNL     1      33.359  52.830  39.774  1.00  0.00    -0.289 N 
HETATM   28  H   UNL     1      34.179  53.334  40.098  1.00  0.00     0.188 HD
HETATM   29  C   UNL     1      32.077  52.913  40.239  1.00  0.00     0.123 A 
ENDBRANCH  20  24
ENDBRANCH   2  18
TORSDOF 6
ENDMDL
MODEL 8
REMARK VINA RESULT:      -8.9     11.588     14.431
REMARK  6 active torsions:
REMARK  status: ('A' for Active; 'I' for Inactive)
REMARK       I    between atoms: N_2  and  C_3 
REMARK    1  A    between atoms: C_3  and  C_4 
REMARK    2  A    between atoms: C_6  and  C_7 
REMARK    3  A    between atoms: C_7  and  C_8 
REMARK    4  A    between atoms: C_8  and  C_9 
REMARK       I    between atoms: C_9  and  N_10 
REMARK    5  A    between atoms: N_10  and  C_11 
REMARK    6  A    between atoms: C_13  and  C_14 
ROOT
HETATM    1  C   UNL     1      32.494  51.511  42.632  1.00  0.00     0.222 C 
HETATM    2  N   UNL     1      31.829  52.206  41.674  1.00  0.00    -0.327 N 
HETATM    3  O   UNL     1      32.951  52.175  43.574  1.00  0.00    -0.273 OA
HETATM    4  H   UNL     1      31.875  53.196  41.896  1.00  0.00     0.169 HD
ENDROOT
BRANCH   1   5
HETATM    5  C   UNL     1      32.722  50.018  42.600  1.00  0.00     0.108 C 
BRANCH   5   6
HETATM    6  C   UNL     1      31.460  49.184  42.827  1.00  0.00     0.048 C 
BRANCH   6   7
HETATM    7  C   UNL     1      30.761  48.579  41.626  1.00  0.00    -0.057 A 
HETATM    8  C   UNL     1      29.413  48.194  41.619  1.00  0.00     0.024 A 
HETATM    9  C   UNL     1      28.852  47.552  40.503  1.00  0.00     0.032 A 
HETATM   10  C   UNL     1      29.633  47.336  39.363  1.00  0.00     0.017 A 
HETATM   11  C   UNL     1      30.970  47.725  39.350  1.00  0.00     0.002 A 
HETATM   12  C   UNL     1      31.530  48.327  40.476  1.00  0.00     0.007 A 
BRANCH   9  13
HETATM   13  C   UNL     1      27.439  47.077  40.492  1.00  0.00     0.251 C 
HETATM   14  N   UNL     1      26.992  46.441  41.632  1.00  0.00    -0.361 N 
HETATM   15  C   UNL     1      25.685  45.837  41.671  1.00  0.00     0.149 C 
HETATM   16  H   UNL     1      27.648  46.194  42.361  1.00  0.00     0.162 HD
HETATM   17  O   UNL     1      26.749  47.218  39.487  1.00  0.00    -0.268 OA
ENDBRANCH   9  13
ENDBRANCH   6   7
ENDBRANCH   5   6
ENDBRANCH   1   5
BRANCH   2  18
HETATM   18  C   UNL     1      31.131  51.894  40.495  1.00  0.00     0.035 A 
HETATM   19  C   UNL     1      29.778  51.565  40.404  1.00  0.00     0.042 A 
HETATM   20  C   UNL     1      29.195  51.220  39.169  1.00  0.00    -0.021 A 
HETATM   21  C   UNL     1      29.981  51.239  38.012  1.00  0.00     0.012 A 
HETATM   22  C   UNL     1      31.323  51.600  38.083  1.00  0.00     0.003 A 
HETATM   23  C   UNL     1      31.889  51.925  39.315  1.00  0.00     0.029 A 
BRANCH  20  24
HETATM   24  C   UNL     1      27.800  50.819  39.087  1.00  0.00     0.010 A 
HETATM   25  C   UNL     1      26.999  50.497  37.965  1.00  0.00     0.152 A 
HETATM   26  N   UNL     1      25.747  50.175  38.298  1.00  0.00    -0.187 NA
HETATM   27  N   UNL     1      25.737  50.295  39.635  1.00  0.00    -0.289 N 
HETATM   28  H   UNL     1      24.871  50.103  40.127  1.00  0.00     0.188 HD
HETATM   29  C   UNL     1      26.941  50.675  40.156  1.00  0.00     0.123 A 
ENDBRANCH  20  24
ENDBRANCH   2  18
TORSDOF 6
ENDMDL
MODEL 9
REMARK VINA RESULT:      -8.9      2.679      3.493
REMARK  6 active torsions:
REMARK  status: ('A' for Active; 'I' for Inactive)
REMARK       I    between atoms: N_2  and  C_3 
REMARK    1  A    between atoms: C_3  and  C_4 
REMARK    2  A    between atoms: C_6  and  C_7 
REMARK    3  A    between atoms: C_7  and  C_8 
REMARK    4  A    between atoms: C_8  and  C_9 
REMARK       I    between atoms: C_9  and  N_10 
REMARK    5  A    between atoms: N_10  and  C_11 
REMARK    6  A    between atoms: C_13  and  C_14 
ROOT
HETATM    1  C   UNL     1      26.602  41.406  51.115  1.00  0.00     0.222 C 
HETATM    2  N   UNL     1      27.228  41.444  52.320  1.00  0.00    -0.327 N 
HETATM    3  O   UNL     1      26.161  40.303  50.762  1.00  0.00    -0.273 OA
HETATM    4  H   UNL     1      27.260  40.505  52.702  1.00  0.00     0.169 HD
ENDROOT
BRANCH   1   5
HETATM    5  C   UNL     1      26.441  42.596  50.199  1.00  0.00     0.108 C 
BRANCH   5   6
HETATM    6  C   UNL     1      25.064  43.258  50.262  1.00  0.00     0.048 C 
BRANCH   6   7
HETATM    7  C   UNL     1      24.979  44.771  50.221  1.00  0.00    -0.057 A 
HETATM    8  C   UNL     1      23.928  45.478  49.623  1.00  0.00     0.024 A 
HETATM    9  C   UNL     1      23.958  46.879  49.536  1.00  0.00     0.032 A 
HETATM   10  C   UNL     1      25.027  47.585  50.098  1.00  0.00     0.017 A 
HETATM   11  C   UNL     1      26.073  46.897  50.708  1.00  0.00     0.002 A 
HETATM   12  C   UNL     1      26.054  45.503  50.755  1.00  0.00     0.007 A 
BRANCH   9  13
HETATM   13  C   UNL     1      22.883  47.653  48.852  1.00  0.00     0.251 C 
HETATM   14  N   UNL     1      22.224  48.598  49.611  1.00  0.00    -0.361 N 
HETATM   15  C   UNL     1      21.089  49.308  49.078  1.00  0.00     0.149 C 
HETATM   16  H   UNL     1      22.381  48.641  50.610  1.00  0.00     0.162 HD
HETATM   17  O   UNL     1      22.591  47.405  47.686  1.00  0.00    -0.268 OA
ENDBRANCH   9  13
ENDBRANCH   6   7
ENDBRANCH   5   6
ENDBRANCH   1   5
BRANCH   2  18
HETATM   18  C   UNL     1      27.821  42.433  53.123  1.00  0.00     0.035 A 
HETATM   19  C   UNL     1      27.247  43.652  53.487  1.00  0.00     0.042 A 
HETATM   20  C   UNL     1      27.959  44.590  54.258  1.00  0.00    -0.021 A 
HETATM   21  C   UNL     1      29.252  44.279  54.692  1.00  0.00     0.012 A 
HETATM   22  C   UNL     1      29.824  43.053  54.367  1.00  0.00     0.003 A 
HETATM   23  C   UNL     1      29.112  42.140  53.590  1.00  0.00     0.029 A 
BRANCH  20  24
HETATM   24  C   UNL     1      27.381  45.883  54.584  1.00  0.00     0.010 A 
HETATM   25  C   UNL     1      26.065  46.374  54.409  1.00  0.00     0.152 A 
HETATM   26  N   UNL     1      25.920  47.630  54.836  1.00  0.00    -0.187 NA
HETATM   27  N   UNL     1      27.145  47.954  55.281  1.00  0.00    -0.289 N 
HETATM   28  H   UNL     1      27.288  48.886  55.657  1.00  0.00     0.188 HD
HETATM   29  C   UNL     1      28.054  46.943  55.156  1.00  0.00     0.123 A 
ENDBRANCH  20  24
ENDBRANCH   2  18
TORSDOF 6
ENDMDL
MODEL 10
REMARK VINA RESULT:      -8.9     12.251     14.377
REMARK  6 active torsions:
REMARK  status: ('A' for Active; 'I' for Inactive)
REMARK       I    between atoms: N_2  and  C_3 
REMARK    1  A    between atoms: C_3  and  C_4 
REMARK    2  A    between atoms: C_6  and  C_7 
REMARK    3  A    between atoms: C_7  and  C_8 
REMARK    4  A    between atoms: C_8  and  C_9 
REMARK       I    between atoms: C_9  and  N_10 
REMARK    5  A    between atoms: N_10  and  C_11 
REMARK    6  A    between atoms: C_13  and  C_14 
ROOT
HETATM    1  C   UNL     1      30.836  47.538  40.063  1.00  0.00     0.222 C 
HETATM    2  N   UNL     1      31.434  47.828  41.247  1.00  0.00    -0.327 N 
HETATM    3  O   UNL     1      30.246  46.450  40.000  1.00  0.00    -0.273 OA
HETATM    4  H   UNL     1      31.321  47.038  41.874  1.00  0.00     0.169 HD
ENDROOT
BRANCH   1   5
HETATM    5  C   UNL     1      30.871  48.434  38.847  1.00  0.00     0.108 C 
BRANCH   5   6
HETATM    6  C   UNL     1      29.996  49.683  38.960  1.00  0.00     0.048 C 
BRANCH   6   7
HETATM    7  C   UNL     1      30.633  50.980  39.418  1.00  0.00    -0.057 A 
HETATM    8  C   UNL     1      31.916  51.396  39.040  1.00  0.00     0.024 A 
HETATM    9  C   UNL     1      32.484  52.563  39.576  1.00  0.00     0.032 A 
HETATM   10  C   UNL     1      31.741  53.351  40.462  1.00  0.00     0.017 A 
HETATM   11  C   UNL     1      30.459  52.957  40.837  1.00  0.00     0.002 A 
HETATM   12  C   UNL     1      29.917  51.776  40.330  1.00  0.00     0.007 A 
BRANCH   9  13
HETATM   13  C   UNL     1      33.870  52.996  39.239  1.00  0.00     0.251 C 
HETATM   14  N   UNL     1      34.194  54.307  39.524  1.00  0.00    -0.361 N 
HETATM   15  C   UNL     1      35.464  54.854  39.122  1.00  0.00     0.149 C 
HETATM   16  H   UNL     1      33.470  54.954  39.810  1.00  0.00     0.162 HD
HETATM   17  O   UNL     1      34.644  52.217  38.693  1.00  0.00    -0.268 OA
ENDBRANCH   9  13
ENDBRANCH   6   7
ENDBRANCH   5   6
ENDBRANCH   1   5
BRANCH   2  18
HETATM   18  C   UNL     1      32.149  48.913  41.783  1.00  0.00     0.035 A 
HETATM   19  C   UNL     1      33.442  49.301  41.431  1.00  0.00     0.042 A 
HETATM   20  C   UNL     1      34.079  50.380  42.073  1.00  0.00    -0.021 A 
HETATM   21  C   UNL     1      33.389  51.092  43.060  1.00  0.00     0.012 A 
HETATM   22  C   UNL     1      32.086  50.739  43.397  1.00  0.00     0.003 A 
HETATM   23  C   UNL     1      31.474  49.659  42.761  1.00  0.00     0.029 A 
BRANCH  20  24
HETATM   24  C   UNL     1      35.448  50.743  41.746  1.00  0.00     0.010 A 
HETATM   25  C   UNL     1      36.314  51.695  42.336  1.00  0.00     0.152 A 
HETATM   26  N   UNL     1      37.511  51.741  41.746  1.00  0.00    -0.187 NA
HETATM   27  N   UNL     1      37.415  50.824  40.771  1.00  0.00    -0.289 N 
HETATM   28  H   UNL     1      38.219  50.679  40.167  1.00  0.00     0.188 HD
HETATM   29  C   UNL     1      36.203  50.197  40.729  1.00  0.00     0.123 A 
ENDBRANCH  20  24
ENDBRANCH   2  18
TORSDOF 6
ENDMDL
