MODEL 1
REMARK VINA RESULT:      -9.1      0.000      0.000
REMARK  3 active torsions:
REMARK  status: ('A' for Active; 'I' for Inactive)
REMARK    1  A    between atoms: C_10  and  C_11 
REMARK       I    between atoms: C_11  and  N_12 
REMARK    2  A    between atoms: N_12  and  C_13 
REMARK    3  A    between atoms: C_16  and  N_17 
ROOT
HETATM    1  C   UNL     1      26.708  45.275  53.097  1.00  0.00     0.258 C 
HETATM    2  N   UNL     1      26.862  45.551  51.756  1.00  0.00    -0.322 N 
HETATM    3  O   UNL     1      25.814  45.740  53.797  1.00  0.00    -0.267 OA
HETATM    4  H   UNL     1      27.681  45.173  51.300  1.00  0.00     0.169 HD
ENDROOT
BRANCH   2   5
HETATM    5  C   UNL     1      25.950  46.217  50.913  1.00  0.00     0.052 A 
HETATM    6  C   UNL     1      25.943  47.576  50.638  1.00  0.00     0.148 A 
HETATM    7  N   UNL     1      24.984  48.202  49.903  1.00  0.00    -0.247 NA
HETATM    8  C   UNL     1      23.968  47.473  49.395  1.00  0.00     0.105 A 
HETATM    9  C   UNL     1      23.927  46.095  49.602  1.00  0.00     0.047 A 
HETATM   10  C   UNL     1      24.921  45.465  50.356  1.00  0.00     0.034 A 
BRANCH   8  11
HETATM   11  N   UNL     1      22.913  48.127  48.742  1.00  0.00    -0.258 NA
HETATM   12  C   UNL     1      22.603  49.482  49.257  1.00  0.00     0.199 C 
HETATM   13  C   UNL     1      21.388  50.141  48.574  1.00  0.00     0.231 C 
HETATM   14  O   UNL     1      21.180  51.353  48.641  1.00  0.00    -0.272 OA
HETATM   15  N   UNL     1      20.470  49.335  47.947  1.00  0.00    -0.359 N 
HETATM   16  C   UNL     1      20.796  47.982  47.546  1.00  0.00     0.137 C 
HETATM   17  H   UNL     1      19.741  49.838  47.459  1.00  0.00     0.162 HD
HETATM   18  C   UNL     1      21.725  47.281  48.541  1.00  0.00     0.117 C 
ENDBRANCH   8  11
ENDBRANCH   2   5
BRANCH   1  19
HETATM   19  C   UNL     1      27.693  44.342  53.669  1.00  0.00     0.063 A 
HETATM   20  C   UNL     1      28.766  44.516  54.620  1.00  0.00     0.046 A 
HETATM   21  C   UNL     1      29.278  45.584  55.390  1.00  0.00     0.130 A 
HETATM   22  C   UNL     1      29.426  43.285  54.738  1.00  0.00     0.046 A 
HETATM   23  C   UNL     1      30.389  45.414  56.220  1.00  0.00     0.043 A 
HETATM   24  F   UNL     1      28.703  46.794  55.347  1.00  0.00    -0.205 F 
HETATM   25  C   UNL     1      31.018  44.178  56.299  1.00  0.00     0.005 A 
HETATM   26  C   UNL     1      30.546  43.090  55.561  1.00  0.00     0.030 A 
HETATM   27  N   UNL     1      28.777  42.392  53.923  1.00  0.00    -0.364 N 
HETATM   28  H   UNL     1      29.039  41.421  53.804  1.00  0.00     0.165 HD
HETATM   29  C   UNL     1      27.743  43.010  53.282  1.00  0.00     0.106 A 
ENDBRANCH   1  19
TORSDOF 3
ENDMDL
MODEL 2
REMARK VINA RESULT:      -9.0      2.649      9.586
REMARK  3 active torsions:
REMARK  status: ('A' for Active; 'I' for Inactive)
REMARK    1  A    between atoms: C_10  and  C_11 
REMARK       I    between atoms: C_11  and  N_12 
REMARK    2  A    between atoms: N_12  and  C_13 
REMARK    3  A    between atoms: C_16  and  N_17 
ROOT
HETATM    1  C   UNL     1      24.173  47.832  49.886  1.00  0.00     0.258 C 
HETATM    2  N   UNL     1      24.143  46.852  50.853  1.00  0.00    -0.322 N 
HETATM    3  O   UNL     1      25.136  48.564  49.677  1.00  0.00    -0.267 OA
HETATM    4  H   UNL     1      23.268  46.362  50.985  1.00  0.00     0.169 HD
ENDROOT
BRANCH   2   5
HETATM    5  C   UNL     1      25.229  46.373  51.615  1.00  0.00     0.052 A 
HETATM    6  C   UNL     1      25.938  45.207  51.372  1.00  0.00     0.148 A 
HETATM    7  N   UNL     1      26.912  44.720  52.188  1.00  0.00    -0.247 NA
HETATM    8  C   UNL     1      27.228  45.402  53.309  1.00  0.00     0.105 A 
HETATM    9  C   UNL     1      26.580  46.602  53.602  1.00  0.00     0.047 A 
HETATM   10  C   UNL     1      25.583  47.090  52.752  1.00  0.00     0.034 A 
BRANCH   8  11
HETATM   11  N   UNL     1      28.141  44.846  54.217  1.00  0.00    -0.258 NA
HETATM   12  C   UNL     1      28.823  45.824  55.096  1.00  0.00     0.199 C 
HETATM   13  C   UNL     1      29.878  45.191  56.026  1.00  0.00     0.231 C 
HETATM   14  O   UNL     1      30.307  45.778  57.020  1.00  0.00    -0.272 OA
HETATM   15  N   UNL     1      30.412  43.975  55.681  1.00  0.00    -0.359 N 
HETATM   16  C   UNL     1      29.748  43.093  54.742  1.00  0.00     0.137 C 
HETATM   17  H   UNL     1      31.041  43.586  56.371  1.00  0.00     0.162 HD
HETATM   18  C   UNL     1      29.047  43.854  53.614  1.00  0.00     0.117 C 
ENDBRANCH   8  11
ENDBRANCH   2   5
BRANCH   1  19
HETATM   19  C   UNL     1      22.955  47.951  49.066  1.00  0.00     0.063 A 
HETATM   20  C   UNL     1      22.114  49.073  48.725  1.00  0.00     0.046 A 
HETATM   21  C   UNL     1      22.116  50.462  48.986  1.00  0.00     0.130 A 
HETATM   22  C   UNL     1      21.044  48.580  47.966  1.00  0.00     0.046 A 
HETATM   23  C   UNL     1      21.098  51.292  48.512  1.00  0.00     0.043 A 
HETATM   24  F   UNL     1      23.107  51.022  49.694  1.00  0.00    -0.205 F 
HETATM   25  C   UNL     1      20.051  50.759  47.772  1.00  0.00     0.005 A 
HETATM   26  C   UNL     1      20.006  49.392  47.484  1.00  0.00     0.030 A 
HETATM   27  N   UNL     1      21.230  47.228  47.824  1.00  0.00    -0.364 N 
HETATM   28  H   UNL     1      20.607  46.607  47.324  1.00  0.00     0.165 HD
HETATM   29  C   UNL     1      22.366  46.842  48.475  1.00  0.00     0.106 A 
ENDBRANCH   1  19
TORSDOF 3
ENDMDL
MODEL 3
REMARK VINA RESULT:      -8.9      5.084      7.626
REMARK  3 active torsions:
REMARK  status: ('A' for Active; 'I' for Inactive)
REMARK    1  A    between atoms: C_10  and  C_11 
REMARK       I    between atoms: C_11  and  N_12 
REMARK    2  A    between atoms: N_12  and  C_13 
REMARK    3  A    between atoms: C_16  and  N_17 
ROOT
HETATM    1  C   UNL     1      22.259  48.614  49.005  1.00  0.00     0.258 C 
HETATM    2  N   UNL     1      21.751  49.519  49.911  1.00  0.00    -0.322 N 
HETATM    3  O   UNL     1      21.669  48.250  47.991  1.00  0.00    -0.267 OA
HETATM    4  H   UNL     1      22.293  49.684  50.748  1.00  0.00     0.169 HD
ENDROOT
BRANCH   2   5
HETATM    5  C   UNL     1      20.607  50.328  49.757  1.00  0.00     0.052 A 
HETATM    6  C   UNL     1      19.392  50.143  50.398  1.00  0.00     0.148 A 
HETATM    7  N   UNL     1      18.275  50.879  50.147  1.00  0.00    -0.247 NA
HETATM    8  C   UNL     1      18.333  51.862  49.224  1.00  0.00     0.105 A 
HETATM    9  C   UNL     1      19.532  52.129  48.563  1.00  0.00     0.047 A 
HETATM   10  C   UNL     1      20.671  51.365  48.834  1.00  0.00     0.034 A 
BRANCH   8  11
HETATM   11  N   UNL     1      17.159  52.543  48.872  1.00  0.00    -0.258 NA
HETATM   12  C   UNL     1      16.423  53.150  50.005  1.00  0.00     0.199 C 
HETATM   13  C   UNL     1      15.097  53.821  49.596  1.00  0.00     0.231 C 
HETATM   14  O   UNL     1      14.523  54.630  50.326  1.00  0.00    -0.272 OA
HETATM   15  N   UNL     1      14.502  53.436  48.420  1.00  0.00    -0.359 N 
HETATM   16  C   UNL     1      15.248  52.761  47.377  1.00  0.00     0.137 C 
HETATM   17  H   UNL     1      13.677  53.968  48.178  1.00  0.00     0.162 HD
HETATM   18  C   UNL     1      16.300  51.799  47.935  1.00  0.00     0.117 C 
ENDBRANCH   8  11
ENDBRANCH   2   5
BRANCH   1  19
HETATM   19  C   UNL     1      23.605  48.100  49.308  1.00  0.00     0.063 A 
HETATM   20  C   UNL     1      24.927  48.641  49.100  1.00  0.00     0.046 A 
HETATM   21  C   UNL     1      25.465  49.840  48.581  1.00  0.00     0.130 A 
HETATM   22  C   UNL     1      25.848  47.673  49.524  1.00  0.00     0.046 A 
HETATM   23  C   UNL     1      26.845  50.038  48.492  1.00  0.00     0.043 A 
HETATM   24  F   UNL     1      24.658  50.825  48.162  1.00  0.00    -0.205 F 
HETATM   25  C   UNL     1      27.721  49.048  48.916  1.00  0.00     0.005 A 
HETATM   26  C   UNL     1      27.238  47.847  49.441  1.00  0.00     0.030 A 
HETATM   27  N   UNL     1      25.131  46.602  49.993  1.00  0.00    -0.364 N 
HETATM   28  H   UNL     1      25.536  45.750  50.361  1.00  0.00     0.165 HD
HETATM   29  C   UNL     1      23.794  46.845  49.870  1.00  0.00     0.106 A 
ENDBRANCH   1  19
TORSDOF 3
ENDMDL
MODEL 4
REMARK VINA RESULT:      -8.9      2.242      2.911
REMARK  3 active torsions:
REMARK  status: ('A' for Active; 'I' for Inactive)
REMARK    1  A    between atoms: C_10  and  C_11 
REMARK       I    between atoms: C_11  and  N_12 
REMARK    2  A    between atoms: N_12  and  C_13 
REMARK    3  A    between atoms: C_16  and  N_17 
ROOT
HETATM    1  C   UNL     1      27.976  44.905  53.921  1.00  0.00     0.258 C 
HETATM    2  N   UNL     1      26.742  45.473  53.691  1.00  0.00    -0.322 N 
HETATM    3  O   UNL     1      28.545  44.154  53.135  1.00  0.00    -0.267 OA
HETATM    4  H   UNL     1      26.337  46.013  54.443  1.00  0.00     0.169 HD
ENDROOT
BRANCH   2   5
HETATM    5  C   UNL     1      26.019  45.479  52.480  1.00  0.00     0.052 A 
HETATM    6  C   UNL     1      25.999  46.509  51.553  1.00  0.00     0.148 A 
HETATM    7  N   UNL     1      25.208  46.526  50.446  1.00  0.00    -0.247 NA
HETATM    8  C   UNL     1      24.386  45.481  50.213  1.00  0.00     0.105 A 
HETATM    9  C   UNL     1      24.376  44.393  51.085  1.00  0.00     0.047 A 
HETATM   10  C   UNL     1      25.198  44.389  52.216  1.00  0.00     0.034 A 
BRANCH   8  11
HETATM   11  N   UNL     1      23.480  45.546  49.145  1.00  0.00    -0.258 NA
HETATM   12  C   UNL     1      22.980  46.904  48.828  1.00  0.00     0.199 C 
HETATM   13  C   UNL     1      21.927  46.931  47.703  1.00  0.00     0.231 C 
HETATM   14  O   UNL     1      21.640  47.967  47.103  1.00  0.00    -0.272 OA
HETATM   15  N   UNL     1      21.230  45.780  47.429  1.00  0.00    -0.359 N 
HETATM   16  C   UNL     1      21.718  44.480  47.843  1.00  0.00     0.137 C 
HETATM   17  H   UNL     1      20.610  45.850  46.633  1.00  0.00     0.162 HD
HETATM   18  C   UNL     1      22.423  44.521  49.201  1.00  0.00     0.117 C 
ENDBRANCH   8  11
ENDBRANCH   2   5
BRANCH   1  19
HETATM   19  C   UNL     1      28.615  45.272  55.196  1.00  0.00     0.063 A 
HETATM   20  C   UNL     1      29.736  44.721  55.921  1.00  0.00     0.046 A 
HETATM   21  C   UNL     1      30.668  43.680  55.713  1.00  0.00     0.130 A 
HETATM   22  C   UNL     1      29.851  45.436  57.121  1.00  0.00     0.046 A 
HETATM   23  C   UNL     1      31.646  43.381  56.664  1.00  0.00     0.043 A 
HETATM   24  F   UNL     1      30.639  42.952  54.588  1.00  0.00    -0.205 F 
HETATM   25  C   UNL     1      31.717  44.108  57.845  1.00  0.00     0.005 A 
HETATM   26  C   UNL     1      30.821  45.151  58.094  1.00  0.00     0.030 A 
HETATM   27  N   UNL     1      28.868  46.393  57.125  1.00  0.00    -0.364 N 
HETATM   28  H   UNL     1      28.709  47.056  57.873  1.00  0.00     0.165 HD
HETATM   29  C   UNL     1      28.127  46.306  55.983  1.00  0.00     0.106 A 
ENDBRANCH   1  19
TORSDOF 3
ENDMDL
MODEL 5
REMARK VINA RESULT:      -8.7      2.697      9.754
REMARK  3 active torsions:
REMARK  status: ('A' for Active; 'I' for Inactive)
REMARK    1  A    between atoms: C_10  and  C_11 
REMARK       I    between atoms: C_11  and  N_12 
REMARK    2  A    between atoms: N_12  and  C_13 
REMARK    3  A    between atoms: C_16  and  N_17 
ROOT
HETATM    1  C   UNL     1      23.595  48.026  49.286  1.00  0.00     0.258 C 
HETATM    2  N   UNL     1      23.679  46.746  49.787  1.00  0.00    -0.322 N 
HETATM    3  O   UNL     1      24.464  48.882  49.434  1.00  0.00    -0.267 OA
HETATM    4  H   UNL     1      22.869  46.152  49.669  1.00  0.00     0.169 HD
ENDROOT
BRANCH   2   5
HETATM    5  C   UNL     1      24.810  46.126  50.357  1.00  0.00     0.052 A 
HETATM    6  C   UNL     1      25.659  45.240  49.712  1.00  0.00     0.148 A 
HETATM    7  N   UNL     1      26.680  44.578  50.322  1.00  0.00    -0.247 NA
HETATM    8  C   UNL     1      26.902  44.786  51.637  1.00  0.00     0.105 A 
HETATM    9  C   UNL     1      26.109  45.690  52.344  1.00  0.00     0.047 A 
HETATM   10  C   UNL     1      25.066  46.364  51.702  1.00  0.00     0.034 A 
BRANCH   8  11
HETATM   11  N   UNL     1      27.870  44.018  52.300  1.00  0.00    -0.258 NA
HETATM   12  C   UNL     1      27.785  42.559  52.057  1.00  0.00     0.199 C 
HETATM   13  C   UNL     1      28.811  41.736  52.862  1.00  0.00     0.231 C 
HETATM   14  O   UNL     1      29.097  40.577  52.561  1.00  0.00    -0.272 OA
HETATM   15  N   UNL     1      29.352  42.290  53.996  1.00  0.00    -0.359 N 
HETATM   16  C   UNL     1      29.326  43.720  54.230  1.00  0.00     0.137 C 
HETATM   17  H   UNL     1      30.070  41.726  54.432  1.00  0.00     0.162 HD
HETATM   18  C   UNL     1      28.041  44.377  53.718  1.00  0.00     0.117 C 
ENDBRANCH   8  11
ENDBRANCH   2   5
BRANCH   1  19
HETATM   19  C   UNL     1      22.378  48.327  48.515  1.00  0.00     0.063 A 
HETATM   20  C   UNL     1      21.523  49.490  48.453  1.00  0.00     0.046 A 
HETATM   21  C   UNL     1      21.509  50.773  49.043  1.00  0.00     0.130 A 
HETATM   22  C   UNL     1      20.460  49.183  47.593  1.00  0.00     0.046 A 
HETATM   23  C   UNL     1      20.481  51.682  48.781  1.00  0.00     0.043 A 
HETATM   24  F   UNL     1      22.493  51.156  49.870  1.00  0.00    -0.205 F 
HETATM   25  C   UNL     1      19.442  51.333  47.929  1.00  0.00     0.005 A 
HETATM   26  C   UNL     1      19.413  50.076  47.318  1.00  0.00     0.030 A 
HETATM   27  N   UNL     1      20.662  47.908  47.128  1.00  0.00    -0.364 N 
HETATM   28  H   UNL     1      20.047  47.420  46.490  1.00  0.00     0.165 HD
HETATM   29  C   UNL     1      21.801  47.389  47.670  1.00  0.00     0.106 A 
ENDBRANCH   1  19
TORSDOF 3
ENDMDL
MODEL 6
REMARK VINA RESULT:      -8.6      1.501      1.921
REMARK  3 active torsions:
REMARK  status: ('A' for Active; 'I' for Inactive)
REMARK    1  A    between atoms: C_10  and  C_11 
REMARK       I    between atoms: C_11  and  N_12 
REMARK    2  A    between atoms: N_12  and  C_13 
REMARK    3  A    between atoms: C_16  and  N_17 
ROOT
HETATM    1  C   UNL     1      25.606  44.718  51.629  1.00  0.00     0.258 C 
HETATM    2  N   UNL     1      25.739  45.565  50.552  1.00  0.00    -0.322 N 
HETATM    3  O   UNL     1      24.628  44.697  52.372  1.00  0.00    -0.267 OA
HETATM    4  H   UNL     1      26.621  45.547  50.059  1.00  0.00     0.169 HD
ENDROOT
BRANCH   2   5
HETATM    5  C   UNL     1      24.743  46.387  49.985  1.00  0.00     0.052 A 
HETATM    6  C   UNL     1      24.615  47.754  50.176  1.00  0.00     0.148 A 
HETATM    7  N   UNL     1      23.581  48.499  49.699  1.00  0.00    -0.247 NA
HETATM    8  C   UNL     1      22.609  47.890  48.988  1.00  0.00     0.105 A 
HETATM    9  C   UNL     1      22.688  46.522  48.727  1.00  0.00     0.047 A 
HETATM   10  C   UNL     1      23.758  45.771  49.221  1.00  0.00     0.034 A 
BRANCH   8  11
HETATM   11  N   UNL     1      21.479  48.625  48.599  1.00  0.00    -0.258 NA
HETATM   12  C   UNL     1      21.508  50.059  48.970  1.00  0.00     0.199 C 
HETATM   13  C   UNL     1      20.219  50.821  48.601  1.00  0.00     0.231 C 
HETATM   14  O   UNL     1      20.182  52.050  48.543  1.00  0.00    -0.272 OA
HETATM   15  N   UNL     1      19.063  50.104  48.418  1.00  0.00    -0.359 N 
HETATM   16  C   UNL     1      19.086  48.681  48.148  1.00  0.00     0.137 C 
HETATM   17  H   UNL     1      18.276  50.658  48.106  1.00  0.00     0.162 HD
HETATM   18  C   UNL     1      20.203  47.957  48.905  1.00  0.00     0.117 C 
ENDBRANCH   8  11
ENDBRANCH   2   5
BRANCH   1  19
HETATM   19  C   UNL     1      26.725  43.786  51.845  1.00  0.00     0.063 A 
HETATM   20  C   UNL     1      27.790  43.749  52.819  1.00  0.00     0.046 A 
HETATM   21  C   UNL     1      28.173  44.522  53.938  1.00  0.00     0.130 A 
HETATM   22  C   UNL     1      28.616  42.662  52.497  1.00  0.00     0.046 A 
HETATM   23  C   UNL     1      29.320  44.217  54.674  1.00  0.00     0.043 A 
HETATM   24  F   UNL     1      27.436  45.573  54.325  1.00  0.00    -0.205 F 
HETATM   25  C   UNL     1      30.114  43.137  54.313  1.00  0.00     0.005 A 
HETATM   26  C   UNL     1      29.775  42.338  53.218  1.00  0.00     0.030 A 
HETATM   27  N   UNL     1      28.073  42.047  51.397  1.00  0.00    -0.364 N 
HETATM   28  H   UNL     1      28.462  41.233  50.939  1.00  0.00     0.165 HD
HETATM   29  C   UNL     1      26.946  42.707  51.001  1.00  0.00     0.106 A 
ENDBRANCH   1  19
TORSDOF 3
ENDMDL
MODEL 7
REMARK VINA RESULT:      -8.6      3.051      9.337
REMARK  3 active torsions:
REMARK  status: ('A' for Active; 'I' for Inactive)
REMARK    1  A    between atoms: C_10  and  C_11 
REMARK       I    between atoms: C_11  and  N_12 
REMARK    2  A    between atoms: N_12  and  C_13 
REMARK    3  A    between atoms: C_16  and  N_17 
ROOT
HETATM    1  C   UNL     1      25.013  44.294  51.818  1.00  0.00     0.258 C 
HETATM    2  N   UNL     1      26.306  44.739  51.657  1.00  0.00    -0.322 N 
HETATM    3  O   UNL     1      24.585  43.779  52.848  1.00  0.00    -0.267 OA
HETATM    4  H   UNL     1      26.565  45.074  50.739  1.00  0.00     0.169 HD
ENDROOT
BRANCH   2   5
HETATM    5  C   UNL     1      27.289  44.883  52.658  1.00  0.00     0.052 A 
HETATM    6  C   UNL     1      28.323  43.995  52.912  1.00  0.00     0.148 A 
HETATM    7  N   UNL     1      29.191  44.112  53.953  1.00  0.00    -0.247 NA
HETATM    8  C   UNL     1      29.061  45.153  54.802  1.00  0.00     0.105 A 
HETATM    9  C   UNL     1      28.064  46.105  54.589  1.00  0.00     0.047 A 
HETATM   10  C   UNL     1      27.182  45.973  53.513  1.00  0.00     0.034 A 
BRANCH   8  11
HETATM   11  N   UNL     1      29.871  45.213  55.944  1.00  0.00    -0.258 NA
HETATM   12  C   UNL     1      30.644  43.982  56.229  1.00  0.00     0.199 C 
HETATM   13  C   UNL     1      31.462  44.051  57.534  1.00  0.00     0.231 C 
HETATM   14  O   UNL     1      32.386  43.271  57.767  1.00  0.00    -0.272 OA
HETATM   15  N   UNL     1      31.087  44.955  58.497  1.00  0.00    -0.359 N 
HETATM   16  C   UNL     1      30.251  46.096  58.183  1.00  0.00     0.137 C 
HETATM   17  H   UNL     1      31.710  44.997  59.293  1.00  0.00     0.162 HD
HETATM   18  C   UNL     1      29.192  45.776  57.124  1.00  0.00     0.117 C 
ENDBRANCH   8  11
ENDBRANCH   2   5
BRANCH   1  19
HETATM   19  C   UNL     1      24.125  44.490  50.660  1.00  0.00     0.063 A 
HETATM   20  C   UNL     1      23.755  45.661  49.901  1.00  0.00     0.046 A 
HETATM   21  C   UNL     1      24.092  47.033  49.918  1.00  0.00     0.130 A 
HETATM   22  C   UNL     1      22.812  45.260  48.944  1.00  0.00     0.046 A 
HETATM   23  C   UNL     1      23.507  47.936  49.029  1.00  0.00     0.043 A 
HETATM   24  F   UNL     1      24.994  47.503  50.792  1.00  0.00    -0.205 F 
HETATM   25  C   UNL     1      22.570  47.497  48.103  1.00  0.00     0.005 A 
HETATM   26  C   UNL     1      22.206  46.149  48.043  1.00  0.00     0.030 A 
HETATM   27  N   UNL     1      22.630  43.908  49.089  1.00  0.00    -0.364 N 
HETATM   28  H   UNL     1      21.999  43.345  48.532  1.00  0.00     0.165 HD
HETATM   29  C   UNL     1      23.408  43.438  50.107  1.00  0.00     0.106 A 
ENDBRANCH   1  19
TORSDOF 3
ENDMDL
MODEL 8
REMARK VINA RESULT:      -8.5      3.254      9.674
REMARK  3 active torsions:
REMARK  status: ('A' for Active; 'I' for Inactive)
REMARK    1  A    between atoms: C_10  and  C_11 
REMARK       I    between atoms: C_11  and  N_12 
REMARK    2  A    between atoms: N_12  and  C_13 
REMARK    3  A    between atoms: C_16  and  N_17 
ROOT
HETATM    1  C   UNL     1      23.416  47.699  49.174  1.00  0.00     0.258 C 
HETATM    2  N   UNL     1      24.558  47.628  49.941  1.00  0.00    -0.322 N 
HETATM    3  O   UNL     1      22.885  46.729  48.640  1.00  0.00    -0.267 OA
HETATM    4  H   UNL     1      24.948  48.503  50.266  1.00  0.00     0.169 HD
ENDROOT
BRANCH   2   5
HETATM    5  C   UNL     1      25.193  46.464  50.420  1.00  0.00     0.052 A 
HETATM    6  C   UNL     1      25.006  45.894  51.669  1.00  0.00     0.148 A 
HETATM    7  N   UNL     1      25.714  44.831  52.138  1.00  0.00    -0.247 NA
HETATM    8  C   UNL     1      26.659  44.276  51.352  1.00  0.00     0.105 A 
HETATM    9  C   UNL     1      26.880  44.775  50.068  1.00  0.00     0.047 A 
HETATM   10  C   UNL     1      26.143  45.866  49.600  1.00  0.00     0.034 A 
BRANCH   8  11
HETATM   11  N   UNL     1      27.476  43.261  51.872  1.00  0.00    -0.258 NA
HETATM   12  C   UNL     1      28.762  43.724  52.443  1.00  0.00     0.199 C 
HETATM   13  C   UNL     1      29.671  42.579  52.933  1.00  0.00     0.231 C 
HETATM   14  O   UNL     1      30.611  42.777  53.704  1.00  0.00    -0.272 OA
HETATM   15  N   UNL     1      29.474  41.320  52.422  1.00  0.00    -0.359 N 
HETATM   16  C   UNL     1      28.226  40.945  51.788  1.00  0.00     0.137 C 
HETATM   17  H   UNL     1      30.055  40.606  52.841  1.00  0.00     0.162 HD
HETATM   18  C   UNL     1      27.605  42.092  50.986  1.00  0.00     0.117 C 
ENDBRANCH   8  11
ENDBRANCH   2   5
BRANCH   1  19
HETATM   19  C   UNL     1      22.826  49.041  49.037  1.00  0.00     0.063 A 
HETATM   20  C   UNL     1      21.462  49.514  49.050  1.00  0.00     0.046 A 
HETATM   21  C   UNL     1      20.186  48.933  49.227  1.00  0.00     0.130 A 
HETATM   22  C   UNL     1      21.494  50.893  48.800  1.00  0.00     0.046 A 
HETATM   23  C   UNL     1      19.022  49.700  49.148  1.00  0.00     0.043 A 
HETATM   24  F   UNL     1      20.062  47.623  49.481  1.00  0.00    -0.205 F 
HETATM   25  C   UNL     1      19.099  51.062  48.889  1.00  0.00     0.005 A 
HETATM   26  C   UNL     1      20.338  51.684  48.712  1.00  0.00     0.030 A 
HETATM   27  N   UNL     1      22.810  51.255  48.666  1.00  0.00    -0.364 N 
HETATM   28  H   UNL     1      23.135  52.194  48.475  1.00  0.00     0.165 HD
HETATM   29  C   UNL     1      23.613  50.161  48.806  1.00  0.00     0.106 A 
ENDBRANCH   1  19
TORSDOF 3
ENDMDL
MODEL 9
REMARK VINA RESULT:      -8.5      2.152      2.459
REMARK  3 active torsions:
REMARK  status: ('A' for Active; 'I' for Inactive)
REMARK    1  A    between atoms: C_10  and  C_11 
REMARK       I    between atoms: C_11  and  N_12 
REMARK    2  A    between atoms: N_12  and  C_13 
REMARK    3  A    between atoms: C_16  and  N_17 
ROOT
HETATM    1  C   UNL     1      26.419  44.370  52.953  1.00  0.00     0.258 C 
HETATM    2  N   UNL     1      26.421  44.423  51.577  1.00  0.00    -0.322 N 
HETATM    3  O   UNL     1      25.516  44.811  53.658  1.00  0.00    -0.267 OA
HETATM    4  H   UNL     1      27.255  44.098  51.105  1.00  0.00     0.169 HD
ENDROOT
BRANCH   2   5
HETATM    5  C   UNL     1      25.348  44.781  50.736  1.00  0.00     0.052 A 
HETATM    6  C   UNL     1      25.122  46.040  50.202  1.00  0.00     0.148 A 
HETATM    7  N   UNL     1      24.018  46.377  49.480  1.00  0.00    -0.247 NA
HETATM    8  C   UNL     1      23.074  45.441  49.252  1.00  0.00     0.105 A 
HETATM    9  C   UNL     1      23.249  44.142  49.729  1.00  0.00     0.047 A 
HETATM   10  C   UNL     1      24.390  43.810  50.466  1.00  0.00     0.034 A 
BRANCH   8  11
HETATM   11  N   UNL     1      21.879  45.810  48.617  1.00  0.00    -0.258 NA
HETATM   12  C   UNL     1      20.803  44.794  48.668  1.00  0.00     0.199 C 
HETATM   13  C   UNL     1      19.532  45.197  47.893  1.00  0.00     0.231 C 
HETATM   14  O   UNL     1      18.450  44.640  48.081  1.00  0.00    -0.272 OA
HETATM   15  N   UNL     1      19.639  46.144  46.906  1.00  0.00    -0.359 N 
HETATM   16  C   UNL     1      20.763  47.057  46.846  1.00  0.00     0.137 C 
HETATM   17  H   UNL     1      18.756  46.413  46.490  1.00  0.00     0.162 HD
HETATM   18  C   UNL     1      22.076  46.402  47.282  1.00  0.00     0.117 C 
ENDBRANCH   8  11
ENDBRANCH   2   5
BRANCH   1  19
HETATM   19  C   UNL     1      27.588  43.715  53.564  1.00  0.00     0.063 A 
HETATM   20  C   UNL     1      28.606  44.184  54.474  1.00  0.00     0.046 A 
HETATM   21  C   UNL     1      28.881  45.390  55.157  1.00  0.00     0.130 A 
HETATM   22  C   UNL     1      29.517  43.135  54.661  1.00  0.00     0.046 A 
HETATM   23  C   UNL     1      30.010  45.523  55.969  1.00  0.00     0.043 A 
HETATM   24  F   UNL     1      28.058  46.441  55.045  1.00  0.00    -0.205 F 
HETATM   25  C   UNL     1      30.892  44.461  56.118  1.00  0.00     0.005 A 
HETATM   26  C   UNL     1      30.660  43.246  55.468  1.00  0.00     0.030 A 
HETATM   27  N   UNL     1      29.070  42.067  53.926  1.00  0.00    -0.364 N 
HETATM   28  H   UNL     1      29.535  41.170  53.867  1.00  0.00     0.165 HD
HETATM   29  C   UNL     1      27.922  42.400  53.269  1.00  0.00     0.106 A 
ENDBRANCH   1  19
TORSDOF 3
ENDMDL
MODEL 10
REMARK VINA RESULT:      -8.1     13.529     14.254
REMARK  3 active torsions:
REMARK  status: ('A' for Active; 'I' for Inactive)
REMARK    1  A    between atoms: C_10  and  C_11 
REMARK       I    between atoms: C_11  and  N_12 
REMARK    2  A    between atoms: N_12  and  C_13 
REMARK    3  A    between atoms: C_16  and  N_17 
ROOT
HETATM    1  C   UNL     1      36.729  52.474  43.428  1.00  0.00     0.258 C 
HETATM    2  N   UNL     1      35.911  51.372  43.318  1.00  0.00    -0.322 N 
HETATM    3  O   UNL     1      36.525  53.543  42.858  1.00  0.00    -0.267 OA
HETATM    4  H   UNL     1      36.221  50.523  43.771  1.00  0.00     0.169 HD
ENDROOT
BRANCH   2   5
HETATM    5  C   UNL     1      34.630  51.316  42.732  1.00  0.00     0.052 A 
HETATM    6  C   UNL     1      34.359  51.028  41.403  1.00  0.00     0.148 A 
HETATM    7  N   UNL     1      33.118  51.086  40.847  1.00  0.00    -0.247 NA
HETATM    8  C   UNL     1      32.070  51.438  41.620  1.00  0.00     0.105 A 
HETATM    9  C   UNL     1      32.261  51.708  42.974  1.00  0.00     0.047 A 
HETATM   10  C   UNL     1      33.542  51.641  43.532  1.00  0.00     0.034 A 
BRANCH   8  11
HETATM   11  N   UNL     1      30.811  51.619  41.029  1.00  0.00    -0.258 NA
HETATM   12  C   UNL     1      30.832  51.825  39.562  1.00  0.00     0.199 C 
HETATM   13  C   UNL     1      29.443  52.101  38.954  1.00  0.00     0.231 C 
HETATM   14  O   UNL     1      29.224  51.985  37.748  1.00  0.00    -0.272 OA
HETATM   15  N   UNL     1      28.449  52.574  39.776  1.00  0.00    -0.359 N 
HETATM   16  C   UNL     1      28.521  52.428  41.215  1.00  0.00     0.137 C 
HETATM   17  H   UNL     1      27.547  52.662  39.328  1.00  0.00     0.162 HD
HETATM   18  C   UNL     1      29.948  52.569  41.751  1.00  0.00     0.117 C 
ENDBRANCH   8  11
ENDBRANCH   2   5
BRANCH   1  19
HETATM   19  C   UNL     1      37.895  52.314  44.314  1.00  0.00     0.063 A 
HETATM   20  C   UNL     1      38.415  53.113  45.398  1.00  0.00     0.046 A 
HETATM   21  C   UNL     1      38.032  54.301  46.060  1.00  0.00     0.130 A 
HETATM   22  C   UNL     1      39.601  52.506  45.835  1.00  0.00     0.046 A 
HETATM   23  C   UNL     1      38.805  54.840  47.090  1.00  0.00     0.043 A 
HETATM   24  F   UNL     1      36.906  54.942  45.715  1.00  0.00    -0.205 F 
HETATM   25  C   UNL     1      39.979  54.211  47.485  1.00  0.00     0.005 A 
HETATM   26  C   UNL     1      40.397  53.030  46.864  1.00  0.00     0.030 A 
HETATM   27  N   UNL     1      39.788  51.378  45.077  1.00  0.00    -0.364 N 
HETATM   28  H   UNL     1      40.570  50.742  45.169  1.00  0.00     0.165 HD
HETATM   29  C   UNL     1      38.778  51.253  44.168  1.00  0.00     0.106 A 
ENDBRANCH   1  19
TORSDOF 3
ENDMDL
