MODEL 1
REMARK VINA RESULT:      -8.6      0.000      0.000
REMARK  7 active torsions:
REMARK  status: ('A' for Active; 'I' for Inactive)
REMARK    1  A    between atoms: C_2  and  O_3 
REMARK    2  A    between atoms: O_3  and  C_4 
REMARK       I    between atoms: C_4  and  N_5 
REMARK    3  A    between atoms: C_8  and  N_9 
REMARK       I    between atoms: N_9  and  C_10 
REMARK    4  A    between atoms: C_10  and  C_11 
REMARK    5  A    between atoms: C_13  and  N_14 
REMARK       I    between atoms: N_14  and  C_15 
REMARK    6  A    between atoms: C_15  and  C_16 
REMARK    7  A    between atoms: C_22  and  N_23 
ROOT
HETATM    1  C   UNL     1      22.428  47.874  48.784  1.00  0.00     0.034 A 
HETATM    2  C   UNL     1      21.937  46.600  48.485  1.00  0.00     0.049 A 
HETATM    3  C   UNL     1      20.584  46.403  48.143  1.00  0.00     0.062 A 
HETATM    4  C   UNL     1      19.671  47.484  48.130  1.00  0.00     0.057 A 
HETATM    5  C   UNL     1      20.197  48.753  48.442  1.00  0.00     0.033 A 
HETATM    6  C   UNL     1      21.545  48.950  48.761  1.00  0.00     0.019 A 
ENDROOT
BRANCH   1   7
HETATM    7  C   UNL     1      23.848  48.126  49.171  1.00  0.00     0.252 C 
HETATM    8  N   UNL     1      24.466  47.161  49.943  1.00  0.00    -0.352 N 
HETATM    9  H   UNL     1      24.031  46.253  50.014  1.00  0.00     0.163 HD
HETATM   10  O   UNL     1      24.419  49.143  48.792  1.00  0.00    -0.268 OA
BRANCH   8  11
HETATM   11  C   UNL     1      25.873  47.256  50.316  1.00  0.00     0.087 C 
HETATM   12  C   UNL     1      26.048  47.149  51.831  1.00  0.00     0.045 C 
HETATM   13  C   UNL     1      25.756  45.747  52.352  1.00  0.00     0.130 C 
HETATM   14  N   UNL     1      26.449  44.709  51.596  1.00  0.00    -0.328 N 
HETATM   15  C   UNL     1      26.687  43.458  52.156  1.00  0.00     0.362 C 
HETATM   16  C   UNL     1      26.396  44.788  50.140  1.00  0.00     0.130 C 
HETATM   17  O   UNL     1      27.040  42.475  51.512  1.00  0.00    -0.238 OA
HETATM   18  C   UNL     1      26.708  46.185  49.613  1.00  0.00     0.045 C 
BRANCH  15  19
HETATM   19  O   UNL     1      26.479  43.443  53.501  1.00  0.00    -0.304 OA
BRANCH  19  20
HETATM   20  C   UNL     1      27.569  42.976  54.307  1.00  0.00     0.176 C 
HETATM   21  C   UNL     1      28.635  44.052  54.408  1.00  0.00     0.034 C 
ENDBRANCH  19  20
ENDBRANCH  15  19
ENDBRANCH   8  11
ENDBRANCH   1   7
BRANCH   3  22
HETATM   22  N   UNL     1      20.154  45.094  47.821  1.00  0.00    -0.320 N 
HETATM   23  C   UNL     1      20.706  44.249  46.882  1.00  0.00     0.263 C 
HETATM   24  O   UNL     1      20.786  43.051  47.153  1.00  0.00    -0.267 OA
HETATM   25  H   UNL     1      19.682  44.600  48.561  1.00  0.00     0.169 HD
BRANCH  23  26
HETATM   26  C   UNL     1      21.049  44.824  45.586  1.00  0.00     0.072 A 
HETATM   27  S   UNL     1      22.662  44.735  45.015  1.00  0.00    -0.097 SA
HETATM   28  C   UNL     1      22.254  45.497  43.539  1.00  0.00     0.050 A 
HETATM   29  C   UNL     1      20.916  45.816  43.474  1.00  0.00     0.009 A 
HETATM   30  C   UNL     1      20.221  45.429  44.654  1.00  0.00     0.025 A 
ENDBRANCH  23  26
ENDBRANCH   3  22
BRANCH   4  31
HETATM   31  N   UNL     1      18.332  47.368  47.775  1.00  0.00    -0.378 N 
HETATM   32  C   UNL     1      17.256  47.409  48.769  1.00  0.00     0.134 C 
HETATM   33  C   UNL     1      16.158  48.416  48.360  1.00  0.00     0.054 C 
HETATM   34  C   UNL     1      15.638  48.071  46.967  1.00  0.00     0.020 C 
HETATM   35  C   UNL     1      16.722  49.825  48.410  1.00  0.00     0.020 A 
HETATM   36  C   UNL     1      16.803  48.216  45.995  1.00  0.00     0.023 C 
HETATM   37  C   UNL     1      17.251  49.681  45.974  1.00  0.00     0.138 C 
HETATM   38  C   UNL     1      17.942  47.249  46.367  1.00  0.00     0.129 C 
HETATM   39  N   UNL     1      17.313  50.367  47.266  1.00  0.00    -0.317 N 
HETATM   40  C   UNL     1      17.914  51.630  47.266  1.00  0.00     0.247 A 
HETATM   41  O   UNL     1      18.421  52.160  46.280  1.00  0.00    -0.268 OA
HETATM   42  C   UNL     1      17.922  52.357  48.562  1.00  0.00     0.074 A 
HETATM   43  C   UNL     1      17.331  51.822  49.635  1.00  0.00     0.007 A 
HETATM   44  C   UNL     1      16.711  50.528  49.557  1.00  0.00     0.026 A 
ENDBRANCH   4  31
TORSDOF 7
ENDMDL
MODEL 2
REMARK VINA RESULT:      -8.3      4.370     10.743
REMARK  7 active torsions:
REMARK  status: ('A' for Active; 'I' for Inactive)
REMARK    1  A    between atoms: C_2  and  O_3 
REMARK    2  A    between atoms: O_3  and  C_4 
REMARK       I    between atoms: C_4  and  N_5 
REMARK    3  A    between atoms: C_8  and  N_9 
REMARK       I    between atoms: N_9  and  C_10 
REMARK    4  A    between atoms: C_10  and  C_11 
REMARK    5  A    between atoms: C_13  and  N_14 
REMARK       I    between atoms: N_14  and  C_15 
REMARK    6  A    between atoms: C_15  and  C_16 
REMARK    7  A    between atoms: C_22  and  N_23 
ROOT
HETATM    1  C   UNL     1      22.840  42.621  47.986  1.00  0.00     0.034 A 
HETATM    2  C   UNL     1      23.257  42.866  49.296  1.00  0.00     0.049 A 
HETATM    3  C   UNL     1      24.420  42.264  49.816  1.00  0.00     0.062 A 
HETATM    4  C   UNL     1      25.181  41.360  49.036  1.00  0.00     0.057 A 
HETATM    5  C   UNL     1      24.730  41.131  47.722  1.00  0.00     0.033 A 
HETATM    6  C   UNL     1      23.586  41.746  47.202  1.00  0.00     0.019 A 
ENDROOT
BRANCH   1   7
HETATM    7  C   UNL     1      21.603  43.221  47.401  1.00  0.00     0.252 C 
HETATM    8  N   UNL     1      21.278  44.501  47.809  1.00  0.00    -0.352 N 
HETATM    9  H   UNL     1      21.982  45.047  48.283  1.00  0.00     0.163 HD
HETATM   10  O   UNL     1      20.937  42.591  46.587  1.00  0.00    -0.268 OA
BRANCH   8  11
HETATM   11  C   UNL     1      20.140  45.223  47.250  1.00  0.00     0.087 C 
HETATM   12  C   UNL     1      19.283  45.839  48.356  1.00  0.00     0.045 C 
HETATM   13  C   UNL     1      19.982  46.998  49.055  1.00  0.00     0.130 C 
HETATM   14  N   UNL     1      20.537  47.970  48.117  1.00  0.00    -0.328 N 
HETATM   15  C   UNL     1      20.797  49.277  48.516  1.00  0.00     0.362 C 
HETATM   16  C   UNL     1      21.301  47.453  46.987  1.00  0.00     0.130 C 
HETATM   17  O   UNL     1      21.474  50.069  47.868  1.00  0.00    -0.238 OA
HETATM   18  C   UNL     1      20.596  46.306  46.272  1.00  0.00     0.045 C 
BRANCH  15  19
HETATM   19  O   UNL     1      20.219  49.580  49.710  1.00  0.00    -0.304 OA
BRANCH  19  20
HETATM   20  C   UNL     1      20.329  50.943  50.142  1.00  0.00     0.176 C 
HETATM   21  C   UNL     1      19.037  51.684  49.852  1.00  0.00     0.034 C 
ENDBRANCH  19  20
ENDBRANCH  15  19
ENDBRANCH   8  11
ENDBRANCH   1   7
BRANCH   3  22
HETATM   22  N   UNL     1      24.808  42.575  51.141  1.00  0.00    -0.320 N 
HETATM   23  C   UNL     1      24.926  43.833  51.694  1.00  0.00     0.263 C 
HETATM   24  O   UNL     1      24.554  43.994  52.856  1.00  0.00    -0.267 OA
HETATM   25  H   UNL     1      24.613  41.863  51.826  1.00  0.00     0.169 HD
BRANCH  23  26
HETATM   26  C   UNL     1      25.592  44.854  50.894  1.00  0.00     0.072 A 
HETATM   27  S   UNL     1      24.847  46.380  50.669  1.00  0.00    -0.097 SA
HETATM   28  C   UNL     1      26.174  46.972  49.767  1.00  0.00     0.050 A 
HETATM   29  C   UNL     1      27.171  46.032  49.635  1.00  0.00     0.009 A 
HETATM   30  C   UNL     1      26.836  44.810  50.284  1.00  0.00     0.025 A 
ENDBRANCH  23  26
ENDBRANCH   3  22
BRANCH   4  31
HETATM   31  N   UNL     1      26.353  40.753  49.473  1.00  0.00    -0.378 N 
HETATM   32  C   UNL     1      26.349  39.472  50.184  1.00  0.00     0.134 C 
HETATM   33  C   UNL     1      27.349  38.479  49.550  1.00  0.00     0.054 C 
HETATM   34  C   UNL     1      28.740  39.107  49.510  1.00  0.00     0.020 C 
HETATM   35  C   UNL     1      26.870  38.099  48.160  1.00  0.00     0.020 A 
HETATM   36  C   UNL     1      28.660  40.338  48.616  1.00  0.00     0.023 C 
HETATM   37  C   UNL     1      28.309  39.895  47.192  1.00  0.00     0.138 C 
HETATM   38  C   UNL     1      27.658  41.358  49.187  1.00  0.00     0.129 C 
HETATM   39  N   UNL     1      27.288  38.854  47.062  1.00  0.00    -0.317 N 
HETATM   40  C   UNL     1      26.827  38.600  45.766  1.00  0.00     0.247 A 
HETATM   41  O   UNL     1      27.186  39.217  44.766  1.00  0.00    -0.268 OA
HETATM   42  C   UNL     1      25.838  37.501  45.621  1.00  0.00     0.074 A 
HETATM   43  C   UNL     1      25.471  36.783  46.687  1.00  0.00     0.007 A 
HETATM   44  C   UNL     1      26.004  37.084  47.988  1.00  0.00     0.026 A 
ENDBRANCH   4  31
TORSDOF 7
ENDMDL
MODEL 3
REMARK VINA RESULT:      -8.2      5.871     10.906
REMARK  7 active torsions:
REMARK  status: ('A' for Active; 'I' for Inactive)
REMARK    1  A    between atoms: C_2  and  O_3 
REMARK    2  A    between atoms: O_3  and  C_4 
REMARK       I    between atoms: C_4  and  N_5 
REMARK    3  A    between atoms: C_8  and  N_9 
REMARK       I    between atoms: N_9  and  C_10 
REMARK    4  A    between atoms: C_10  and  C_11 
REMARK    5  A    between atoms: C_13  and  N_14 
REMARK       I    between atoms: N_14  and  C_15 
REMARK    6  A    between atoms: C_15  and  C_16 
REMARK    7  A    between atoms: C_22  and  N_23 
ROOT
HETATM    1  C   UNL     1      14.887  52.717  46.746  1.00  0.00     0.034 A 
HETATM    2  C   UNL     1      14.779  51.940  45.590  1.00  0.00     0.049 A 
HETATM    3  C   UNL     1      15.522  50.752  45.439  1.00  0.00     0.062 A 
HETATM    4  C   UNL     1      16.431  50.330  46.439  1.00  0.00     0.057 A 
HETATM    5  C   UNL     1      16.520  51.140  47.588  1.00  0.00     0.033 A 
HETATM    6  C   UNL     1      15.766  52.308  47.745  1.00  0.00     0.019 A 
ENDROOT
BRANCH   1   7
HETATM    7  C   UNL     1      14.134  53.993  46.939  1.00  0.00     0.252 C 
HETATM    8  N   UNL     1      13.698  54.272  48.220  1.00  0.00    -0.352 N 
HETATM    9  H   UNL     1      14.091  53.746  48.986  1.00  0.00     0.163 HD
HETATM   10  O   UNL     1      13.942  54.745  45.990  1.00  0.00    -0.268 OA
BRANCH   8  11
HETATM   11  C   UNL     1      13.023  55.523  48.549  1.00  0.00     0.087 C 
HETATM   12  C   UNL     1      12.124  55.356  49.774  1.00  0.00     0.045 C 
HETATM   13  C   UNL     1      12.920  55.169  51.058  1.00  0.00     0.130 C 
HETATM   14  N   UNL     1      13.971  56.169  51.221  1.00  0.00    -0.328 N 
HETATM   15  C   UNL     1      14.491  56.458  52.479  1.00  0.00     0.362 C 
HETATM   16  C   UNL     1      14.822  56.443  50.069  1.00  0.00     0.130 C 
HETATM   17  O   UNL     1      15.522  57.097  52.663  1.00  0.00    -0.238 OA
HETATM   18  C   UNL     1      14.028  56.652  48.784  1.00  0.00     0.045 C 
BRANCH  15  19
HETATM   19  O   UNL     1      13.729  55.949  53.486  1.00  0.00    -0.304 OA
BRANCH  19  20
HETATM   20  C   UNL     1      13.234  56.891  54.446  1.00  0.00     0.176 C 
HETATM   21  C   UNL     1      12.145  57.743  53.821  1.00  0.00     0.034 C 
ENDBRANCH  19  20
ENDBRANCH  15  19
ENDBRANCH   8  11
ENDBRANCH   1   7
BRANCH   3  22
HETATM   22  N   UNL     1      15.347  49.991  44.259  1.00  0.00    -0.320 N 
HETATM   23  C   UNL     1      16.099  50.068  43.106  1.00  0.00     0.263 C 
HETATM   24  O   UNL     1      16.367  49.022  42.515  1.00  0.00    -0.267 OA
HETATM   25  H   UNL     1      14.919  49.088  44.387  1.00  0.00     0.169 HD
BRANCH  23  26
HETATM   26  C   UNL     1      16.424  51.400  42.608  1.00  0.00     0.072 A 
HETATM   27  S   UNL     1      15.233  52.315  41.784  1.00  0.00    -0.097 SA
HETATM   28  C   UNL     1      16.283  53.653  41.610  1.00  0.00     0.050 A 
HETATM   29  C   UNL     1      17.520  53.417  42.167  1.00  0.00     0.009 A 
HETATM   30  C   UNL     1      17.601  52.117  42.742  1.00  0.00     0.025 A 
ENDBRANCH  23  26
ENDBRANCH   3  22
BRANCH   4  31
HETATM   31  N   UNL     1      17.174  49.157  46.370  1.00  0.00    -0.378 N 
HETATM   32  C   UNL     1      18.481  49.099  45.712  1.00  0.00     0.134 C 
HETATM   33  C   UNL     1      19.537  48.437  46.625  1.00  0.00     0.054 C 
HETATM   34  C   UNL     1      19.051  47.055  47.053  1.00  0.00     0.020 C 
HETATM   35  C   UNL     1      19.798  49.331  47.824  1.00  0.00     0.020 A 
HETATM   36  C   UNL     1      17.775  47.250  47.863  1.00  0.00     0.023 C 
HETATM   37  C   UNL     1      18.110  48.039  49.134  1.00  0.00     0.138 C 
HETATM   38  C   UNL     1      16.689  47.929  47.009  1.00  0.00     0.129 C 
HETATM   39  N   UNL     1      19.036  49.163  48.982  1.00  0.00    -0.317 N 
HETATM   40  C   UNL     1      19.179  49.999  50.095  1.00  0.00     0.247 A 
HETATM   41  O   UNL     1      18.552  49.874  51.145  1.00  0.00    -0.268 OA
HETATM   42  C   UNL     1      20.164  51.103  49.968  1.00  0.00     0.074 A 
HETATM   43  C   UNL     1      20.893  51.228  48.855  1.00  0.00     0.007 A 
HETATM   44  C   UNL     1      20.712  50.317  47.758  1.00  0.00     0.026 A 
ENDBRANCH   4  31
TORSDOF 7
ENDMDL
MODEL 4
REMARK VINA RESULT:      -8.0      2.436      4.619
REMARK  7 active torsions:
REMARK  status: ('A' for Active; 'I' for Inactive)
REMARK    1  A    between atoms: C_2  and  O_3 
REMARK    2  A    between atoms: O_3  and  C_4 
REMARK       I    between atoms: C_4  and  N_5 
REMARK    3  A    between atoms: C_8  and  N_9 
REMARK       I    between atoms: N_9  and  C_10 
REMARK    4  A    between atoms: C_10  and  C_11 
REMARK    5  A    between atoms: C_13  and  N_14 
REMARK       I    between atoms: N_14  and  C_15 
REMARK    6  A    between atoms: C_15  and  C_16 
REMARK    7  A    between atoms: C_22  and  N_23 
ROOT
HETATM    1  C   UNL     1      20.281  46.103  47.804  1.00  0.00     0.034 A 
HETATM    2  C   UNL     1      20.529  47.026  48.824  1.00  0.00     0.049 A 
HETATM    3  C   UNL     1      19.850  48.259  48.871  1.00  0.00     0.062 A 
HETATM    4  C   UNL     1      18.922  48.619  47.864  1.00  0.00     0.057 A 
HETATM    5  C   UNL     1      18.701  47.669  46.848  1.00  0.00     0.033 A 
HETATM    6  C   UNL     1      19.361  46.435  46.815  1.00  0.00     0.019 A 
ENDROOT
BRANCH   1   7
HETATM    7  C   UNL     1      20.992  44.794  47.704  1.00  0.00     0.252 C 
HETATM    8  N   UNL     1      22.288  44.749  48.182  1.00  0.00    -0.352 N 
HETATM    9  H   UNL     1      22.609  45.503  48.770  1.00  0.00     0.163 HD
HETATM   10  O   UNL     1      20.422  43.817  47.231  1.00  0.00    -0.268 OA
BRANCH   8  11
HETATM   11  C   UNL     1      23.057  43.509  48.212  1.00  0.00     0.087 C 
HETATM   12  C   UNL     1      24.555  43.789  48.094  1.00  0.00     0.045 C 
HETATM   13  C   UNL     1      25.122  44.452  49.342  1.00  0.00     0.130 C 
HETATM   14  N   UNL     1      24.738  43.764  50.571  1.00  0.00    -0.328 N 
HETATM   15  C   UNL     1      25.485  43.912  51.735  1.00  0.00     0.362 C 
HETATM   16  C   UNL     1      23.336  43.390  50.722  1.00  0.00     0.130 C 
HETATM   17  O   UNL     1      25.097  43.567  52.847  1.00  0.00    -0.238 OA
HETATM   18  C   UNL     1      22.769  42.708  49.482  1.00  0.00     0.045 C 
BRANCH  15  19
HETATM   19  O   UNL     1      26.696  44.489  51.505  1.00  0.00    -0.304 OA
BRANCH  19  20
HETATM   20  C   UNL     1      27.848  43.699  51.828  1.00  0.00     0.176 C 
HETATM   21  C   UNL     1      28.412  44.132  53.169  1.00  0.00     0.034 C 
ENDBRANCH  19  20
ENDBRANCH  15  19
ENDBRANCH   8  11
ENDBRANCH   1   7
BRANCH   3  22
HETATM   22  N   UNL     1      20.122  49.139  49.946  1.00  0.00    -0.320 N 
HETATM   23  C   UNL     1      20.905  50.274  49.908  1.00  0.00     0.263 C 
HETATM   24  O   UNL     1      20.530  51.261  50.541  1.00  0.00    -0.267 OA
HETATM   25  H   UNL     1      19.416  49.175  50.663  1.00  0.00     0.169 HD
BRANCH  23  26
HETATM   26  C   UNL     1      22.183  50.180  49.212  1.00  0.00     0.072 A 
HETATM   27  S   UNL     1      23.304  48.961  49.650  1.00  0.00    -0.097 SA
HETATM   28  C   UNL     1      24.405  49.439  48.431  1.00  0.00     0.050 A 
HETATM   29  C   UNL     1      23.935  50.507  47.699  1.00  0.00     0.009 A 
HETATM   30  C   UNL     1      22.655  50.934  48.150  1.00  0.00     0.025 A 
ENDBRANCH  23  26
ENDBRANCH   3  22
BRANCH   4  31
HETATM   31  N   UNL     1      18.196  49.804  47.862  1.00  0.00    -0.378 N 
HETATM   32  C   UNL     1      18.710  51.032  47.251  1.00  0.00     0.134 C 
HETATM   33  C   UNL     1      17.669  51.657  46.295  1.00  0.00     0.054 C 
HETATM   34  C   UNL     1      16.361  51.895  47.045  1.00  0.00     0.020 C 
HETATM   35  C   UNL     1      17.466  50.740  45.101  1.00  0.00     0.020 A 
HETATM   36  C   UNL     1      15.839  50.536  47.496  1.00  0.00     0.023 C 
HETATM   37  C   UNL     1      15.517  49.693  46.257  1.00  0.00     0.138 C 
HETATM   38  C   UNL     1      16.847  49.853  48.437  1.00  0.00     0.129 C 
HETATM   39  N   UNL     1      16.477  49.756  45.153  1.00  0.00    -0.317 N 
HETATM   40  C   UNL     1      16.287  48.835  44.117  1.00  0.00     0.247 A 
HETATM   41  O   UNL     1      15.415  47.971  44.105  1.00  0.00    -0.268 OA
HETATM   42  C   UNL     1      17.220  48.937  42.966  1.00  0.00     0.074 A 
HETATM   43  C   UNL     1      18.146  49.902  42.934  1.00  0.00     0.007 A 
HETATM   44  C   UNL     1      18.268  50.830  44.024  1.00  0.00     0.026 A 
ENDBRANCH   4  31
TORSDOF 7
ENDMDL
MODEL 5
REMARK VINA RESULT:      -7.9     14.621     19.152
REMARK  7 active torsions:
REMARK  status: ('A' for Active; 'I' for Inactive)
REMARK    1  A    between atoms: C_2  and  O_3 
REMARK    2  A    between atoms: O_3  and  C_4 
REMARK       I    between atoms: C_4  and  N_5 
REMARK    3  A    between atoms: C_8  and  N_9 
REMARK       I    between atoms: N_9  and  C_10 
REMARK    4  A    between atoms: C_10  and  C_11 
REMARK    5  A    between atoms: C_13  and  N_14 
REMARK       I    between atoms: N_14  and  C_15 
REMARK    6  A    between atoms: C_15  and  C_16 
REMARK    7  A    between atoms: C_22  and  N_23 
ROOT
HETATM    1  C   UNL     1      35.402  51.680  43.275  1.00  0.00     0.034 A 
HETATM    2  C   UNL     1      36.060  51.196  42.141  1.00  0.00     0.049 A 
HETATM    3  C   UNL     1      37.448  51.369  41.975  1.00  0.00     0.062 A 
HETATM    4  C   UNL     1      38.214  52.073  42.936  1.00  0.00     0.057 A 
HETATM    5  C   UNL     1      37.519  52.552  44.063  1.00  0.00     0.033 A 
HETATM    6  C   UNL     1      36.144  52.362  44.235  1.00  0.00     0.019 A 
ENDROOT
BRANCH   1   7
HETATM    7  C   UNL     1      33.930  51.537  43.482  1.00  0.00     0.252 C 
HETATM    8  N   UNL     1      33.298  50.521  42.791  1.00  0.00    -0.352 N 
HETATM    9  H   UNL     1      33.866  49.798  42.376  1.00  0.00     0.163 HD
HETATM   10  O   UNL     1      33.338  52.290  44.248  1.00  0.00    -0.268 OA
BRANCH   8  11
HETATM   11  C   UNL     1      31.879  50.232  42.971  1.00  0.00     0.087 C 
HETATM   12  C   UNL     1      31.016  51.167  42.124  1.00  0.00     0.045 C 
HETATM   13  C   UNL     1      31.132  50.875  40.634  1.00  0.00     0.130 C 
HETATM   14  N   UNL     1      30.962  49.459  40.322  1.00  0.00    -0.328 N 
HETATM   15  C   UNL     1      30.584  49.051  39.046  1.00  0.00     0.362 C 
HETATM   16  C   UNL     1      31.693  48.498  41.140  1.00  0.00     0.130 C 
HETATM   17  O   UNL     1      30.655  47.892  38.649  1.00  0.00    -0.238 OA
HETATM   18  C   UNL     1      31.563  48.774  42.634  1.00  0.00     0.045 C 
BRANCH  15  19
HETATM   19  O   UNL     1      30.129  50.083  38.284  1.00  0.00    -0.304 OA
BRANCH  19  20
HETATM   20  C   UNL     1      28.715  50.314  38.308  1.00  0.00     0.176 C 
HETATM   21  C   UNL     1      28.435  51.805  38.361  1.00  0.00     0.034 C 
ENDBRANCH  19  20
ENDBRANCH  15  19
ENDBRANCH   8  11
ENDBRANCH   1   7
BRANCH   3  22
HETATM   22  N   UNL     1      38.063  50.830  40.820  1.00  0.00    -0.320 N 
HETATM   23  C   UNL     1      38.664  51.534  39.798  1.00  0.00     0.263 C 
HETATM   24  O   UNL     1      39.698  51.078  39.308  1.00  0.00    -0.267 OA
HETATM   25  H   UNL     1      38.430  49.898  40.922  1.00  0.00     0.169 HD
BRANCH  23  26
HETATM   26  C   UNL     1      37.964  52.709  39.295  1.00  0.00     0.072 A 
HETATM   27  S   UNL     1      38.829  54.160  39.012  1.00  0.00    -0.097 SA
HETATM   28  C   UNL     1      37.437  54.956  38.417  1.00  0.00     0.050 A 
HETATM   29  C   UNL     1      36.328  54.139  38.431  1.00  0.00     0.009 A 
HETATM   30  C   UNL     1      36.632  52.844  38.937  1.00  0.00     0.025 A 
ENDBRANCH  23  26
ENDBRANCH   3  22
BRANCH   4  31
HETATM   31  N   UNL     1      39.589  52.256  42.852  1.00  0.00    -0.378 N 
HETATM   32  C   UNL     1      40.181  53.487  42.321  1.00  0.00     0.134 C 
HETATM   33  C   UNL     1      41.254  54.048  43.280  1.00  0.00     0.054 C 
HETATM   34  C   UNL     1      42.308  52.979  43.554  1.00  0.00     0.020 C 
HETATM   35  C   UNL     1      40.590  54.515  44.563  1.00  0.00     0.020 A 
HETATM   36  C   UNL     1      41.609  51.816  44.249  1.00  0.00     0.023 C 
HETATM   37  C   UNL     1      41.073  52.297  45.602  1.00  0.00     0.138 C 
HETATM   38  C   UNL     1      40.510  51.227  43.347  1.00  0.00     0.129 C 
HETATM   39  N   UNL     1      40.447  53.620  45.626  1.00  0.00    -0.317 N 
HETATM   40  C   UNL     1      39.782  53.966  46.807  1.00  0.00     0.247 A 
HETATM   41  O   UNL     1      39.655  53.224  47.778  1.00  0.00    -0.268 OA
HETATM   42  C   UNL     1      39.200  55.332  46.859  1.00  0.00     0.074 A 
HETATM   43  C   UNL     1      39.368  56.174  45.835  1.00  0.00     0.007 A 
HETATM   44  C   UNL     1      40.086  55.759  44.660  1.00  0.00     0.026 A 
ENDBRANCH   4  31
TORSDOF 7
ENDMDL
MODEL 6
REMARK VINA RESULT:      -7.8      2.102      2.682
REMARK  7 active torsions:
REMARK  status: ('A' for Active; 'I' for Inactive)
REMARK    1  A    between atoms: C_2  and  O_3 
REMARK    2  A    between atoms: O_3  and  C_4 
REMARK       I    between atoms: C_4  and  N_5 
REMARK    3  A    between atoms: C_8  and  N_9 
REMARK       I    between atoms: N_9  and  C_10 
REMARK    4  A    between atoms: C_10  and  C_11 
REMARK    5  A    between atoms: C_13  and  N_14 
REMARK       I    between atoms: N_14  and  C_15 
REMARK    6  A    between atoms: C_15  and  C_16 
REMARK    7  A    between atoms: C_22  and  N_23 
ROOT
HETATM    1  C   UNL     1      22.399  44.768  47.947  1.00  0.00     0.034 A 
HETATM    2  C   UNL     1      21.526  43.981  47.192  1.00  0.00     0.049 A 
HETATM    3  C   UNL     1      20.222  44.422  46.892  1.00  0.00     0.062 A 
HETATM    4  C   UNL     1      19.742  45.662  47.379  1.00  0.00     0.057 A 
HETATM    5  C   UNL     1      20.646  46.428  48.141  1.00  0.00     0.033 A 
HETATM    6  C   UNL     1      21.947  45.997  48.421  1.00  0.00     0.019 A 
ENDROOT
BRANCH   1   7
HETATM    7  C   UNL     1      23.781  44.332  48.306  1.00  0.00     0.252 C 
HETATM    8  N   UNL     1      24.465  45.112  49.218  1.00  0.00    -0.352 N 
HETATM    9  H   UNL     1      23.944  45.783  49.762  1.00  0.00     0.163 HD
HETATM   10  O   UNL     1      24.255  43.315  47.811  1.00  0.00    -0.268 OA
BRANCH   8  11
HETATM   11  C   UNL     1      25.790  44.745  49.707  1.00  0.00     0.087 C 
HETATM   12  C   UNL     1      26.601  45.986  50.080  1.00  0.00     0.045 C 
HETATM   13  C   UNL     1      26.067  46.674  51.330  1.00  0.00     0.130 C 
HETATM   14  N   UNL     1      25.851  45.747  52.436  1.00  0.00    -0.328 N 
HETATM   15  C   UNL     1      25.813  46.201  53.751  1.00  0.00     0.362 C 
HETATM   16  C   UNL     1      25.153  44.500  52.142  1.00  0.00     0.130 C 
HETATM   17  O   UNL     1      25.403  45.533  54.695  1.00  0.00    -0.238 OA
HETATM   18  C   UNL     1      25.698  43.797  50.903  1.00  0.00     0.045 C 
BRANCH  15  19
HETATM   19  O   UNL     1      26.278  47.474  53.873  1.00  0.00    -0.304 OA
BRANCH  19  20
HETATM   20  C   UNL     1      27.064  47.754  55.039  1.00  0.00     0.176 C 
HETATM   21  C   UNL     1      28.371  46.984  54.979  1.00  0.00     0.034 C 
ENDBRANCH  19  20
ENDBRANCH  15  19
ENDBRANCH   8  11
ENDBRANCH   1   7
BRANCH   3  22
HETATM   22  N   UNL     1      19.394  43.593  46.097  1.00  0.00    -0.320 N 
HETATM   23  C   UNL     1      19.683  43.093  44.846  1.00  0.00     0.263 C 
HETATM   24  O   UNL     1      19.339  41.940  44.587  1.00  0.00    -0.267 OA
HETATM   25  H   UNL     1      18.742  43.020  46.607  1.00  0.00     0.169 HD
BRANCH  23  26
HETATM   26  C   UNL     1      20.274  44.012  43.879  1.00  0.00     0.072 A 
HETATM   27  S   UNL     1      21.917  43.832  43.428  1.00  0.00    -0.097 SA
HETATM   28  C   UNL     1      21.822  45.125  42.312  1.00  0.00     0.050 A 
HETATM   29  C   UNL     1      20.567  45.688  42.277  1.00  0.00     0.009 A 
HETATM   30  C   UNL     1      19.674  45.047  43.181  1.00  0.00     0.025 A 
ENDBRANCH  23  26
ENDBRANCH   3  22
BRANCH   4  31
HETATM   31  N   UNL     1      18.480  46.173  47.099  1.00  0.00    -0.378 N 
HETATM   32  C   UNL     1      17.383  46.116  48.068  1.00  0.00     0.134 C 
HETATM   33  C   UNL     1      16.718  47.500  48.239  1.00  0.00     0.054 C 
HETATM   34  C   UNL     1      16.255  48.019  46.881  1.00  0.00     0.020 C 
HETATM   35  C   UNL     1      17.701  48.454  48.893  1.00  0.00     0.020 A 
HETATM   36  C   UNL     1      17.494  48.190  46.010  1.00  0.00     0.023 C 
HETATM   37  C   UNL     1      18.394  49.262  46.635  1.00  0.00     0.138 C 
HETATM   38  C   UNL     1      18.214  46.843  45.822  1.00  0.00     0.129 C 
HETATM   39  N   UNL     1      18.547  49.223  48.090  1.00  0.00    -0.317 N 
HETATM   40  C   UNL     1      19.522  50.068  48.630  1.00  0.00     0.247 A 
HETATM   41  O   UNL     1      20.269  50.783  47.967  1.00  0.00    -0.268 OA
HETATM   42  C   UNL     1      19.637  50.079  50.112  1.00  0.00     0.074 A 
HETATM   43  C   UNL     1      18.802  49.347  50.856  1.00  0.00     0.007 A 
HETATM   44  C   UNL     1      17.806  48.520  50.233  1.00  0.00     0.026 A 
ENDBRANCH   4  31
TORSDOF 7
ENDMDL
MODEL 7
REMARK VINA RESULT:      -7.7      5.321      9.836
REMARK  7 active torsions:
REMARK  status: ('A' for Active; 'I' for Inactive)
REMARK    1  A    between atoms: C_2  and  O_3 
REMARK    2  A    between atoms: O_3  and  C_4 
REMARK       I    between atoms: C_4  and  N_5 
REMARK    3  A    between atoms: C_8  and  N_9 
REMARK       I    between atoms: N_9  and  C_10 
REMARK    4  A    between atoms: C_10  and  C_11 
REMARK    5  A    between atoms: C_13  and  N_14 
REMARK       I    between atoms: N_14  and  C_15 
REMARK    6  A    between atoms: C_15  and  C_16 
REMARK    7  A    between atoms: C_22  and  N_23 
ROOT
HETATM    1  C   UNL     1      18.013  51.244  43.117  1.00  0.00     0.034 A 
HETATM    2  C   UNL     1      17.157  52.171  43.717  1.00  0.00     0.049 A 
HETATM    3  C   UNL     1      17.090  52.300  45.119  1.00  0.00     0.062 A 
HETATM    4  C   UNL     1      17.862  51.466  45.964  1.00  0.00     0.057 A 
HETATM    5  C   UNL     1      18.709  50.539  45.327  1.00  0.00     0.033 A 
HETATM    6  C   UNL     1      18.789  50.427  43.934  1.00  0.00     0.019 A 
ENDROOT
BRANCH   1   7
HETATM    7  C   UNL     1      18.100  51.059  41.638  1.00  0.00     0.252 C 
HETATM    8  N   UNL     1      19.250  50.470  41.149  1.00  0.00    -0.352 N 
HETATM    9  H   UNL     1      19.857  49.991  41.798  1.00  0.00     0.163 HD
HETATM   10  O   UNL     1      17.172  51.409  40.916  1.00  0.00    -0.268 OA
BRANCH   8  11
HETATM   11  C   UNL     1      19.418  50.164  39.732  1.00  0.00     0.087 C 
HETATM   12  C   UNL     1      20.485  51.059  39.100  1.00  0.00     0.045 C 
HETATM   13  C   UNL     1      21.888  50.721  39.586  1.00  0.00     0.130 C 
HETATM   14  N   UNL     1      22.184  49.294  39.509  1.00  0.00    -0.328 N 
HETATM   15  C   UNL     1      23.498  48.840  39.463  1.00  0.00     0.362 C 
HETATM   16  C   UNL     1      21.177  48.370  40.020  1.00  0.00     0.130 C 
HETATM   17  O   UNL     1      23.825  47.670  39.639  1.00  0.00    -0.238 OA
HETATM   18  C   UNL     1      19.773  48.692  39.520  1.00  0.00     0.045 C 
BRANCH  15  19
HETATM   19  O   UNL     1      24.385  49.840  39.206  1.00  0.00    -0.304 OA
BRANCH  19  20
HETATM   20  C   UNL     1      25.773  49.482  39.239  1.00  0.00     0.176 C 
HETATM   21  C   UNL     1      26.432  49.845  37.921  1.00  0.00     0.034 C 
ENDBRANCH  19  20
ENDBRANCH  15  19
ENDBRANCH   8  11
ENDBRANCH   1   7
BRANCH   3  22
HETATM   22  N   UNL     1      16.226  53.278  45.667  1.00  0.00    -0.320 N 
HETATM   23  C   UNL     1      14.918  53.096  46.064  1.00  0.00     0.263 C 
HETATM   24  O   UNL     1      14.537  53.666  47.087  1.00  0.00    -0.267 OA
HETATM   25  H   UNL     1      16.682  54.032  46.154  1.00  0.00     0.169 HD
BRANCH  23  26
HETATM   26  C   UNL     1      14.050  52.334  45.175  1.00  0.00     0.072 A 
HETATM   27  S   UNL     1      13.119  53.147  43.989  1.00  0.00    -0.097 SA
HETATM   28  C   UNL     1      12.494  51.679  43.374  1.00  0.00     0.050 A 
HETATM   29  C   UNL     1      12.979  50.584  44.053  1.00  0.00     0.009 A 
HETATM   30  C   UNL     1      13.876  50.961  45.092  1.00  0.00     0.025 A 
ENDBRANCH  23  26
ENDBRANCH   3  22
BRANCH   4  31
HETATM   31  N   UNL     1      17.868  51.558  47.351  1.00  0.00    -0.378 N 
HETATM   32  C   UNL     1      17.056  50.676  48.194  1.00  0.00     0.134 C 
HETATM   33  C   UNL     1      17.908  50.035  49.312  1.00  0.00     0.054 C 
HETATM   34  C   UNL     1      18.597  51.128  50.125  1.00  0.00     0.020 C 
HETATM   35  C   UNL     1      18.916  49.082  48.695  1.00  0.00     0.020 A 
HETATM   36  C   UNL     1      19.532  51.876  49.183  1.00  0.00     0.023 C 
HETATM   37  C   UNL     1      20.616  50.910  48.691  1.00  0.00     0.138 C 
HETATM   38  C   UNL     1      18.741  52.520  48.031  1.00  0.00     0.129 C 
HETATM   39  N   UNL     1      20.177  49.559  48.334  1.00  0.00    -0.317 N 
HETATM   40  C   UNL     1      21.125  48.751  47.697  1.00  0.00     0.247 A 
HETATM   41  O   UNL     1      22.256  49.117  47.386  1.00  0.00    -0.268 OA
HETATM   42  C   UNL     1      20.706  47.359  47.390  1.00  0.00     0.074 A 
HETATM   43  C   UNL     1      19.498  46.924  47.764  1.00  0.00     0.007 A 
HETATM   44  C   UNL     1      18.583  47.803  48.439  1.00  0.00     0.026 A 
ENDBRANCH   4  31
TORSDOF 7
ENDMDL
MODEL 8
REMARK VINA RESULT:      -7.7      9.364     12.120
REMARK  7 active torsions:
REMARK  status: ('A' for Active; 'I' for Inactive)
REMARK    1  A    between atoms: C_2  and  O_3 
REMARK    2  A    between atoms: O_3  and  C_4 
REMARK       I    between atoms: C_4  and  N_5 
REMARK    3  A    between atoms: C_8  and  N_9 
REMARK       I    between atoms: N_9  and  C_10 
REMARK    4  A    between atoms: C_10  and  C_11 
REMARK    5  A    between atoms: C_13  and  N_14 
REMARK       I    between atoms: N_14  and  C_15 
REMARK    6  A    between atoms: C_15  and  C_16 
REMARK    7  A    between atoms: C_22  and  N_23 
ROOT
HETATM    1  C   UNL     1      28.350  46.181  39.875  1.00  0.00     0.034 A 
HETATM    2  C   UNL     1      27.085  46.732  40.089  1.00  0.00     0.049 A 
HETATM    3  C   UNL     1      26.904  48.126  40.187  1.00  0.00     0.062 A 
HETATM    4  C   UNL     1      28.008  49.010  40.111  1.00  0.00     0.057 A 
HETATM    5  C   UNL     1      29.269  48.421  39.901  1.00  0.00     0.033 A 
HETATM    6  C   UNL     1      29.443  47.038  39.782  1.00  0.00     0.019 A 
ENDROOT
BRANCH   1   7
HETATM    7  C   UNL     1      28.590  44.709  39.784  1.00  0.00     0.252 C 
HETATM    8  N   UNL     1      27.693  43.889  40.442  1.00  0.00    -0.352 N 
HETATM    9  H   UNL     1      26.815  44.284  40.746  1.00  0.00     0.163 HD
HETATM   10  O   UNL     1      29.537  44.277  39.136  1.00  0.00    -0.268 OA
BRANCH   8  11
HETATM   11  C   UNL     1      27.775  42.435  40.361  1.00  0.00     0.087 C 
HETATM   12  C   UNL     1      28.242  41.837  41.688  1.00  0.00     0.045 C 
HETATM   13  C   UNL     1      27.189  41.957  42.782  1.00  0.00     0.130 C 
HETATM   14  N   UNL     1      25.872  41.497  42.350  1.00  0.00    -0.328 N 
HETATM   15  C   UNL     1      24.916  41.100  43.279  1.00  0.00     0.362 C 
HETATM   16  C   UNL     1      25.390  41.962  41.054  1.00  0.00     0.130 C 
HETATM   17  O   UNL     1      23.729  40.935  43.013  1.00  0.00    -0.238 OA
HETATM   18  C   UNL     1      26.434  41.825  39.952  1.00  0.00     0.045 C 
BRANCH  15  19
HETATM   19  O   UNL     1      25.442  40.917  44.521  1.00  0.00    -0.304 OA
BRANCH  19  20
HETATM   20  C   UNL     1      25.440  39.573  45.020  1.00  0.00     0.176 C 
HETATM   21  C   UNL     1      26.866  39.100  45.239  1.00  0.00     0.034 C 
ENDBRANCH  19  20
ENDBRANCH  15  19
ENDBRANCH   8  11
ENDBRANCH   1   7
BRANCH   3  22
HETATM   22  N   UNL     1      25.594  48.626  40.374  1.00  0.00    -0.320 N 
HETATM   23  C   UNL     1      24.440  48.166  39.776  1.00  0.00     0.263 C 
HETATM   24  O   UNL     1      23.414  48.116  40.454  1.00  0.00    -0.267 OA
HETATM   25  H   UNL     1      25.424  49.070  41.262  1.00  0.00     0.169 HD
BRANCH  23  26
HETATM   26  C   UNL     1      24.496  47.882  38.347  1.00  0.00     0.072 A 
HETATM   27  S   UNL     1      23.894  46.393  37.750  1.00  0.00    -0.097 SA
HETATM   28  C   UNL     1      24.226  46.829  36.130  1.00  0.00     0.050 A 
HETATM   29  C   UNL     1      24.786  48.084  36.036  1.00  0.00     0.009 A 
HETATM   30  C   UNL     1      24.942  48.691  37.314  1.00  0.00     0.025 A 
ENDBRANCH  23  26
ENDBRANCH   3  22
BRANCH   4  31
HETATM   31  N   UNL     1      27.901  50.395  40.171  1.00  0.00    -0.378 N 
HETATM   32  C   UNL     1      28.043  51.134  41.428  1.00  0.00     0.134 C 
HETATM   33  C   UNL     1      29.046  52.300  41.278  1.00  0.00     0.054 C 
HETATM   34  C   UNL     1      28.614  53.205  40.128  1.00  0.00     0.020 C 
HETATM   35  C   UNL     1      30.439  51.740  41.053  1.00  0.00     0.020 A 
HETATM   36  C   UNL     1      28.656  52.373  38.852  1.00  0.00     0.023 C 
HETATM   37  C   UNL     1      30.104  51.945  38.587  1.00  0.00     0.138 C 
HETATM   38  C   UNL     1      27.690  51.180  38.950  1.00  0.00     0.129 C 
HETATM   39  N   UNL     1      30.881  51.506  39.749  1.00  0.00    -0.317 N 
HETATM   40  C   UNL     1      32.124  50.927  39.475  1.00  0.00     0.247 A 
HETATM   41  O   UNL     1      32.567  50.728  38.347  1.00  0.00    -0.268 OA
HETATM   42  C   UNL     1      32.943  50.539  40.653  1.00  0.00     0.074 A 
HETATM   43  C   UNL     1      32.504  50.792  41.890  1.00  0.00     0.007 A 
HETATM   44  C   UNL     1      31.224  51.414  42.096  1.00  0.00     0.026 A 
ENDBRANCH   4  31
TORSDOF 7
ENDMDL
MODEL 9
REMARK VINA RESULT:      -7.6     23.024     28.651
REMARK  7 active torsions:
REMARK  status: ('A' for Active; 'I' for Inactive)
REMARK    1  A    between atoms: C_2  and  O_3 
REMARK    2  A    between atoms: O_3  and  C_4 
REMARK       I    between atoms: C_4  and  N_5 
REMARK    3  A    between atoms: C_8  and  N_9 
REMARK       I    between atoms: N_9  and  C_10 
REMARK    4  A    between atoms: C_10  and  C_11 
REMARK    5  A    between atoms: C_13  and  N_14 
REMARK       I    between atoms: N_14  and  C_15 
REMARK    6  A    between atoms: C_15  and  C_16 
REMARK    7  A    between atoms: C_22  and  N_23 
ROOT
HETATM    1  C   UNL     1      40.257  39.728  64.863  1.00  0.00     0.034 A 
HETATM    2  C   UNL     1      41.211  40.285  65.718  1.00  0.00     0.049 A 
HETATM    3  C   UNL     1      41.845  39.507  66.708  1.00  0.00     0.062 A 
HETATM    4  C   UNL     1      41.505  38.145  66.891  1.00  0.00     0.057 A 
HETATM    5  C   UNL     1      40.537  37.617  66.015  1.00  0.00     0.033 A 
HETATM    6  C   UNL     1      39.924  38.386  65.020  1.00  0.00     0.019 A 
ENDROOT
BRANCH   1   7
HETATM    7  C   UNL     1      39.547  40.520  63.814  1.00  0.00     0.252 C 
HETATM    8  N   UNL     1      39.089  41.771  64.180  1.00  0.00    -0.352 N 
HETATM    9  H   UNL     1      39.442  42.182  65.032  1.00  0.00     0.163 HD
HETATM   10  O   UNL     1      39.406  40.063  62.685  1.00  0.00    -0.268 OA
BRANCH   8  11
HETATM   11  C   UNL     1      38.451  42.670  63.224  1.00  0.00     0.087 C 
HETATM   12  C   UNL     1      37.300  43.437  63.874  1.00  0.00     0.045 C 
HETATM   13  C   UNL     1      37.786  44.469  64.884  1.00  0.00     0.130 C 
HETATM   14  N   UNL     1      38.848  45.320  64.354  1.00  0.00    -0.328 N 
HETATM   15  C   UNL     1      39.105  46.569  64.911  1.00  0.00     0.362 C 
HETATM   16  C   UNL     1      39.944  44.666  63.647  1.00  0.00     0.130 C 
HETATM   17  O   UNL     1      40.117  47.225  64.682  1.00  0.00    -0.238 OA
HETATM   18  C   UNL     1      39.461  43.647  62.621  1.00  0.00     0.045 C 
BRANCH  15  19
HETATM   19  O   UNL     1      38.110  46.981  65.743  1.00  0.00    -0.304 OA
BRANCH  19  20
HETATM   20  C   UNL     1      37.571  48.285  65.491  1.00  0.00     0.176 C 
HETATM   21  C   UNL     1      36.823  48.290  64.171  1.00  0.00     0.034 C 
ENDBRANCH  19  20
ENDBRANCH  15  19
ENDBRANCH   8  11
ENDBRANCH   1   7
BRANCH   3  22
HETATM   22  N   UNL     1      42.824  40.121  67.524  1.00  0.00    -0.320 N 
HETATM   23  C   UNL     1      44.076  40.548  67.135  1.00  0.00     0.263 C 
HETATM   24  O   UNL     1      44.501  41.605  67.603  1.00  0.00    -0.267 OA
HETATM   25  H   UNL     1      42.469  40.625  68.320  1.00  0.00     0.169 HD
BRANCH  23  26
HETATM   26  C   UNL     1      44.852  39.654  66.284  1.00  0.00     0.072 A 
HETATM   27  S   UNL     1      46.161  38.769  66.947  1.00  0.00    -0.097 SA
HETATM   28  C   UNL     1      46.470  37.981  65.461  1.00  0.00     0.050 A 
HETATM   29  C   UNL     1      45.598  38.378  64.473  1.00  0.00     0.009 A 
HETATM   30  C   UNL     1      44.666  39.343  64.946  1.00  0.00     0.025 A 
ENDBRANCH  23  26
ENDBRANCH   3  22
BRANCH   4  31
HETATM   31  N   UNL     1      42.109  37.312  67.825  1.00  0.00    -0.378 N 
HETATM   32  C   UNL     1      41.595  37.170  69.190  1.00  0.00     0.134 C 
HETATM   33  C   UNL     1      41.432  35.682  69.572  1.00  0.00     0.054 C 
HETATM   34  C   UNL     1      42.759  34.953  69.382  1.00  0.00     0.020 C 
HETATM   35  C   UNL     1      40.332  35.062  68.728  1.00  0.00     0.020 A 
HETATM   36  C   UNL     1      43.114  35.029  67.902  1.00  0.00     0.023 C 
HETATM   37  C   UNL     1      42.050  34.273  67.098  1.00  0.00     0.138 C 
HETATM   38  C   UNL     1      43.269  36.494  67.456  1.00  0.00     0.129 C 
HETATM   39  N   UNL     1      40.658  34.468  67.507  1.00  0.00    -0.317 N 
HETATM   40  C   UNL     1      39.685  33.943  66.650  1.00  0.00     0.247 A 
HETATM   41  O   UNL     1      39.924  33.387  65.581  1.00  0.00    -0.268 OA
HETATM   42  C   UNL     1      38.273  34.083  67.092  1.00  0.00     0.074 A 
HETATM   43  C   UNL     1      37.991  34.640  68.275  1.00  0.00     0.007 A 
HETATM   44  C   UNL     1      39.046  35.135  69.117  1.00  0.00     0.026 A 
ENDBRANCH   4  31
TORSDOF 7
ENDMDL
MODEL 10
REMARK VINA RESULT:      -7.6     22.978     28.564
REMARK  7 active torsions:
REMARK  status: ('A' for Active; 'I' for Inactive)
REMARK    1  A    between atoms: C_2  and  O_3 
REMARK    2  A    between atoms: O_3  and  C_4 
REMARK       I    between atoms: C_4  and  N_5 
REMARK    3  A    between atoms: C_8  and  N_9 
REMARK       I    between atoms: N_9  and  C_10 
REMARK    4  A    between atoms: C_10  and  C_11 
REMARK    5  A    between atoms: C_13  and  N_14 
REMARK       I    between atoms: N_14  and  C_15 
REMARK    6  A    between atoms: C_15  and  C_16 
REMARK    7  A    between atoms: C_22  and  N_23 
ROOT
HETATM    1  C   UNL     1      40.457  39.469  64.532  1.00  0.00     0.034 A 
HETATM    2  C   UNL     1      41.619  39.938  65.148  1.00  0.00     0.049 A 
HETATM    3  C   UNL     1      42.277  39.180  66.137  1.00  0.00     0.062 A 
HETATM    4  C   UNL     1      41.756  37.936  66.567  1.00  0.00     0.057 A 
HETATM    5  C   UNL     1      40.580  37.495  65.930  1.00  0.00     0.033 A 
HETATM    6  C   UNL     1      39.940  38.239  64.932  1.00  0.00     0.019 A 
ENDROOT
BRANCH   1   7
HETATM    7  C   UNL     1      39.717  40.247  63.494  1.00  0.00     0.252 C 
HETATM    8  N   UNL     1      39.302  41.517  63.844  1.00  0.00    -0.352 N 
HETATM    9  H   UNL     1      39.702  41.943  64.667  1.00  0.00     0.163 HD
HETATM   10  O   UNL     1      39.516  39.762  62.385  1.00  0.00    -0.268 OA
BRANCH   8  11
HETATM   11  C   UNL     1      38.641  42.403  62.891  1.00  0.00     0.087 C 
HETATM   12  C   UNL     1      37.261  42.822  63.396  1.00  0.00     0.045 C 
HETATM   13  C   UNL     1      37.340  43.768  64.587  1.00  0.00     0.130 C 
HETATM   14  N   UNL     1      38.257  44.882  64.363  1.00  0.00    -0.328 N 
HETATM   15  C   UNL     1      38.139  46.060  65.093  1.00  0.00     0.362 C 
HETATM   16  C   UNL     1      39.569  44.571  63.805  1.00  0.00     0.130 C 
HETATM   17  O   UNL     1      39.004  46.930  65.132  1.00  0.00    -0.238 OA
HETATM   18  C   UNL     1      39.493  43.640  62.600  1.00  0.00     0.045 C 
BRANCH  15  19
HETATM   19  O   UNL     1      36.959  46.139  65.766  1.00  0.00    -0.304 OA
BRANCH  19  20
HETATM   20  C   UNL     1      36.159  47.301  65.511  1.00  0.00     0.176 C 
HETATM   21  C   UNL     1      35.444  47.726  66.780  1.00  0.00     0.034 C 
ENDBRANCH  19  20
ENDBRANCH  15  19
ENDBRANCH   8  11
ENDBRANCH   1   7
BRANCH   3  22
HETATM   22  N   UNL     1      43.467  39.695  66.703  1.00  0.00    -0.320 N 
HETATM   23  C   UNL     1      43.631  40.186  67.981  1.00  0.00     0.263 C 
HETATM   24  O   UNL     1      44.678  39.924  68.574  1.00  0.00    -0.267 OA
HETATM   25  H   UNL     1      44.322  39.337  66.309  1.00  0.00     0.169 HD
BRANCH  23  26
HETATM   26  C   UNL     1      42.598  41.080  68.491  1.00  0.00     0.072 A 
HETATM   27  S   UNL     1      42.580  42.724  68.010  1.00  0.00    -0.097 SA
HETATM   28  C   UNL     1      41.153  43.039  68.900  1.00  0.00     0.050 A 
HETATM   29  C   UNL     1      40.692  41.919  69.554  1.00  0.00     0.009 A 
HETATM   30  C   UNL     1      41.525  40.789  69.318  1.00  0.00     0.025 A 
ENDBRANCH  23  26
ENDBRANCH   3  22
BRANCH   4  31
HETATM   31  N   UNL     1      42.366  37.123  67.515  1.00  0.00    -0.378 N 
HETATM   32  C   UNL     1      41.912  37.074  68.907  1.00  0.00     0.134 C 
HETATM   33  C   UNL     1      41.700  35.616  69.373  1.00  0.00     0.054 C 
HETATM   34  C   UNL     1      42.983  34.818  69.162  1.00  0.00     0.020 C 
HETATM   35  C   UNL     1      40.535  35.008  68.613  1.00  0.00     0.020 A 
HETATM   36  C   UNL     1      43.271  34.803  67.666  1.00  0.00     0.023 C 
HETATM   37  C   UNL     1      42.137  34.058  66.951  1.00  0.00     0.138 C 
HETATM   38  C   UNL     1      43.470  36.234  67.137  1.00  0.00     0.129 C 
HETATM   39  N   UNL     1      40.776  34.338  67.412  1.00  0.00    -0.317 N 
HETATM   40  C   UNL     1      39.741  33.817  66.628  1.00  0.00     0.247 A 
HETATM   41  O   UNL     1      39.904  33.198  65.580  1.00  0.00    -0.268 OA
HETATM   42  C   UNL     1      38.359  34.045  67.126  1.00  0.00     0.074 A 
HETATM   43  C   UNL     1      38.159  34.673  68.289  1.00  0.00     0.007 A 
HETATM   44  C   UNL     1      39.273  35.160  69.055  1.00  0.00     0.026 A 
ENDBRANCH   4  31
TORSDOF 7
ENDMDL
