MODEL 1
REMARK VINA RESULT:      -9.0      0.000      0.000
REMARK  5 active torsions:
REMARK  status: ('A' for Active; 'I' for Inactive)
REMARK    1  A    between atoms: C_4  and  C_5 
REMARK    2  A    between atoms: C_8  and  C_9 
REMARK    3  A    between atoms: C_9  and  N_10 
REMARK       I    between atoms: N_10  and  C_11 
REMARK    4  A    between atoms: C_11  and  C_12 
REMARK    5  A    between atoms: C_16  and  C_17 
ROOT
HETATM    1  N   UNL     1      23.437  47.421  49.927  1.00  0.00    -0.348 N 
HETATM    2  C   UNL     1      22.620  47.790  48.892  1.00  0.00     0.271 C 
HETATM    3  O   UNL     1      22.741  47.307  47.767  1.00  0.00    -0.266 OA
HETATM    4  H   UNL     1      23.228  47.731  50.868  1.00  0.00     0.163 HD
ENDROOT
BRANCH   1   5
HETATM    5  C   UNL     1      24.540  46.500  49.756  1.00  0.00     0.201 C 
BRANCH   5   6
HETATM    6  C   UNL     1      25.297  46.360  51.029  1.00  0.00     0.122 A 
HETATM    7  N   UNL     1      26.220  45.358  51.211  1.00  0.00    -0.341 N 
HETATM    8  C   UNL     1      26.782  45.499  52.456  1.00  0.00     0.061 A 
HETATM    9  H   UNL     1      26.431  44.642  50.526  1.00  0.00     0.167 HD
HETATM   10  C   UNL     1      26.155  46.618  52.972  1.00  0.00     0.149 A 
HETATM   11  N   UNL     1      25.235  47.134  52.092  1.00  0.00    -0.243 NA
BRANCH   8  12
HETATM   12  C   UNL     1      27.816  44.619  52.990  1.00  0.00    -0.008 A 
HETATM   13  C   UNL     1      28.356  43.599  52.197  1.00  0.00     0.014 A 
HETATM   14  C   UNL     1      29.341  42.746  52.705  1.00  0.00     0.001 A 
HETATM   15  C   UNL     1      29.799  42.911  54.010  1.00  0.00     0.000 A 
HETATM   16  C   UNL     1      29.275  43.925  54.808  1.00  0.00     0.001 A 
HETATM   17  C   UNL     1      28.287  44.774  54.301  1.00  0.00     0.014 A 
ENDBRANCH   8  12
ENDBRANCH   5   6
ENDBRANCH   1   5
BRANCH   2  18
HETATM   18  C   UNL     1      21.599  48.752  49.196  1.00  0.00     0.141 A 
HETATM   19  N   UNL     1      20.374  48.348  49.662  1.00  0.00    -0.271 N 
HETATM   20  H   UNL     1      20.077  47.391  49.837  1.00  0.00     0.189 HD
HETATM   21  N   UNL     1      19.507  49.345  49.890  1.00  0.00    -0.177 NA
HETATM   22  C   UNL     1      20.196  50.439  49.550  1.00  0.00     0.083 A 
HETATM   23  C   UNL     1      21.508  50.128  49.118  1.00  0.00     0.094 A 
HETATM   24 CL   UNL     1      22.686  51.238  48.601  1.00  0.00    -0.079 Cl
BRANCH  22  25
HETATM   25  C   UNL     1      19.605  51.845  49.621  1.00  0.00     0.041 A 
HETATM   26  C   UNL     1      18.940  52.411  48.380  1.00  0.00     0.011 A 
HETATM   27  C   UNL     1      18.099  52.006  49.541  1.00  0.00     0.011 A 
ENDBRANCH  22  25
ENDBRANCH   2  18
TORSDOF 5
ENDMDL
MODEL 2
REMARK VINA RESULT:      -8.9      2.622      3.894
REMARK  5 active torsions:
REMARK  status: ('A' for Active; 'I' for Inactive)
REMARK    1  A    between atoms: C_4  and  C_5 
REMARK    2  A    between atoms: C_8  and  C_9 
REMARK    3  A    between atoms: C_9  and  N_10 
REMARK       I    between atoms: N_10  and  C_11 
REMARK    4  A    between atoms: C_11  and  C_12 
REMARK    5  A    between atoms: C_16  and  C_17 
ROOT
HETATM    1  N   UNL     1      25.838  45.667  51.401  1.00  0.00    -0.348 N 
HETATM    2  C   UNL     1      26.128  46.253  50.197  1.00  0.00     0.271 C 
HETATM    3  O   UNL     1      27.113  45.926  49.538  1.00  0.00    -0.266 OA
HETATM    4  H   UNL     1      24.953  45.859  51.854  1.00  0.00     0.163 HD
ENDROOT
BRANCH   1   5
HETATM    5  C   UNL     1      26.703  44.681  52.013  1.00  0.00     0.201 C 
BRANCH   5   6
HETATM    6  C   UNL     1      27.274  45.212  53.279  1.00  0.00     0.122 A 
HETATM    7  N   UNL     1      28.272  44.549  53.952  1.00  0.00    -0.341 N 
HETATM    8  C   UNL     1      28.623  45.285  55.057  1.00  0.00     0.061 A 
HETATM    9  H   UNL     1      28.667  43.662  53.662  1.00  0.00     0.167 HD
HETATM   10  C   UNL     1      27.797  46.392  54.986  1.00  0.00     0.149 A 
HETATM   11  N   UNL     1      26.963  46.333  53.896  1.00  0.00    -0.243 NA
BRANCH   8  12
HETATM   12  C   UNL     1      29.664  44.896  56.001  1.00  0.00    -0.008 A 
HETATM   13  C   UNL     1      30.507  43.813  55.720  1.00  0.00     0.014 A 
HETATM   14  C   UNL     1      31.500  43.429  56.625  1.00  0.00     0.001 A 
HETATM   15  C   UNL     1      31.665  44.129  57.818  1.00  0.00     0.000 A 
HETATM   16  C   UNL     1      30.837  45.211  58.108  1.00  0.00     0.001 A 
HETATM   17  C   UNL     1      29.841  45.592  57.205  1.00  0.00     0.014 A 
ENDBRANCH   8  12
ENDBRANCH   5   6
ENDBRANCH   1   5
BRANCH   2  18
HETATM   18  C   UNL     1      25.206  47.253  49.736  1.00  0.00     0.141 A 
HETATM   19  N   UNL     1      23.854  47.055  49.835  1.00  0.00    -0.271 N 
HETATM   20  H   UNL     1      23.386  46.241  50.224  1.00  0.00     0.189 HD
HETATM   21  N   UNL     1      23.106  48.059  49.352  1.00  0.00    -0.177 NA
HETATM   22  C   UNL     1      24.013  48.938  48.914  1.00  0.00     0.083 A 
HETATM   23  C   UNL     1      25.338  48.490  49.136  1.00  0.00     0.094 A 
HETATM   24 CL   UNL     1      26.762  49.318  48.719  1.00  0.00    -0.079 Cl
BRANCH  22  25
HETATM   25  C   UNL     1      23.633  50.258  48.248  1.00  0.00     0.041 A 
HETATM   26  C   UNL     1      22.210  50.429  47.747  1.00  0.00     0.011 A 
HETATM   27  C   UNL     1      22.655  51.175  48.957  1.00  0.00     0.011 A 
ENDBRANCH  22  25
ENDBRANCH   2  18
TORSDOF 5
ENDMDL
MODEL 3
REMARK VINA RESULT:      -8.8      2.103      2.942
REMARK  5 active torsions:
REMARK  status: ('A' for Active; 'I' for Inactive)
REMARK    1  A    between atoms: C_4  and  C_5 
REMARK    2  A    between atoms: C_8  and  C_9 
REMARK    3  A    between atoms: C_9  and  N_10 
REMARK       I    between atoms: N_10  and  C_11 
REMARK    4  A    between atoms: C_11  and  C_12 
REMARK    5  A    between atoms: C_16  and  C_17 
ROOT
HETATM    1  N   UNL     1      24.257  45.529  51.231  1.00  0.00    -0.348 N 
HETATM    2  C   UNL     1      24.449  45.787  49.899  1.00  0.00     0.271 C 
HETATM    3  O   UNL     1      25.213  45.112  49.212  1.00  0.00    -0.266 OA
HETATM    4  H   UNL     1      23.525  46.011  51.736  1.00  0.00     0.163 HD
ENDROOT
BRANCH   1   5
HETATM    5  C   UNL     1      24.991  44.500  51.935  1.00  0.00     0.201 C 
BRANCH   5   6
HETATM    6  C   UNL     1      25.918  45.113  52.925  1.00  0.00     0.122 A 
HETATM    7  N   UNL     1      26.980  44.414  53.444  1.00  0.00    -0.341 N 
HETATM    8  C   UNL     1      27.674  45.237  54.296  1.00  0.00     0.061 A 
HETATM    9  H   UNL     1      27.194  43.449  53.223  1.00  0.00     0.167 HD
HETATM   10  C   UNL     1      26.976  46.429  54.237  1.00  0.00     0.149 A 
HETATM   11  N   UNL     1      25.891  46.340  53.400  1.00  0.00    -0.243 NA
BRANCH   8  12
HETATM   12  C   UNL     1      28.876  44.838  55.020  1.00  0.00    -0.008 A 
HETATM   13  C   UNL     1      29.553  43.662  54.674  1.00  0.00     0.014 A 
HETATM   14  C   UNL     1      30.700  43.268  55.370  1.00  0.00     0.001 A 
HETATM   15  C   UNL     1      31.184  44.051  56.416  1.00  0.00     0.000 A 
HETATM   16  C   UNL     1      30.523  45.226  56.767  1.00  0.00     0.001 A 
HETATM   17  C   UNL     1      29.374  45.616  56.074  1.00  0.00     0.014 A 
ENDBRANCH   8  12
ENDBRANCH   5   6
ENDBRANCH   1   5
BRANCH   2  18
HETATM   18  C   UNL     1      23.690  46.872  49.344  1.00  0.00     0.141 A 
HETATM   19  N   UNL     1      22.358  46.719  49.058  1.00  0.00    -0.271 N 
HETATM   20  H   UNL     1      21.798  45.884  49.204  1.00  0.00     0.189 HD
HETATM   21  N   UNL     1      21.773  47.804  48.528  1.00  0.00    -0.177 NA
HETATM   22  C   UNL     1      22.770  48.692  48.459  1.00  0.00     0.083 A 
HETATM   23  C   UNL     1      23.985  48.167  48.962  1.00  0.00     0.094 A 
HETATM   24 CL   UNL     1      25.475  48.980  49.042  1.00  0.00    -0.079 Cl
BRANCH  22  25
HETATM   25  C   UNL     1      22.590  50.097  47.891  1.00  0.00     0.041 A 
HETATM   26  C   UNL     1      21.537  50.997  48.513  1.00  0.00     0.011 A 
HETATM   27  C   UNL     1      22.979  51.285  48.749  1.00  0.00     0.011 A 
ENDBRANCH  22  25
ENDBRANCH   2  18
TORSDOF 5
ENDMDL
MODEL 4
REMARK VINA RESULT:      -8.7      2.531      3.730
REMARK  5 active torsions:
REMARK  status: ('A' for Active; 'I' for Inactive)
REMARK    1  A    between atoms: C_4  and  C_5 
REMARK    2  A    between atoms: C_8  and  C_9 
REMARK    3  A    between atoms: C_9  and  N_10 
REMARK       I    between atoms: N_10  and  C_11 
REMARK    4  A    between atoms: C_11  and  C_12 
REMARK    5  A    between atoms: C_16  and  C_17 
ROOT
HETATM    1  N   UNL     1      24.698  45.340  51.531  1.00  0.00    -0.348 N 
HETATM    2  C   UNL     1      24.559  45.461  50.173  1.00  0.00     0.271 C 
HETATM    3  O   UNL     1      24.652  44.491  49.424  1.00  0.00    -0.266 OA
HETATM    4  H   UNL     1      24.483  46.127  52.131  1.00  0.00     0.163 HD
ENDROOT
BRANCH   1   5
HETATM    5  C   UNL     1      25.033  44.085  52.169  1.00  0.00     0.201 C 
BRANCH   5   6
HETATM    6  C   UNL     1      26.498  44.005  52.412  1.00  0.00     0.122 A 
HETATM    7  N   UNL     1      27.032  44.208  53.661  1.00  0.00    -0.341 N 
HETATM    8  C   UNL     1      28.393  44.038  53.591  1.00  0.00     0.061 A 
HETATM    9  H   UNL     1      26.491  44.447  54.484  1.00  0.00     0.167 HD
HETATM   10  C   UNL     1      28.614  43.724  52.263  1.00  0.00     0.149 A 
HETATM   11  N   UNL     1      27.445  43.717  51.543  1.00  0.00    -0.243 NA
BRANCH   8  12
HETATM   12  C   UNL     1      29.292  44.162  54.734  1.00  0.00    -0.008 A 
HETATM   13  C   UNL     1      29.233  45.289  55.563  1.00  0.00     0.014 A 
HETATM   14  C   UNL     1      30.097  45.418  56.654  1.00  0.00     0.001 A 
HETATM   15  C   UNL     1      31.026  44.417  56.929  1.00  0.00     0.000 A 
HETATM   16  C   UNL     1      31.092  43.288  56.116  1.00  0.00     0.001 A 
HETATM   17  C   UNL     1      30.231  43.162  55.023  1.00  0.00     0.014 A 
ENDBRANCH   8  12
ENDBRANCH   5   6
ENDBRANCH   1   5
BRANCH   2  18
HETATM   18  C   UNL     1      24.277  46.778  49.676  1.00  0.00     0.141 A 
HETATM   19  N   UNL     1      25.172  47.800  49.856  1.00  0.00    -0.271 N 
HETATM   20  H   UNL     1      26.074  47.742  50.322  1.00  0.00     0.189 HD
HETATM   21  N   UNL     1      24.778  48.981  49.359  1.00  0.00    -0.177 NA
HETATM   22  C   UNL     1      23.573  48.715  48.843  1.00  0.00     0.083 A 
HETATM   23  C   UNL     1      23.215  47.355  49.006  1.00  0.00     0.094 A 
HETATM   24 CL   UNL     1      21.767  46.627  48.492  1.00  0.00    -0.079 Cl
BRANCH  22  25
HETATM   25  C   UNL     1      22.706  49.777  48.173  1.00  0.00     0.041 A 
HETATM   26  C   UNL     1      21.896  50.709  49.055  1.00  0.00     0.011 A 
HETATM   27  C   UNL     1      23.087  51.236  48.333  1.00  0.00     0.011 A 
ENDBRANCH  22  25
ENDBRANCH   2  18
TORSDOF 5
ENDMDL
MODEL 5
REMARK VINA RESULT:      -8.6      3.530      9.912
REMARK  5 active torsions:
REMARK  status: ('A' for Active; 'I' for Inactive)
REMARK    1  A    between atoms: C_4  and  C_5 
REMARK    2  A    between atoms: C_8  and  C_9 
REMARK    3  A    between atoms: C_9  and  N_10 
REMARK       I    between atoms: N_10  and  C_11 
REMARK    4  A    between atoms: C_11  and  C_12 
REMARK    5  A    between atoms: C_16  and  C_17 
ROOT
HETATM    1  N   UNL     1      26.259  44.288  52.403  1.00  0.00    -0.348 N 
HETATM    2  C   UNL     1      26.470  44.564  53.728  1.00  0.00     0.271 C 
HETATM    3  O   UNL     1      25.593  45.059  54.434  1.00  0.00    -0.266 OA
HETATM    4  H   UNL     1      26.948  43.760  51.883  1.00  0.00     0.163 HD
ENDROOT
BRANCH   1   5
HETATM    5  C   UNL     1      25.024  44.624  51.727  1.00  0.00     0.201 C 
BRANCH   5   6
HETATM    6  C   UNL     1      25.200  45.860  50.917  1.00  0.00     0.122 A 
HETATM    7  N   UNL     1      24.126  46.524  50.376  1.00  0.00    -0.341 N 
HETATM    8  C   UNL     1      24.584  47.638  49.716  1.00  0.00     0.061 A 
HETATM    9  H   UNL     1      23.163  46.221  50.459  1.00  0.00     0.167 HD
HETATM   10  C   UNL     1      25.952  47.589  49.908  1.00  0.00     0.149 A 
HETATM   11  N   UNL     1      26.323  46.487  50.637  1.00  0.00    -0.243 NA
BRANCH   8  12
HETATM   12  C   UNL     1      23.722  48.594  49.031  1.00  0.00    -0.008 A 
HETATM   13  C   UNL     1      24.222  49.842  48.636  1.00  0.00     0.014 A 
HETATM   14  C   UNL     1      23.398  50.767  47.987  1.00  0.00     0.001 A 
HETATM   15  C   UNL     1      22.069  50.449  47.720  1.00  0.00     0.000 A 
HETATM   16  C   UNL     1      21.560  49.210  48.102  1.00  0.00     0.001 A 
HETATM   17  C   UNL     1      22.382  48.288  48.755  1.00  0.00     0.014 A 
ENDBRANCH   8  12
ENDBRANCH   5   6
ENDBRANCH   1   5
BRANCH   2  18
HETATM   18  C   UNL     1      27.761  44.222  54.253  1.00  0.00     0.141 A 
HETATM   19  N   UNL     1      28.241  42.943  54.149  1.00  0.00    -0.271 N 
HETATM   20  H   UNL     1      27.774  42.152  53.713  1.00  0.00     0.189 HD
HETATM   21  N   UNL     1      29.452  42.755  54.695  1.00  0.00    -0.177 NA
HETATM   22  C   UNL     1      29.763  43.960  55.181  1.00  0.00     0.083 A 
HETATM   23  C   UNL     1      28.749  44.915  54.927  1.00  0.00     0.094 A 
HETATM   24 CL   UNL     1      28.768  46.551  55.387  1.00  0.00    -0.079 Cl
BRANCH  22  25
HETATM   25  C   UNL     1      31.065  44.241  55.928  1.00  0.00     0.041 A 
HETATM   26  C   UNL     1      31.001  44.477  57.425  1.00  0.00     0.011 A 
HETATM   27  C   UNL     1      31.579  43.206  56.909  1.00  0.00     0.011 A 
ENDBRANCH  22  25
ENDBRANCH   2  18
TORSDOF 5
ENDMDL
MODEL 6
REMARK VINA RESULT:      -8.5      3.025      4.482
REMARK  5 active torsions:
REMARK  status: ('A' for Active; 'I' for Inactive)
REMARK    1  A    between atoms: C_4  and  C_5 
REMARK    2  A    between atoms: C_8  and  C_9 
REMARK    3  A    between atoms: C_9  and  N_10 
REMARK       I    between atoms: N_10  and  C_11 
REMARK    4  A    between atoms: C_11  and  C_12 
REMARK    5  A    between atoms: C_16  and  C_17 
ROOT
HETATM    1  N   UNL     1      26.241  43.472  49.832  1.00  0.00    -0.348 N 
HETATM    2  C   UNL     1      26.547  44.799  49.682  1.00  0.00     0.271 C 
HETATM    3  O   UNL     1      27.710  45.191  49.608  1.00  0.00    -0.266 OA
HETATM    4  H   UNL     1      25.279  43.166  49.754  1.00  0.00     0.163 HD
ENDROOT
BRANCH   1   5
HETATM    5  C   UNL     1      27.257  42.453  49.985  1.00  0.00     0.201 C 
BRANCH   5   6
HETATM    6  C   UNL     1      27.644  42.322  51.415  1.00  0.00     0.122 A 
HETATM    7  N   UNL     1      28.316  43.323  52.074  1.00  0.00    -0.341 N 
HETATM    8  C   UNL     1      28.505  42.941  53.379  1.00  0.00     0.061 A 
HETATM    9  H   UNL     1      28.615  44.190  51.645  1.00  0.00     0.167 HD
HETATM   10  C   UNL     1      27.911  41.694  53.443  1.00  0.00     0.149 A 
HETATM   11  N   UNL     1      27.394  41.317  52.228  1.00  0.00    -0.243 NA
BRANCH   8  12
HETATM   12  C   UNL     1      29.172  43.763  54.383  1.00  0.00    -0.008 A 
HETATM   13  C   UNL     1      30.355  43.322  54.987  1.00  0.00     0.014 A 
HETATM   14  C   UNL     1      30.995  44.100  55.957  1.00  0.00     0.001 A 
HETATM   15  C   UNL     1      30.459  45.332  56.326  1.00  0.00     0.000 A 
HETATM   16  C   UNL     1      29.286  45.786  55.728  1.00  0.00     0.001 A 
HETATM   17  C   UNL     1      28.645  45.006  54.763  1.00  0.00     0.014 A 
ENDBRANCH   8  12
ENDBRANCH   5   6
ENDBRANCH   1   5
BRANCH   2  18
HETATM   18  C   UNL     1      25.436  45.704  49.594  1.00  0.00     0.141 A 
HETATM   19  N   UNL     1      24.174  45.237  49.331  1.00  0.00    -0.271 N 
HETATM   20  H   UNL     1      23.903  44.268  49.188  1.00  0.00     0.189 HD
HETATM   21  N   UNL     1      23.232  46.189  49.258  1.00  0.00    -0.177 NA
HETATM   22  C   UNL     1      23.914  47.318  49.472  1.00  0.00     0.083 A 
HETATM   23  C   UNL     1      25.291  47.074  49.695  1.00  0.00     0.094 A 
HETATM   24 CL   UNL     1      26.484  48.245  50.000  1.00  0.00    -0.079 Cl
BRANCH  22  25
HETATM   25  C   UNL     1      23.258  48.697  49.462  1.00  0.00     0.041 A 
HETATM   26  C   UNL     1      23.270  49.491  48.169  1.00  0.00     0.011 A 
HETATM   27  C   UNL     1      21.993  48.894  48.649  1.00  0.00     0.011 A 
ENDBRANCH  22  25
ENDBRANCH   2  18
TORSDOF 5
ENDMDL
MODEL 7
REMARK VINA RESULT:      -8.5      2.780      9.546
REMARK  5 active torsions:
REMARK  status: ('A' for Active; 'I' for Inactive)
REMARK    1  A    between atoms: C_4  and  C_5 
REMARK    2  A    between atoms: C_8  and  C_9 
REMARK    3  A    between atoms: C_9  and  N_10 
REMARK       I    between atoms: N_10  and  C_11 
REMARK    4  A    between atoms: C_11  and  C_12 
REMARK    5  A    between atoms: C_16  and  C_17 
ROOT
HETATM    1  N   UNL     1      24.755  46.930  50.981  1.00  0.00    -0.348 N 
HETATM    2  C   UNL     1      25.725  46.000  51.248  1.00  0.00     0.271 C 
HETATM    3  O   UNL     1      26.103  45.197  50.397  1.00  0.00    -0.266 OA
HETATM    4  H   UNL     1      24.562  47.662  51.653  1.00  0.00     0.163 HD
ENDROOT
BRANCH   1   5
HETATM    5  C   UNL     1      24.060  46.985  49.713  1.00  0.00     0.201 C 
BRANCH   5   6
HETATM    6  C   UNL     1      23.522  48.353  49.479  1.00  0.00     0.122 A 
HETATM    7  N   UNL     1      22.176  48.617  49.545  1.00  0.00    -0.341 N 
HETATM    8  C   UNL     1      21.980  49.958  49.323  1.00  0.00     0.061 A 
HETATM    9  H   UNL     1      21.463  47.921  49.726  1.00  0.00     0.167 HD
HETATM   10  C   UNL     1      23.259  50.448  49.138  1.00  0.00     0.149 A 
HETATM   11  N   UNL     1      24.201  49.452  49.224  1.00  0.00    -0.243 NA
BRANCH   8  12
HETATM   12  C   UNL     1      20.673  50.606  49.333  1.00  0.00    -0.008 A 
HETATM   13  C   UNL     1      20.431  51.725  48.526  1.00  0.00     0.014 A 
HETATM   14  C   UNL     1      19.184  52.356  48.538  1.00  0.00     0.001 A 
HETATM   15  C   UNL     1      18.164  51.870  49.353  1.00  0.00     0.000 A 
HETATM   16  C   UNL     1      18.389  50.755  50.156  1.00  0.00     0.001 A 
HETATM   17  C   UNL     1      19.637  50.127  50.148  1.00  0.00     0.014 A 
ENDBRANCH   8  12
ENDBRANCH   5   6
ENDBRANCH   1   5
BRANCH   2  18
HETATM   18  C   UNL     1      26.293  46.031  52.566  1.00  0.00     0.141 A 
HETATM   19  N   UNL     1      26.067  47.095  53.400  1.00  0.00    -0.271 N 
HETATM   20  H   UNL     1      25.506  47.918  53.195  1.00  0.00     0.189 HD
HETATM   21  N   UNL     1      26.669  47.005  54.595  1.00  0.00    -0.177 NA
HETATM   22  C   UNL     1      27.320  45.840  54.528  1.00  0.00     0.083 A 
HETATM   23  C   UNL     1      27.114  45.186  53.289  1.00  0.00     0.094 A 
HETATM   24 CL   UNL     1      27.771  43.691  52.818  1.00  0.00    -0.079 Cl
BRANCH  22  25
HETATM   25  C   UNL     1      28.184  45.307  55.668  1.00  0.00     0.041 A 
HETATM   26  C   UNL     1      29.587  45.863  55.830  1.00  0.00     0.011 A 
HETATM   27  C   UNL     1      28.533  46.238  56.813  1.00  0.00     0.011 A 
ENDBRANCH  22  25
ENDBRANCH   2  18
TORSDOF 5
ENDMDL
MODEL 8
REMARK VINA RESULT:      -8.4      5.934      8.660
REMARK  5 active torsions:
REMARK  status: ('A' for Active; 'I' for Inactive)
REMARK    1  A    between atoms: C_4  and  C_5 
REMARK    2  A    between atoms: C_8  and  C_9 
REMARK    3  A    between atoms: C_9  and  N_10 
REMARK       I    between atoms: N_10  and  C_11 
REMARK    4  A    between atoms: C_11  and  C_12 
REMARK    5  A    between atoms: C_16  and  C_17 
ROOT
HETATM    1  N   UNL     1      25.838  43.297  51.155  1.00  0.00    -0.348 N 
HETATM    2  C   UNL     1      26.629  43.394  50.041  1.00  0.00     0.271 C 
HETATM    3  O   UNL     1      26.873  44.477  49.512  1.00  0.00    -0.266 OA
HETATM    4  H   UNL     1      25.766  42.415  51.645  1.00  0.00     0.163 HD
ENDROOT
BRANCH   1   5
HETATM    5  C   UNL     1      25.180  44.445  51.742  1.00  0.00     0.201 C 
BRANCH   5   6
HETATM    6  C   UNL     1      26.026  45.031  52.816  1.00  0.00     0.122 A 
HETATM    7  N   UNL     1      27.107  44.357  53.329  1.00  0.00    -0.341 N 
HETATM    8  C   UNL     1      27.714  45.150  54.271  1.00  0.00     0.061 A 
HETATM    9  H   UNL     1      27.389  43.426  53.046  1.00  0.00     0.167 HD
HETATM   10  C   UNL     1      26.948  46.301  54.270  1.00  0.00     0.149 A 
HETATM   11  N   UNL     1      25.905  46.215  53.381  1.00  0.00    -0.243 NA
BRANCH   8  12
HETATM   12  C   UNL     1      28.907  44.766  55.017  1.00  0.00    -0.008 A 
HETATM   13  C   UNL     1      29.378  45.570  56.064  1.00  0.00     0.014 A 
HETATM   14  C   UNL     1      30.526  45.213  56.776  1.00  0.00     0.001 A 
HETATM   15  C   UNL     1      31.211  44.044  56.454  1.00  0.00     0.000 A 
HETATM   16  C   UNL     1      30.751  43.233  55.419  1.00  0.00     0.001 A 
HETATM   17  C   UNL     1      29.607  43.592  54.704  1.00  0.00     0.014 A 
ENDBRANCH   8  12
ENDBRANCH   5   6
ENDBRANCH   1   5
BRANCH   2  18
HETATM   18  C   UNL     1      27.176  42.166  49.538  1.00  0.00     0.141 A 
HETATM   19  N   UNL     1      27.004  41.810  48.226  1.00  0.00    -0.271 N 
HETATM   20  H   UNL     1      26.512  42.340  47.512  1.00  0.00     0.189 HD
HETATM   21  N   UNL     1      27.550  40.631  47.892  1.00  0.00    -0.177 NA
HETATM   22  C   UNL     1      28.090  40.203  49.037  1.00  0.00     0.083 A 
HETATM   23  C   UNL     1      27.894  41.124  50.094  1.00  0.00     0.094 A 
HETATM   24 CL   UNL     1      28.425  40.943  51.698  1.00  0.00    -0.079 Cl
BRANCH  22  25
HETATM   25  C   UNL     1      28.819  38.868  49.161  1.00  0.00     0.041 A 
HETATM   26  C   UNL     1      27.998  37.621  49.437  1.00  0.00     0.011 A 
HETATM   27  C   UNL     1      28.601  37.817  48.089  1.00  0.00     0.011 A 
ENDBRANCH  22  25
ENDBRANCH   2  18
TORSDOF 5
ENDMDL
MODEL 9
REMARK VINA RESULT:      -8.4      1.885      2.672
REMARK  5 active torsions:
REMARK  status: ('A' for Active; 'I' for Inactive)
REMARK    1  A    between atoms: C_4  and  C_5 
REMARK    2  A    between atoms: C_8  and  C_9 
REMARK    3  A    between atoms: C_9  and  N_10 
REMARK       I    between atoms: N_10  and  C_11 
REMARK    4  A    between atoms: C_11  and  C_12 
REMARK    5  A    between atoms: C_16  and  C_17 
ROOT
HETATM    1  N   UNL     1      21.664  45.901  49.111  1.00  0.00    -0.348 N 
HETATM    2  C   UNL     1      21.706  47.036  48.343  1.00  0.00     0.271 C 
HETATM    3  O   UNL     1      22.273  47.059  47.253  1.00  0.00    -0.266 OA
HETATM    4  H   UNL     1      21.078  45.873  49.935  1.00  0.00     0.163 HD
ENDROOT
BRANCH   1   5
HETATM    5  C   UNL     1      22.341  44.681  48.730  1.00  0.00     0.201 C 
BRANCH   5   6
HETATM    6  C   UNL     1      23.324  44.288  49.775  1.00  0.00     0.122 A 
HETATM    7  N   UNL     1      23.879  45.215  50.625  1.00  0.00    -0.341 N 
HETATM    8  C   UNL     1      24.715  44.565  51.499  1.00  0.00     0.061 A 
HETATM    9  H   UNL     1      23.690  46.209  50.590  1.00  0.00     0.167 HD
HETATM   10  C   UNL     1      24.610  43.238  51.125  1.00  0.00     0.149 A 
HETATM   11  N   UNL     1      23.762  43.079  50.057  1.00  0.00    -0.243 NA
BRANCH   8  12
HETATM   12  C   UNL     1      25.467  45.230  52.557  1.00  0.00    -0.008 A 
HETATM   13  C   UNL     1      25.559  46.627  52.590  1.00  0.00     0.014 A 
HETATM   14  C   UNL     1      26.287  47.270  53.595  1.00  0.00     0.001 A 
HETATM   15  C   UNL     1      26.924  46.522  54.582  1.00  0.00     0.000 A 
HETATM   16  C   UNL     1      26.836  45.132  54.565  1.00  0.00     0.001 A 
HETATM   17  C   UNL     1      26.113  44.489  53.557  1.00  0.00     0.014 A 
ENDBRANCH   8  12
ENDBRANCH   5   6
ENDBRANCH   1   5
BRANCH   2  18
HETATM   18  C   UNL     1      21.031  48.188  48.871  1.00  0.00     0.141 A 
HETATM   19  N   UNL     1      19.988  48.046  49.748  1.00  0.00    -0.271 N 
HETATM   20  H   UNL     1      19.608  47.172  50.103  1.00  0.00     0.189 HD
HETATM   21  N   UNL     1      19.436  49.200  50.150  1.00  0.00    -0.177 NA
HETATM   22  C   UNL     1      20.145  50.127  49.498  1.00  0.00     0.083 A 
HETATM   23  C   UNL     1      21.158  49.552  48.693  1.00  0.00     0.094 A 
HETATM   24 CL   UNL     1      22.263  50.393  47.713  1.00  0.00    -0.079 Cl
BRANCH  22  25
HETATM   25  C   UNL     1      19.866  51.622  49.622  1.00  0.00     0.041 A 
HETATM   26  C   UNL     1      19.169  52.323  48.470  1.00  0.00     0.011 A 
HETATM   27  C   UNL     1      18.426  52.086  49.739  1.00  0.00     0.011 A 
ENDBRANCH  22  25
ENDBRANCH   2  18
TORSDOF 5
ENDMDL
MODEL 10
REMARK VINA RESULT:      -8.2      5.756      8.011
REMARK  5 active torsions:
REMARK  status: ('A' for Active; 'I' for Inactive)
REMARK    1  A    between atoms: C_4  and  C_5 
REMARK    2  A    between atoms: C_8  and  C_9 
REMARK    3  A    between atoms: C_9  and  N_10 
REMARK       I    between atoms: N_10  and  C_11 
REMARK    4  A    between atoms: C_11  and  C_12 
REMARK    5  A    between atoms: C_16  and  C_17 
ROOT
HETATM    1  N   UNL     1      26.478  44.951  51.990  1.00  0.00    -0.348 N 
HETATM    2  C   UNL     1      25.718  43.829  51.785  1.00  0.00     0.271 C 
HETATM    3  O   UNL     1      24.545  43.766  52.151  1.00  0.00    -0.266 OA
HETATM    4  H   UNL     1      27.391  45.024  51.561  1.00  0.00     0.163 HD
ENDROOT
BRANCH   1   5
HETATM    5  C   UNL     1      25.982  46.104  52.710  1.00  0.00     0.201 C 
BRANCH   5   6
HETATM    6  C   UNL     1      26.848  46.389  53.885  1.00  0.00     0.122 A 
HETATM    7  N   UNL     1      27.752  45.467  54.354  1.00  0.00    -0.341 N 
HETATM    8  C   UNL     1      28.429  46.014  55.415  1.00  0.00     0.061 A 
HETATM    9  H   UNL     1      27.877  44.540  53.966  1.00  0.00     0.167 HD
HETATM   10  C   UNL     1      27.887  47.281  55.529  1.00  0.00     0.149 A 
HETATM   11  N   UNL     1      26.907  47.499  54.592  1.00  0.00    -0.243 NA
BRANCH   8  12
HETATM   12  C   UNL     1      29.480  45.326  56.157  1.00  0.00    -0.008 A 
HETATM   13  C   UNL     1      30.145  44.231  55.591  1.00  0.00     0.014 A 
HETATM   14  C   UNL     1      31.146  43.561  56.299  1.00  0.00     0.001 A 
HETATM   15  C   UNL     1      31.497  43.984  57.579  1.00  0.00     0.000 A 
HETATM   16  C   UNL     1      30.848  45.075  58.152  1.00  0.00     0.001 A 
HETATM   17  C   UNL     1      29.844  45.742  57.445  1.00  0.00     0.014 A 
ENDBRANCH   8  12
ENDBRANCH   5   6
ENDBRANCH   1   5
BRANCH   2  18
HETATM   18  C   UNL     1      26.357  42.741  51.100  1.00  0.00     0.141 A 
HETATM   19  N   UNL     1      27.455  42.125  51.641  1.00  0.00    -0.271 N 
HETATM   20  H   UNL     1      27.903  42.347  52.526  1.00  0.00     0.189 HD
HETATM   21  N   UNL     1      27.965  41.136  50.891  1.00  0.00    -0.177 NA
HETATM   22  C   UNL     1      27.169  41.119  49.817  1.00  0.00     0.083 A 
HETATM   23  C   UNL     1      26.145  42.093  49.899  1.00  0.00     0.094 A 
HETATM   24 CL   UNL     1      24.941  42.388  48.736  1.00  0.00    -0.079 Cl
BRANCH  22  25
HETATM   25  C   UNL     1      27.373  40.156  48.651  1.00  0.00     0.041 A 
HETATM   26  C   UNL     1      28.286  40.580  47.516  1.00  0.00     0.011 A 
HETATM   27  C   UNL     1      28.737  39.521  48.461  1.00  0.00     0.011 A 
ENDBRANCH  22  25
ENDBRANCH   2  18
TORSDOF 5
ENDMDL
