MODEL 1
REMARK VINA RESULT:     -10.4      0.000      0.000
REMARK  1 active torsions:
REMARK  status: ('A' for Active; 'I' for Inactive)
REMARK    1  A    between atoms: C_4  and  C_5 
REMARK       I    between atoms: C_5  and  N_6 
ROOT
HETATM    1  C   UNL     1      28.481  41.269  52.333  1.00  0.00     0.275 C 
HETATM    2  N   UNL     1      29.133  42.489  52.473  1.00  0.00    -0.342 N 
HETATM    3  C   UNL     1      30.146  42.612  53.533  1.00  0.00     0.167 C 
HETATM    4  C   UNL     1      29.729  43.696  54.479  1.00  0.00    -0.005 A 
HETATM    5  C   UNL     1      28.714  44.594  54.202  1.00  0.00     0.020 A 
HETATM    6  N   UNL     1      28.578  45.440  55.264  1.00  0.00    -0.358 N 
HETATM    7  H   UNL     1      27.898  46.183  55.347  1.00  0.00     0.166 HD
HETATM    8  C   UNL     1      29.525  45.136  56.221  1.00  0.00     0.043 A 
HETATM    9  C   UNL     1      30.261  44.044  55.751  1.00  0.00     0.000 A 
HETATM   10  C   UNL     1      29.781  45.740  57.458  1.00  0.00     0.030 A 
HETATM   11  C   UNL     1      30.824  45.218  58.232  1.00  0.00     0.002 A 
HETATM   12  C   UNL     1      31.577  44.135  57.787  1.00  0.00     0.001 A 
HETATM   13  C   UNL     1      31.304  43.536  56.551  1.00  0.00     0.014 A 
HETATM   14  C   UNL     1      27.898  44.599  52.953  1.00  0.00     0.077 C 
HETATM   15  C   UNL     1      28.653  43.761  51.891  1.00  0.00     0.132 C 
HETATM   16  O   UNL     1      28.757  40.251  52.959  1.00  0.00    -0.266 OA
ENDROOT
BRANCH   1  17
HETATM   17  C   UNL     1      27.400  41.153  51.272  1.00  0.00     0.156 A 
HETATM   18  N   UNL     1      26.334  41.886  51.416  1.00  0.00    -0.164 NA
HETATM   19  N   UNL     1      25.351  41.816  50.461  1.00  0.00    -0.238 N 
HETATM   20  C   UNL     1      24.186  42.654  50.666  1.00  0.00     0.183 C 
HETATM   21  C   UNL     1      25.380  40.964  49.359  1.00  0.00     0.274 A 
HETATM   22  C   UNL     1      26.582  40.123  49.213  1.00  0.00     0.046 A 
HETATM   23  O   UNL     1      24.481  40.891  48.525  1.00  0.00    -0.266 OA
HETATM   24  C   UNL     1      27.604  40.218  50.151  1.00  0.00     0.016 A 
HETATM   25  C   UNL     1      26.696  39.237  48.133  1.00  0.00     0.018 A 
HETATM   26  C   UNL     1      28.753  39.430  50.009  1.00  0.00     0.015 A 
HETATM   27  C   UNL     1      28.864  38.544  48.933  1.00  0.00     0.001 A 
HETATM   28  C   UNL     1      27.837  38.447  47.996  1.00  0.00     0.001 A 
ENDBRANCH   1  17
TORSDOF 1
ENDMDL
MODEL 2
REMARK VINA RESULT:     -10.3      2.988      8.098
REMARK  1 active torsions:
REMARK  status: ('A' for Active; 'I' for Inactive)
REMARK    1  A    between atoms: C_4  and  C_5 
REMARK       I    between atoms: C_5  and  N_6 
ROOT
HETATM    1  C   UNL     1      25.402  44.466  53.113  1.00  0.00     0.275 C 
HETATM    2  N   UNL     1      25.382  44.741  51.750  1.00  0.00    -0.342 N 
HETATM    3  C   UNL     1      24.310  44.140  50.941  1.00  0.00     0.167 C 
HETATM    4  C   UNL     1      24.927  43.270  49.889  1.00  0.00    -0.005 A 
HETATM    5  C   UNL     1      26.275  43.290  49.583  1.00  0.00     0.020 A 
HETATM    6  N   UNL     1      26.513  42.379  48.595  1.00  0.00    -0.358 N 
HETATM    7  H   UNL     1      27.413  42.164  48.191  1.00  0.00     0.166 HD
HETATM    8  C   UNL     1      25.324  41.789  48.215  1.00  0.00     0.043 A 
HETATM    9  C   UNL     1      24.312  42.332  49.013  1.00  0.00     0.000 A 
HETATM   10  C   UNL     1      25.071  40.823  47.234  1.00  0.00     0.030 A 
HETATM   11  C   UNL     1      23.748  40.406  47.059  1.00  0.00     0.002 A 
HETATM   12  C   UNL     1      22.719  40.933  47.835  1.00  0.00     0.001 A 
HETATM   13  C   UNL     1      22.987  41.894  48.817  1.00  0.00     0.014 A 
HETATM   14  C   UNL     1      27.288  44.154  50.257  1.00  0.00     0.077 C 
HETATM   15  C   UNL     1      26.530  45.286  50.993  1.00  0.00     0.132 C 
HETATM   16  O   UNL     1      24.534  43.843  53.715  1.00  0.00    -0.266 OA
ENDROOT
BRANCH   1  17
HETATM   17  C   UNL     1      26.536  45.046  53.943  1.00  0.00     0.156 A 
HETATM   18  N   UNL     1      26.385  46.252  54.407  1.00  0.00    -0.164 NA
HETATM   19  N   UNL     1      27.386  46.793  55.176  1.00  0.00    -0.238 N 
HETATM   20  C   UNL     1      27.168  48.138  55.671  1.00  0.00     0.183 C 
HETATM   21  C   UNL     1      28.595  46.161  55.456  1.00  0.00     0.274 A 
HETATM   22  C   UNL     1      28.765  44.802  54.911  1.00  0.00     0.046 A 
HETATM   23  O   UNL     1      29.494  46.665  56.124  1.00  0.00    -0.266 OA
HETATM   24  C   UNL     1      27.741  44.228  54.167  1.00  0.00     0.016 A 
HETATM   25  C   UNL     1      29.950  44.091  55.145  1.00  0.00     0.018 A 
HETATM   26  C   UNL     1      27.894  42.932  53.658  1.00  0.00     0.015 A 
HETATM   27  C   UNL     1      29.077  42.225  53.889  1.00  0.00     0.001 A 
HETATM   28  C   UNL     1      30.105  42.804  54.631  1.00  0.00     0.001 A 
ENDBRANCH   1  17
TORSDOF 1
ENDMDL
MODEL 3
REMARK VINA RESULT:     -10.0      2.011      7.865
REMARK  1 active torsions:
REMARK  status: ('A' for Active; 'I' for Inactive)
REMARK    1  A    between atoms: C_4  and  C_5 
REMARK       I    between atoms: C_5  and  N_6 
ROOT
HETATM    1  C   UNL     1      29.618  42.709  53.339  1.00  0.00     0.275 C 
HETATM    2  N   UNL     1      28.670  41.727  53.076  1.00  0.00    -0.342 N 
HETATM    3  C   UNL     1      29.077  40.578  52.251  1.00  0.00     0.167 C 
HETATM    4  C   UNL     1      28.217  40.532  51.026  1.00  0.00    -0.005 A 
HETATM    5  C   UNL     1      27.064  41.282  50.880  1.00  0.00     0.020 A 
HETATM    6  N   UNL     1      26.524  41.019  49.654  1.00  0.00    -0.358 N 
HETATM    7  H   UNL     1      25.692  41.443  49.270  1.00  0.00     0.166 HD
HETATM    8  C   UNL     1      27.288  40.069  49.007  1.00  0.00     0.043 A 
HETATM    9  C   UNL     1      28.358  39.746  49.849  1.00  0.00     0.000 A 
HETATM   10  C   UNL     1      27.114  39.477  47.751  1.00  0.00     0.030 A 
HETATM   11  C   UNL     1      28.054  38.523  47.346  1.00  0.00     0.002 A 
HETATM   12  C   UNL     1      29.127  38.178  48.165  1.00  0.00     0.001 A 
HETATM   13  C   UNL     1      29.292  38.783  49.416  1.00  0.00     0.014 A 
HETATM   14  C   UNL     1      26.534  42.235  51.898  1.00  0.00     0.077 C 
HETATM   15  C   UNL     1      27.212  41.908  53.251  1.00  0.00     0.132 C 
HETATM   16  O   UNL     1      30.801  42.643  53.023  1.00  0.00    -0.266 OA
ENDROOT
BRANCH   1  17
HETATM   17  C   UNL     1      29.187  43.921  54.149  1.00  0.00     0.156 A 
HETATM   18  N   UNL     1      28.258  44.680  53.646  1.00  0.00    -0.164 NA
HETATM   19  N   UNL     1      27.835  45.770  54.367  1.00  0.00    -0.238 N 
HETATM   20  C   UNL     1      26.796  46.582  53.765  1.00  0.00     0.183 C 
HETATM   21  C   UNL     1      28.374  46.165  55.589  1.00  0.00     0.274 A 
HETATM   22  C   UNL     1      29.439  45.310  56.143  1.00  0.00     0.046 A 
HETATM   23  O   UNL     1      28.006  47.158  56.212  1.00  0.00    -0.266 OA
HETATM   24  C   UNL     1      29.845  44.179  55.442  1.00  0.00     0.016 A 
HETATM   25  C   UNL     1      30.037  45.632  57.368  1.00  0.00     0.018 A 
HETATM   26  C   UNL     1      30.848  43.357  55.971  1.00  0.00     0.015 A 
HETATM   27  C   UNL     1      31.445  43.681  57.192  1.00  0.00     0.001 A 
HETATM   28  C   UNL     1      31.042  44.817  57.890  1.00  0.00     0.001 A 
ENDBRANCH   1  17
TORSDOF 1
ENDMDL
MODEL 4
REMARK VINA RESULT:      -9.7      3.057      8.633
REMARK  1 active torsions:
REMARK  status: ('A' for Active; 'I' for Inactive)
REMARK    1  A    between atoms: C_4  and  C_5 
REMARK       I    between atoms: C_5  and  N_6 
ROOT
HETATM    1  C   UNL     1      25.508  44.435  52.658  1.00  0.00     0.275 C 
HETATM    2  N   UNL     1      25.566  44.956  51.370  1.00  0.00    -0.342 N 
HETATM    3  C   UNL     1      24.306  45.383  50.741  1.00  0.00     0.167 C 
HETATM    4  C   UNL     1      24.094  44.586  49.491  1.00  0.00    -0.005 A 
HETATM    5  C   UNL     1      25.078  43.805  48.913  1.00  0.00     0.020 A 
HETATM    6  N   UNL     1      24.564  43.207  47.800  1.00  0.00    -0.358 N 
HETATM    7  H   UNL     1      25.052  42.563  47.194  1.00  0.00     0.166 HD
HETATM    8  C   UNL     1      23.260  43.621  47.614  1.00  0.00     0.043 A 
HETATM    9  C   UNL     1      22.941  44.489  48.663  1.00  0.00     0.000 A 
HETATM   10  C   UNL     1      22.347  43.294  46.604  1.00  0.00     0.030 A 
HETATM   11  C   UNL     1      21.076  43.875  46.664  1.00  0.00     0.002 A 
HETATM   12  C   UNL     1      20.732  44.747  47.695  1.00  0.00     0.001 A 
HETATM   13  C   UNL     1      21.653  45.059  48.701  1.00  0.00     0.014 A 
HETATM   14  C   UNL     1      26.459  43.639  49.453  1.00  0.00     0.077 C 
HETATM   15  C   UNL     1      26.717  44.791  50.456  1.00  0.00     0.132 C 
HETATM   16  O   UNL     1      24.499  44.399  53.354  1.00  0.00    -0.266 OA
ENDROOT
BRANCH   1  17
HETATM   17  C   UNL     1      26.800  43.948  53.292  1.00  0.00     0.156 A 
HETATM   18  N   UNL     1      27.160  42.720  53.055  1.00  0.00    -0.164 NA
HETATM   19  N   UNL     1      28.334  42.260  53.599  1.00  0.00    -0.238 N 
HETATM   20  C   UNL     1      28.691  40.886  53.303  1.00  0.00     0.183 C 
HETATM   21  C   UNL     1      29.155  43.001  54.445  1.00  0.00     0.274 A 
HETATM   22  C   UNL     1      28.731  44.385  54.723  1.00  0.00     0.046 A 
HETATM   23  O   UNL     1      30.190  42.570  54.947  1.00  0.00    -0.266 OA
HETATM   24  C   UNL     1      27.567  44.875  54.143  1.00  0.00     0.016 A 
HETATM   25  C   UNL     1      29.499  45.203  55.563  1.00  0.00     0.018 A 
HETATM   26  C   UNL     1      27.167  46.194  54.394  1.00  0.00     0.015 A 
HETATM   27  C   UNL     1      27.932  47.008  55.235  1.00  0.00     0.001 A 
HETATM   28  C   UNL     1      29.095  46.513  55.820  1.00  0.00     0.001 A 
ENDBRANCH   1  17
TORSDOF 1
ENDMDL
MODEL 5
REMARK VINA RESULT:      -9.5      2.150      3.770
REMARK  1 active torsions:
REMARK  status: ('A' for Active; 'I' for Inactive)
REMARK    1  A    between atoms: C_4  and  C_5 
REMARK       I    between atoms: C_5  and  N_6 
ROOT
HETATM    1  C   UNL     1      26.687  43.376  50.194  1.00  0.00     0.275 C 
HETATM    2  N   UNL     1      26.708  42.885  51.495  1.00  0.00    -0.342 N 
HETATM    3  C   UNL     1      26.911  43.844  52.592  1.00  0.00     0.167 C 
HETATM    4  C   UNL     1      28.154  43.471  53.340  1.00  0.00    -0.005 A 
HETATM    5  C   UNL     1      28.803  42.261  53.176  1.00  0.00     0.020 A 
HETATM    6  N   UNL     1      29.899  42.239  53.989  1.00  0.00    -0.358 N 
HETATM    7  H   UNL     1      30.571  41.488  54.058  1.00  0.00     0.166 HD
HETATM    8  C   UNL     1      29.953  43.408  54.722  1.00  0.00     0.043 A 
HETATM    9  C   UNL     1      28.867  44.199  54.333  1.00  0.00     0.000 A 
HETATM   10  C   UNL     1      30.876  43.821  55.691  1.00  0.00     0.030 A 
HETATM   11  C   UNL     1      30.678  45.072  56.284  1.00  0.00     0.002 A 
HETATM   12  C   UNL     1      29.603  45.879  55.920  1.00  0.00     0.001 A 
HETATM   13  C   UNL     1      28.693  45.456  54.944  1.00  0.00     0.014 A 
HETATM   14  C   UNL     1      28.373  41.185  52.236  1.00  0.00     0.077 C 
HETATM   15  C   UNL     1      26.900  41.460  51.844  1.00  0.00     0.132 C 
HETATM   16  O   UNL     1      26.720  44.565  49.895  1.00  0.00    -0.266 OA
ENDROOT
BRANCH   1  17
HETATM   17  C   UNL     1      26.528  42.382  49.057  1.00  0.00     0.156 A 
HETATM   18  N   UNL     1      27.608  41.988  48.447  1.00  0.00    -0.164 NA
HETATM   19  N   UNL     1      27.494  41.074  47.428  1.00  0.00    -0.238 N 
HETATM   20  C   UNL     1      28.727  40.665  46.784  1.00  0.00     0.183 C 
HETATM   21  C   UNL     1      26.287  40.571  46.950  1.00  0.00     0.274 A 
HETATM   22  C   UNL     1      25.066  41.037  47.634  1.00  0.00     0.046 A 
HETATM   23  O   UNL     1      26.196  39.774  46.020  1.00  0.00    -0.266 OA
HETATM   24  C   UNL     1      25.173  41.929  48.695  1.00  0.00     0.016 A 
HETATM   25  C   UNL     1      23.808  40.582  47.219  1.00  0.00     0.018 A 
HETATM   26  C   UNL     1      24.017  42.365  49.355  1.00  0.00     0.015 A 
HETATM   27  C   UNL     1      22.762  41.912  48.939  1.00  0.00     0.001 A 
HETATM   28  C   UNL     1      22.656  41.023  47.872  1.00  0.00     0.001 A 
ENDBRANCH   1  17
TORSDOF 1
ENDMDL
MODEL 6
REMARK VINA RESULT:      -9.4      4.154      6.288
REMARK  1 active torsions:
REMARK  status: ('A' for Active; 'I' for Inactive)
REMARK    1  A    between atoms: C_4  and  C_5 
REMARK       I    between atoms: C_5  and  N_6 
ROOT
HETATM    1  C   UNL     1      25.437  46.898  51.058  1.00  0.00     0.275 C 
HETATM    2  N   UNL     1      25.371  46.193  52.255  1.00  0.00    -0.342 N 
HETATM    3  C   UNL     1      26.300  46.572  53.331  1.00  0.00     0.167 C 
HETATM    4  C   UNL     1      27.156  45.391  53.671  1.00  0.00    -0.005 A 
HETATM    5  C   UNL     1      26.888  44.108  53.230  1.00  0.00     0.020 A 
HETATM    6  N   UNL     1      27.856  43.272  53.704  1.00  0.00    -0.358 N 
HETATM    7  H   UNL     1      27.926  42.281  53.520  1.00  0.00     0.166 HD
HETATM    8  C   UNL     1      28.738  43.985  54.490  1.00  0.00     0.043 A 
HETATM    9  C   UNL     1      28.320  45.320  54.486  1.00  0.00     0.000 A 
HETATM   10  C   UNL     1      29.866  43.553  55.198  1.00  0.00     0.030 A 
HETATM   11  C   UNL     1      30.581  44.509  55.927  1.00  0.00     0.002 A 
HETATM   12  C   UNL     1      30.185  45.844  55.945  1.00  0.00     0.001 A 
HETATM   13  C   UNL     1      29.059  46.263  55.227  1.00  0.00     0.014 A 
HETATM   14  C   UNL     1      25.737  43.731  52.358  1.00  0.00     0.077 C 
HETATM   15  C   UNL     1      24.703  44.883  52.413  1.00  0.00     0.132 C 
HETATM   16  O   UNL     1      26.141  47.883  50.863  1.00  0.00    -0.266 OA
ENDROOT
BRANCH   1  17
HETATM   17  C   UNL     1      24.513  46.477  49.928  1.00  0.00     0.156 A 
HETATM   18  N   UNL     1      24.596  45.247  49.510  1.00  0.00    -0.164 NA
HETATM   19  N   UNL     1      23.758  44.835  48.503  1.00  0.00    -0.238 N 
HETATM   20  C   UNL     1      23.888  43.455  48.076  1.00  0.00     0.183 C 
HETATM   21  C   UNL     1      22.850  45.660  47.844  1.00  0.00     0.274 A 
HETATM   22  C   UNL     1      22.776  47.056  48.310  1.00  0.00     0.046 A 
HETATM   23  O   UNL     1      22.125  45.286  46.926  1.00  0.00    -0.266 OA
HETATM   24  C   UNL     1      23.589  47.474  49.358  1.00  0.00     0.016 A 
HETATM   25  C   UNL     1      21.889  47.956  47.704  1.00  0.00     0.018 A 
HETATM   26  C   UNL     1      23.512  48.796  49.813  1.00  0.00     0.015 A 
HETATM   27  C   UNL     1      22.629  49.694  49.206  1.00  0.00     0.001 A 
HETATM   28  C   UNL     1      21.819  49.275  48.152  1.00  0.00     0.001 A 
ENDBRANCH   1  17
TORSDOF 1
ENDMDL
MODEL 7
REMARK VINA RESULT:      -9.4      2.259      7.915
REMARK  1 active torsions:
REMARK  status: ('A' for Active; 'I' for Inactive)
REMARK    1  A    between atoms: C_4  and  C_5 
REMARK       I    between atoms: C_5  and  N_6 
ROOT
HETATM    1  C   UNL     1      28.946  43.165  52.802  1.00  0.00     0.275 C 
HETATM    2  N   UNL     1      27.927  42.341  52.338  1.00  0.00    -0.342 N 
HETATM    3  C   UNL     1      28.289  41.240  51.430  1.00  0.00     0.167 C 
HETATM    4  C   UNL     1      27.570  41.427  50.130  1.00  0.00    -0.005 A 
HETATM    5  C   UNL     1      26.533  42.326  49.959  1.00  0.00     0.020 A 
HETATM    6  N   UNL     1      26.106  42.258  48.665  1.00  0.00    -0.358 N 
HETATM    7  H   UNL     1      25.374  42.820  48.252  1.00  0.00     0.166 HD
HETATM    8  C   UNL     1      26.822  41.290  47.991  1.00  0.00     0.043 A 
HETATM    9  C   UNL     1      27.749  40.752  48.890  1.00  0.00     0.000 A 
HETATM   10  C   UNL     1      26.722  40.855  46.664  1.00  0.00     0.030 A 
HETATM   11  C   UNL     1      27.586  39.838  46.247  1.00  0.00     0.002 A 
HETATM   12  C   UNL     1      28.515  39.280  47.121  1.00  0.00     0.001 A 
HETATM   13  C   UNL     1      28.609  39.729  48.444  1.00  0.00     0.014 A 
HETATM   14  C   UNL     1      26.006  43.230  51.023  1.00  0.00     0.077 C 
HETATM   15  C   UNL     1      26.489  42.684  52.389  1.00  0.00     0.132 C 
HETATM   16  O   UNL     1      30.142  42.983  52.596  1.00  0.00    -0.266 OA
ENDROOT
BRANCH   1  17
HETATM   17  C   UNL     1      28.569  44.332  53.699  1.00  0.00     0.156 A 
HETATM   18  N   UNL     1      27.614  45.118  53.293  1.00  0.00    -0.164 NA
HETATM   19  N   UNL     1      27.240  46.168  54.094  1.00  0.00    -0.238 N 
HETATM   20  C   UNL     1      26.170  47.012  53.600  1.00  0.00     0.183 C 
HETATM   21  C   UNL     1      27.853  46.498  55.301  1.00  0.00     0.274 A 
HETATM   22  C   UNL     1      28.947  45.614  55.743  1.00  0.00     0.046 A 
HETATM   23  O   UNL     1      27.527  47.457  55.996  1.00  0.00    -0.266 OA
HETATM   24  C   UNL     1      29.305  44.522  54.962  1.00  0.00     0.016 A 
HETATM   25  C   UNL     1      29.619  45.871  56.946  1.00  0.00     0.018 A 
HETATM   26  C   UNL     1      30.335  43.673  55.385  1.00  0.00     0.015 A 
HETATM   27  C   UNL     1      31.006  43.931  56.583  1.00  0.00     0.001 A 
HETATM   28  C   UNL     1      30.650  45.029  57.363  1.00  0.00     0.001 A 
ENDBRANCH   1  17
TORSDOF 1
ENDMDL
MODEL 8
REMARK VINA RESULT:      -9.2     10.296     14.019
REMARK  1 active torsions:
REMARK  status: ('A' for Active; 'I' for Inactive)
REMARK    1  A    between atoms: C_4  and  C_5 
REMARK       I    between atoms: C_5  and  N_6 
ROOT
HETATM    1  C   UNL     1      19.030  49.043  47.165  1.00  0.00     0.275 C 
HETATM    2  N   UNL     1      18.012  49.234  48.093  1.00  0.00    -0.342 N 
HETATM    3  C   UNL     1      16.834  50.011  47.677  1.00  0.00     0.167 C 
HETATM    4  C   UNL     1      16.707  51.211  48.563  1.00  0.00    -0.005 A 
HETATM    5  C   UNL     1      17.420  51.366  49.738  1.00  0.00     0.020 A 
HETATM    6  N   UNL     1      17.083  52.563  50.299  1.00  0.00    -0.358 N 
HETATM    7  H   UNL     1      17.467  52.947  51.151  1.00  0.00     0.166 HD
HETATM    8  C   UNL     1      16.120  53.181  49.527  1.00  0.00     0.043 A 
HETATM    9  C   UNL     1      15.866  52.351  48.430  1.00  0.00     0.000 A 
HETATM   10  C   UNL     1      15.462  54.402  49.715  1.00  0.00     0.030 A 
HETATM   11  C   UNL     1      14.513  54.782  48.760  1.00  0.00     0.002 A 
HETATM   12  C   UNL     1      14.236  53.974  47.661  1.00  0.00     0.001 A 
HETATM   13  C   UNL     1      14.907  52.759  47.482  1.00  0.00     0.014 A 
HETATM   14  C   UNL     1      18.409  50.383  50.269  1.00  0.00     0.077 C 
HETATM   15  C   UNL     1      18.166  49.032  49.551  1.00  0.00     0.132 C 
HETATM   16  O   UNL     1      18.977  49.385  45.988  1.00  0.00    -0.266 OA
ENDROOT
BRANCH   1  17
HETATM   17  C   UNL     1      20.269  48.283  47.607  1.00  0.00     0.156 A 
HETATM   18  N   UNL     1      20.196  46.985  47.645  1.00  0.00    -0.164 NA
HETATM   19  N   UNL     1      21.308  46.272  48.022  1.00  0.00    -0.238 N 
HETATM   20  C   UNL     1      21.177  44.829  48.044  1.00  0.00     0.183 C 
HETATM   21  C   UNL     1      22.511  46.844  48.430  1.00  0.00     0.274 A 
HETATM   22  C   UNL     1      22.579  48.316  48.403  1.00  0.00     0.046 A 
HETATM   23  O   UNL     1      23.490  46.197  48.791  1.00  0.00    -0.266 OA
HETATM   24  C   UNL     1      21.473  49.047  47.981  1.00  0.00     0.016 A 
HETATM   25  C   UNL     1      23.751  48.976  48.797  1.00  0.00     0.018 A 
HETATM   26  C   UNL     1      21.538  50.445  47.942  1.00  0.00     0.015 A 
HETATM   27  C   UNL     1      22.707  51.102  48.338  1.00  0.00     0.001 A 
HETATM   28  C   UNL     1      23.811  50.369  48.765  1.00  0.00     0.001 A 
ENDBRANCH   1  17
TORSDOF 1
ENDMDL
MODEL 9
REMARK VINA RESULT:      -9.2     13.587     16.280
REMARK  1 active torsions:
REMARK  status: ('A' for Active; 'I' for Inactive)
REMARK    1  A    between atoms: C_4  and  C_5 
REMARK       I    between atoms: C_5  and  N_6 
ROOT
HETATM    1  C   UNL     1      32.025  50.971  39.756  1.00  0.00     0.275 C 
HETATM    2  N   UNL     1      31.461  49.705  39.632  1.00  0.00    -0.342 N 
HETATM    3  C   UNL     1      30.259  49.565  38.795  1.00  0.00     0.167 C 
HETATM    4  C   UNL     1      29.137  49.047  39.642  1.00  0.00    -0.005 A 
HETATM    5  C   UNL     1      29.321  48.528  40.910  1.00  0.00     0.020 A 
HETATM    6  N   UNL     1      28.107  48.157  41.411  1.00  0.00    -0.358 N 
HETATM    7  H   UNL     1      27.937  47.768  42.328  1.00  0.00     0.166 HD
HETATM    8  C   UNL     1      27.128  48.386  40.465  1.00  0.00     0.043 A 
HETATM    9  C   UNL     1      27.749  48.945  39.343  1.00  0.00     0.000 A 
HETATM   10  C   UNL     1      25.750  48.143  40.518  1.00  0.00     0.030 A 
HETATM   11  C   UNL     1      24.988  48.473  39.393  1.00  0.00     0.002 A 
HETATM   12  C   UNL     1      25.581  49.026  38.260  1.00  0.00     0.001 A 
HETATM   13  C   UNL     1      26.959  49.270  38.223  1.00  0.00     0.014 A 
HETATM   14  C   UNL     1      30.637  48.428  41.606  1.00  0.00     0.077 C 
HETATM   15  C   UNL     1      31.749  48.573  40.538  1.00  0.00     0.132 C 
HETATM   16  O   UNL     1      31.658  51.964  39.137  1.00  0.00    -0.266 OA
ENDROOT
BRANCH   1  17
HETATM   17  C   UNL     1      33.237  51.128  40.659  1.00  0.00     0.156 A 
HETATM   18  N   UNL     1      34.410  50.932  40.130  1.00  0.00    -0.164 NA
HETATM   19  N   UNL     1      35.523  51.087  40.918  1.00  0.00    -0.238 N 
HETATM   20  C   UNL     1      36.805  50.860  40.281  1.00  0.00     0.183 C 
HETATM   21  C   UNL     1      35.492  51.388  42.277  1.00  0.00     0.274 A 
HETATM   22  C   UNL     1      34.159  51.590  42.873  1.00  0.00     0.046 A 
HETATM   23  O   UNL     1      36.494  51.498  42.979  1.00  0.00    -0.266 OA
HETATM   24  C   UNL     1      33.026  51.478  42.075  1.00  0.00     0.016 A 
HETATM   25  C   UNL     1      34.033  51.897  44.235  1.00  0.00     0.018 A 
HETATM   26  C   UNL     1      31.759  51.682  42.634  1.00  0.00     0.015 A 
HETATM   27  C   UNL     1      31.635  51.985  43.993  1.00  0.00     0.001 A 
HETATM   28  C   UNL     1      32.770  52.091  44.793  1.00  0.00     0.001 A 
ENDBRANCH   1  17
TORSDOF 1
ENDMDL
MODEL 10
REMARK VINA RESULT:      -9.2     11.373     14.790
REMARK  1 active torsions:
REMARK  status: ('A' for Active; 'I' for Inactive)
REMARK    1  A    between atoms: C_4  and  C_5 
REMARK       I    between atoms: C_5  and  N_6 
ROOT
HETATM    1  C   UNL     1      18.853  50.340  49.806  1.00  0.00     0.275 C 
HETATM    2  N   UNL     1      18.576  51.613  49.320  1.00  0.00    -0.342 N 
HETATM    3  C   UNL     1      17.711  52.487  50.128  1.00  0.00     0.167 C 
HETATM    4  C   UNL     1      16.498  52.845  49.326  1.00  0.00    -0.005 A 
HETATM    5  C   UNL     1      16.392  52.613  47.967  1.00  0.00     0.020 A 
HETATM    6  N   UNL     1      15.168  53.043  47.545  1.00  0.00    -0.358 N 
HETATM    7  H   UNL     1      14.808  52.977  46.603  1.00  0.00     0.166 HD
HETATM    8  C   UNL     1      14.481  53.597  48.607  1.00  0.00     0.043 A 
HETATM    9  C   UNL     1      15.296  53.486  49.738  1.00  0.00     0.000 A 
HETATM   10  C   UNL     1      13.210  54.183  48.650  1.00  0.00     0.030 A 
HETATM   11  C   UNL     1      12.763  54.675  49.881  1.00  0.00     0.002 A 
HETATM   12  C   UNL     1      13.555  54.582  51.023  1.00  0.00     0.001 A 
HETATM   13  C   UNL     1      14.821  53.987  50.966  1.00  0.00     0.014 A 
HETATM   14  C   UNL     1      17.446  51.972  47.128  1.00  0.00     0.077 C 
HETATM   15  C   UNL     1      18.778  52.031  47.915  1.00  0.00     0.132 C 
HETATM   16  O   UNL     1      18.517  49.923  50.910  1.00  0.00    -0.266 OA
ENDROOT
BRANCH   1  17
HETATM   17  C   UNL     1      19.705  49.418  48.950  1.00  0.00     0.156 A 
HETATM   18  N   UNL     1      19.113  48.408  48.382  1.00  0.00    -0.164 NA
HETATM   19  N   UNL     1      19.856  47.570  47.587  1.00  0.00    -0.238 N 
HETATM   20  C   UNL     1      19.150  46.462  46.975  1.00  0.00     0.183 C 
HETATM   21  C   UNL     1      21.229  47.686  47.384  1.00  0.00     0.274 A 
HETATM   22  C   UNL     1      21.895  48.822  48.046  1.00  0.00     0.046 A 
HETATM   23  O   UNL     1      21.888  46.914  46.692  1.00  0.00    -0.266 OA
HETATM   24  C   UNL     1      21.145  49.702  48.818  1.00  0.00     0.016 A 
HETATM   25  C   UNL     1      23.275  49.017  47.896  1.00  0.00     0.018 A 
HETATM   26  C   UNL     1      21.772  50.790  49.439  1.00  0.00     0.015 A 
HETATM   27  C   UNL     1      23.149  50.981  49.290  1.00  0.00     0.001 A 
HETATM   28  C   UNL     1      23.900  50.096  48.521  1.00  0.00     0.001 A 
ENDBRANCH   1  17
TORSDOF 1
ENDMDL
