MODEL 1
REMARK VINA RESULT:      -9.0      0.000      0.000
REMARK  4 active torsions:
REMARK  status: ('A' for Active; 'I' for Inactive)
REMARK    1  A    between atoms: C_8  and  N_9 
REMARK       I    between atoms: N_9  and  C_10 
REMARK       I    between atoms: C_10  and  N_11 
REMARK    2  A    between atoms: N_11  and  C_12 
REMARK    3  A    between atoms: C_15  and  C_16 
REMARK       I    between atoms: C_16  and  N_17 
REMARK    4  A    between atoms: N_17  and  C_18 
ROOT
HETATM    1  C   UNL     1      24.815  45.456  50.112  1.00  0.00     0.036 A 
HETATM    2  C   UNL     1      26.172  45.388  49.790  1.00  0.00     0.030 A 
HETATM    3  C   UNL     1      27.071  44.707  50.620  1.00  0.00     0.019 A 
HETATM    4  C   UNL     1      26.623  44.103  51.799  1.00  0.00     0.032 A 
HETATM    5  C   UNL     1      25.256  44.116  52.093  1.00  0.00     0.019 A 
HETATM    6  C   UNL     1      24.359  44.787  51.255  1.00  0.00     0.030 A 
ENDROOT
BRANCH   1   7
HETATM    7  N   UNL     1      23.871  46.215  49.392  1.00  0.00    -0.309 N 
HETATM    8  C   UNL     1      23.533  47.550  49.581  1.00  0.00     0.325 C 
HETATM    9  N   UNL     1      22.349  47.833  48.920  1.00  0.00    -0.305 N 
HETATM   10  O   UNL     1      24.165  48.340  50.266  1.00  0.00    -0.247 OA
HETATM   11  H   UNL     1      21.780  47.040  48.670  1.00  0.00     0.171 HD
HETATM   12  H   UNL     1      23.412  45.746  48.627  1.00  0.00     0.170 HD
BRANCH   9  13
HETATM   13  C   UNL     1      21.708  49.060  48.861  1.00  0.00     0.086 A 
HETATM   14  C   UNL     1      20.381  49.205  49.223  1.00  0.00     0.052 A 
HETATM   15  C   UNL     1      19.367  48.252  49.733  1.00  0.00     0.072 C 
HETATM   16  N   UNL     1      20.093  50.530  49.064  1.00  0.00    -0.280 N 
HETATM   17  H   UNL     1      19.220  51.010  49.254  1.00  0.00     0.189 HD
HETATM   18  N   UNL     1      21.114  51.252  48.595  1.00  0.00    -0.177 NA
HETATM   19  C   UNL     1      22.114  50.367  48.459  1.00  0.00     0.079 A 
HETATM   20  C   UNL     1      23.404  50.851  47.910  1.00  0.00     0.075 C 
ENDBRANCH   9  13
ENDBRANCH   1   7
BRANCH   4  21
HETATM   21  C   UNL     1      27.554  43.482  52.787  1.00  0.00     0.252 C 
HETATM   22  N   UNL     1      28.258  44.359  53.589  1.00  0.00    -0.352 N 
HETATM   23  H   UNL     1      27.989  45.333  53.561  1.00  0.00     0.163 HD
HETATM   24  O   UNL     1      27.603  42.261  52.894  1.00  0.00    -0.268 OA
BRANCH  22  25
HETATM   25  C   UNL     1      29.012  43.959  54.760  1.00  0.00     0.084 C 
HETATM   26  C   UNL     1      30.304  43.210  54.434  1.00  0.00     0.025 C 
HETATM   27  C   UNL     1      31.076  43.297  55.740  1.00  0.00     0.002 C 
HETATM   28  C   UNL     1      30.829  44.727  56.199  1.00  0.00     0.002 C 
HETATM   29  C   UNL     1      29.417  45.078  55.727  1.00  0.00     0.025 C 
ENDBRANCH  22  25
ENDBRANCH   4  21
TORSDOF 4
ENDMDL
MODEL 2
REMARK VINA RESULT:      -8.8      2.937      9.882
REMARK  4 active torsions:
REMARK  status: ('A' for Active; 'I' for Inactive)
REMARK    1  A    between atoms: C_8  and  N_9 
REMARK       I    between atoms: N_9  and  C_10 
REMARK       I    between atoms: C_10  and  N_11 
REMARK    2  A    between atoms: N_11  and  C_12 
REMARK    3  A    between atoms: C_15  and  C_16 
REMARK       I    between atoms: C_16  and  N_17 
REMARK    4  A    between atoms: N_17  and  C_18 
ROOT
HETATM    1  C   UNL     1      24.900  45.251  50.521  1.00  0.00     0.036 A 
HETATM    2  C   UNL     1      23.841  45.334  49.614  1.00  0.00     0.030 A 
HETATM    3  C   UNL     1      23.346  46.579  49.206  1.00  0.00     0.019 A 
HETATM    4  C   UNL     1      23.893  47.759  49.719  1.00  0.00     0.032 A 
HETATM    5  C   UNL     1      24.994  47.680  50.579  1.00  0.00     0.019 A 
HETATM    6  C   UNL     1      25.493  46.435  50.975  1.00  0.00     0.030 A 
ENDROOT
BRANCH   1   7
HETATM    7  N   UNL     1      25.377  44.042  51.066  1.00  0.00    -0.309 N 
HETATM    8  C   UNL     1      26.449  43.276  50.623  1.00  0.00     0.325 C 
HETATM    9  N   UNL     1      26.393  42.014  51.193  1.00  0.00    -0.305 N 
HETATM   10  O   UNL     1      27.288  43.649  49.816  1.00  0.00    -0.247 OA
HETATM   11  H   UNL     1      25.502  41.740  51.574  1.00  0.00     0.171 HD
HETATM   12  H   UNL     1      24.908  43.711  51.894  1.00  0.00     0.170 HD
BRANCH   9  13
HETATM   13  C   UNL     1      27.298  40.982  51.007  1.00  0.00     0.086 A 
HETATM   14  C   UNL     1      28.347  40.768  51.882  1.00  0.00     0.052 A 
HETATM   15  C   UNL     1      28.775  41.451  53.126  1.00  0.00     0.072 C 
HETATM   16  N   UNL     1      29.010  39.672  51.409  1.00  0.00    -0.280 N 
HETATM   17  H   UNL     1      29.821  39.209  51.806  1.00  0.00     0.189 HD
HETATM   18  N   UNL     1      28.499  39.178  50.279  1.00  0.00    -0.177 NA
HETATM   19  C   UNL     1      27.450  39.971  50.013  1.00  0.00     0.079 A 
HETATM   20  C   UNL     1      26.673  39.709  48.775  1.00  0.00     0.075 C 
ENDBRANCH   9  13
ENDBRANCH   1   7
BRANCH   4  21
HETATM   21  C   UNL     1      23.320  49.105  49.424  1.00  0.00     0.252 C 
HETATM   22  N   UNL     1      21.952  49.227  49.579  1.00  0.00    -0.352 N 
HETATM   23  H   UNL     1      21.464  48.460  50.020  1.00  0.00     0.163 HD
HETATM   24  O   UNL     1      24.065  50.034  49.134  1.00  0.00    -0.268 OA
BRANCH  22  25
HETATM   25  C   UNL     1      21.248  50.493  49.584  1.00  0.00     0.084 C 
HETATM   26  C   UNL     1      20.844  50.979  48.193  1.00  0.00     0.025 C 
HETATM   27  C   UNL     1      19.795  52.033  48.501  1.00  0.00     0.002 C 
HETATM   28  C   UNL     1      18.981  51.402  49.622  1.00  0.00     0.002 C 
HETATM   29  C   UNL     1      19.971  50.561  50.431  1.00  0.00     0.025 C 
ENDBRANCH  22  25
ENDBRANCH   4  21
TORSDOF 4
ENDMDL
MODEL 3
REMARK VINA RESULT:      -8.6      2.461      9.996
REMARK  4 active torsions:
REMARK  status: ('A' for Active; 'I' for Inactive)
REMARK    1  A    between atoms: C_8  and  N_9 
REMARK       I    between atoms: N_9  and  C_10 
REMARK       I    between atoms: C_10  and  N_11 
REMARK    2  A    between atoms: N_11  and  C_12 
REMARK    3  A    between atoms: C_15  and  C_16 
REMARK       I    between atoms: C_16  and  N_17 
REMARK    4  A    between atoms: N_17  and  C_18 
ROOT
HETATM    1  C   UNL     1      25.138  46.402  50.178  1.00  0.00     0.036 A 
HETATM    2  C   UNL     1      23.917  46.098  49.572  1.00  0.00     0.030 A 
HETATM    3  C   UNL     1      23.250  47.051  48.792  1.00  0.00     0.019 A 
HETATM    4  C   UNL     1      23.788  48.331  48.628  1.00  0.00     0.032 A 
HETATM    5  C   UNL     1      25.040  48.619  49.183  1.00  0.00     0.019 A 
HETATM    6  C   UNL     1      25.709  47.660  49.951  1.00  0.00     0.030 A 
ENDROOT
BRANCH   1   7
HETATM    7  N   UNL     1      25.812  45.541  51.068  1.00  0.00    -0.309 N 
HETATM    8  C   UNL     1      26.630  44.464  50.749  1.00  0.00     0.325 C 
HETATM    9  N   UNL     1      26.826  43.674  51.870  1.00  0.00    -0.305 N 
HETATM   10  O   UNL     1      27.072  44.228  49.634  1.00  0.00    -0.247 OA
HETATM   11  H   UNL     1      26.165  43.798  52.620  1.00  0.00     0.171 HD
HETATM   12  H   UNL     1      25.717  45.750  52.049  1.00  0.00     0.170 HD
BRANCH   9  13
HETATM   13  C   UNL     1      27.598  42.526  51.948  1.00  0.00     0.086 A 
HETATM   14  C   UNL     1      27.182  41.331  51.389  1.00  0.00     0.052 A 
HETATM   15  C   UNL     1      25.974  40.945  50.623  1.00  0.00     0.072 C 
HETATM   16  N   UNL     1      28.184  40.436  51.635  1.00  0.00    -0.280 N 
HETATM   17  H   UNL     1      28.239  39.463  51.354  1.00  0.00     0.189 HD
HETATM   18  N   UNL     1      29.199  40.942  52.338  1.00  0.00    -0.177 NA
HETATM   19  C   UNL     1      28.857  42.223  52.545  1.00  0.00     0.079 A 
HETATM   20  C   UNL     1      29.774  43.070  53.347  1.00  0.00     0.075 C 
ENDBRANCH   9  13
ENDBRANCH   1   7
BRANCH   4  21
HETATM   21  C   UNL     1      23.058  49.425  47.922  1.00  0.00     0.252 C 
HETATM   22  N   UNL     1      21.687  49.444  48.090  1.00  0.00    -0.352 N 
HETATM   23  H   UNL     1      21.295  48.825  48.786  1.00  0.00     0.163 HD
HETATM   24  O   UNL     1      23.688  50.275  47.301  1.00  0.00    -0.268 OA
BRANCH  22  25
HETATM   25  C   UNL     1      20.839  50.552  47.699  1.00  0.00     0.084 C 
HETATM   26  C   UNL     1      19.447  50.127  47.232  1.00  0.00     0.025 C 
HETATM   27  C   UNL     1      18.662  51.425  47.305  1.00  0.00     0.002 C 
HETATM   28  C   UNL     1      19.140  52.051  48.608  1.00  0.00     0.002 C 
HETATM   29  C   UNL     1      20.606  51.639  48.755  1.00  0.00     0.025 C 
ENDBRANCH  22  25
ENDBRANCH   4  21
TORSDOF 4
ENDMDL
MODEL 4
REMARK VINA RESULT:      -8.1      3.473      4.672
REMARK  4 active torsions:
REMARK  status: ('A' for Active; 'I' for Inactive)
REMARK    1  A    between atoms: C_8  and  N_9 
REMARK       I    between atoms: N_9  and  C_10 
REMARK       I    between atoms: C_10  and  N_11 
REMARK    2  A    between atoms: N_11  and  C_12 
REMARK    3  A    between atoms: C_15  and  C_16 
REMARK       I    between atoms: C_16  and  N_17 
REMARK    4  A    between atoms: N_17  and  C_18 
ROOT
HETATM    1  C   UNL     1      25.533  45.623  51.350  1.00  0.00     0.036 A 
HETATM    2  C   UNL     1      26.283  44.596  51.927  1.00  0.00     0.030 A 
HETATM    3  C   UNL     1      27.026  44.822  53.093  1.00  0.00     0.019 A 
HETATM    4  C   UNL     1      27.042  46.089  53.685  1.00  0.00     0.032 A 
HETATM    5  C   UNL     1      26.244  47.102  53.144  1.00  0.00     0.019 A 
HETATM    6  C   UNL     1      25.495  46.870  51.986  1.00  0.00     0.030 A 
ENDROOT
BRANCH   1   7
HETATM    7  N   UNL     1      24.855  45.508  50.120  1.00  0.00    -0.309 N 
HETATM    8  C   UNL     1      23.798  44.660  49.810  1.00  0.00     0.325 C 
HETATM    9  N   UNL     1      23.634  44.596  48.435  1.00  0.00    -0.305 N 
HETATM   10  O   UNL     1      23.144  44.032  50.628  1.00  0.00    -0.247 OA
HETATM   11  H   UNL     1      24.420  44.898  47.881  1.00  0.00     0.171 HD
HETATM   12  H   UNL     1      25.148  46.137  49.389  1.00  0.00     0.170 HD
BRANCH   9  13
HETATM   13  C   UNL     1      22.673  43.871  47.750  1.00  0.00     0.086 A 
HETATM   14  C   UNL     1      21.657  44.492  47.048  1.00  0.00     0.052 A 
HETATM   15  C   UNL     1      21.321  45.916  46.814  1.00  0.00     0.072 C 
HETATM   16  N   UNL     1      20.920  43.487  46.489  1.00  0.00    -0.280 N 
HETATM   17  H   UNL     1      20.107  43.565  45.888  1.00  0.00     0.189 HD
HETATM   18  N   UNL     1      21.353  42.264  46.800  1.00  0.00    -0.177 NA
HETATM   19  C   UNL     1      22.427  42.476  47.577  1.00  0.00     0.079 A 
HETATM   20  C   UNL     1      23.131  41.295  48.134  1.00  0.00     0.075 C 
ENDBRANCH   9  13
ENDBRANCH   1   7
BRANCH   4  21
HETATM   21  C   UNL     1      27.919  46.422  54.847  1.00  0.00     0.252 C 
HETATM   22  N   UNL     1      28.756  45.412  55.281  1.00  0.00    -0.352 N 
HETATM   23  H   UNL     1      28.830  44.588  54.701  1.00  0.00     0.163 HD
HETATM   24  O   UNL     1      27.912  47.557  55.309  1.00  0.00    -0.268 OA
BRANCH  22  25
HETATM   25  C   UNL     1      29.843  45.610  56.218  1.00  0.00     0.084 C 
HETATM   26  C   UNL     1      29.381  45.875  57.650  1.00  0.00     0.025 C 
HETATM   27  C   UNL     1      30.640  45.615  58.459  1.00  0.00     0.002 C 
HETATM   28  C   UNL     1      31.227  44.372  57.805  1.00  0.00     0.002 C 
HETATM   29  C   UNL     1      30.871  44.476  56.320  1.00  0.00     0.025 C 
ENDBRANCH  22  25
ENDBRANCH   4  21
TORSDOF 4
ENDMDL
MODEL 5
REMARK VINA RESULT:      -8.0      2.633      9.982
REMARK  4 active torsions:
REMARK  status: ('A' for Active; 'I' for Inactive)
REMARK    1  A    between atoms: C_8  and  N_9 
REMARK       I    between atoms: N_9  and  C_10 
REMARK       I    between atoms: C_10  and  N_11 
REMARK    2  A    between atoms: N_11  and  C_12 
REMARK    3  A    between atoms: C_15  and  C_16 
REMARK       I    between atoms: C_16  and  N_17 
REMARK    4  A    between atoms: N_17  and  C_18 
ROOT
HETATM    1  C   UNL     1      24.883  45.222  49.314  1.00  0.00     0.036 A 
HETATM    2  C   UNL     1      24.990  46.505  49.855  1.00  0.00     0.030 A 
HETATM    3  C   UNL     1      23.986  47.457  49.639  1.00  0.00     0.019 A 
HETATM    4  C   UNL     1      22.870  47.142  48.857  1.00  0.00     0.032 A 
HETATM    5  C   UNL     1      22.732  45.840  48.364  1.00  0.00     0.019 A 
HETATM    6  C   UNL     1      23.730  44.888  48.593  1.00  0.00     0.030 A 
ENDROOT
BRANCH   1   7
HETATM    7  N   UNL     1      25.900  44.248  49.390  1.00  0.00    -0.309 N 
HETATM    8  C   UNL     1      26.119  43.328  50.408  1.00  0.00     0.325 C 
HETATM    9  N   UNL     1      27.387  42.784  50.285  1.00  0.00    -0.305 N 
HETATM   10  O   UNL     1      25.325  43.073  51.301  1.00  0.00    -0.247 OA
HETATM   11  H   UNL     1      28.037  43.300  49.715  1.00  0.00     0.171 HD
HETATM   12  H   UNL     1      26.520  44.189  48.598  1.00  0.00     0.170 HD
BRANCH   9  13
HETATM   13  C   UNL     1      27.956  41.820  51.102  1.00  0.00     0.086 A 
HETATM   14  C   UNL     1      28.313  40.575  50.617  1.00  0.00     0.052 A 
HETATM   15  C   UNL     1      28.238  39.960  49.271  1.00  0.00     0.072 C 
HETATM   16  N   UNL     1      28.854  39.903  51.676  1.00  0.00    -0.280 N 
HETATM   17  H   UNL     1      29.245  38.968  51.692  1.00  0.00     0.189 HD
HETATM   18  N   UNL     1      28.844  40.596  52.816  1.00  0.00    -0.177 NA
HETATM   19  C   UNL     1      28.293  41.775  52.487  1.00  0.00     0.079 A 
HETATM   20  C   UNL     1      28.098  42.779  53.562  1.00  0.00     0.075 C 
ENDBRANCH   9  13
ENDBRANCH   1   7
BRANCH   4  21
HETATM   21  C   UNL     1      21.839  48.154  48.482  1.00  0.00     0.252 C 
HETATM   22  N   UNL     1      21.055  48.628  49.515  1.00  0.00    -0.352 N 
HETATM   23  H   UNL     1      21.325  48.381  50.457  1.00  0.00     0.163 HD
HETATM   24  O   UNL     1      21.778  48.562  47.328  1.00  0.00    -0.268 OA
BRANCH  22  25
HETATM   25  C   UNL     1      20.180  49.779  49.405  1.00  0.00     0.084 C 
HETATM   26  C   UNL     1      20.915  51.085  49.107  1.00  0.00     0.025 C 
HETATM   27  C   UNL     1      19.796  51.993  48.625  1.00  0.00     0.002 C 
HETATM   28  C   UNL     1      18.962  51.081  47.736  1.00  0.00     0.002 C 
HETATM   29  C   UNL     1      19.061  49.687  48.360  1.00  0.00     0.025 C 
ENDBRANCH  22  25
ENDBRANCH   4  21
TORSDOF 4
ENDMDL
MODEL 6
REMARK VINA RESULT:      -8.0     12.143     13.298
REMARK  4 active torsions:
REMARK  status: ('A' for Active; 'I' for Inactive)
REMARK    1  A    between atoms: C_8  and  N_9 
REMARK       I    between atoms: N_9  and  C_10 
REMARK       I    between atoms: C_10  and  N_11 
REMARK    2  A    between atoms: N_11  and  C_12 
REMARK    3  A    between atoms: C_15  and  C_16 
REMARK       I    between atoms: C_16  and  N_17 
REMARK    4  A    between atoms: N_17  and  C_18 
ROOT
HETATM    1  C   UNL     1      32.697  50.469  42.872  1.00  0.00     0.036 A 
HETATM    2  C   UNL     1      33.800  50.164  42.073  1.00  0.00     0.030 A 
HETATM    3  C   UNL     1      35.029  50.806  42.276  1.00  0.00     0.019 A 
HETATM    4  C   UNL     1      35.161  51.779  43.272  1.00  0.00     0.032 A 
HETATM    5  C   UNL     1      34.075  52.042  44.113  1.00  0.00     0.019 A 
HETATM    6  C   UNL     1      32.853  51.391  43.915  1.00  0.00     0.030 A 
ENDROOT
BRANCH   1   7
HETATM    7  N   UNL     1      31.402  49.954  42.658  1.00  0.00    -0.309 N 
HETATM    8  C   UNL     1      30.546  50.225  41.597  1.00  0.00     0.325 C 
HETATM    9  N   UNL     1      29.263  49.807  41.910  1.00  0.00    -0.305 N 
HETATM   10  O   UNL     1      30.872  50.790  40.564  1.00  0.00    -0.247 OA
HETATM   11  H   UNL     1      29.072  49.658  42.888  1.00  0.00     0.171 HD
HETATM   12  H   UNL     1      31.072  49.284  43.334  1.00  0.00     0.170 HD
BRANCH   9  13
HETATM   13  C   UNL     1      28.144  49.891  41.097  1.00  0.00     0.086 A 
HETATM   14  C   UNL     1      27.505  51.095  40.863  1.00  0.00     0.052 A 
HETATM   15  C   UNL     1      27.772  52.481  41.315  1.00  0.00     0.072 C 
HETATM   16  N   UNL     1      26.474  50.811  40.014  1.00  0.00    -0.280 N 
HETATM   17  H   UNL     1      25.801  51.452  39.607  1.00  0.00     0.189 HD
HETATM   18  N   UNL     1      26.369  49.517  39.705  1.00  0.00    -0.177 NA
HETATM   19  C   UNL     1      27.383  48.934  40.364  1.00  0.00     0.079 A 
HETATM   20  C   UNL     1      27.526  47.460  40.261  1.00  0.00     0.075 C 
ENDBRANCH   9  13
ENDBRANCH   1   7
BRANCH   4  21
HETATM   21  C   UNL     1      36.403  52.588  43.444  1.00  0.00     0.252 C 
HETATM   22  N   UNL     1      36.614  53.111  44.706  1.00  0.00    -0.352 N 
HETATM   23  H   UNL     1      36.009  52.790  45.449  1.00  0.00     0.163 HD
HETATM   24  O   UNL     1      37.194  52.695  42.514  1.00  0.00    -0.268 OA
BRANCH  22  25
HETATM   25  C   UNL     1      37.863  53.705  45.137  1.00  0.00     0.084 C 
HETATM   26  C   UNL     1      37.781  55.214  45.365  1.00  0.00     0.025 C 
HETATM   27  C   UNL     1      39.025  55.492  46.192  1.00  0.00     0.002 C 
HETATM   28  C   UNL     1      39.064  54.327  47.170  1.00  0.00     0.002 C 
HETATM   29  C   UNL     1      38.488  53.128  46.413  1.00  0.00     0.025 C 
ENDBRANCH  22  25
ENDBRANCH   4  21
TORSDOF 4
ENDMDL
MODEL 7
REMARK VINA RESULT:      -7.6     18.416     22.217
REMARK  4 active torsions:
REMARK  status: ('A' for Active; 'I' for Inactive)
REMARK    1  A    between atoms: C_8  and  N_9 
REMARK       I    between atoms: N_9  and  C_10 
REMARK       I    between atoms: C_10  and  N_11 
REMARK    2  A    between atoms: N_11  and  C_12 
REMARK    3  A    between atoms: C_15  and  C_16 
REMARK       I    between atoms: C_16  and  N_17 
REMARK    4  A    between atoms: N_17  and  C_18 
ROOT
HETATM    1  C   UNL     1      39.339  41.936  63.520  1.00  0.00     0.036 A 
HETATM    2  C   UNL     1      37.956  42.085  63.637  1.00  0.00     0.030 A 
HETATM    3  C   UNL     1      37.377  43.359  63.707  1.00  0.00     0.019 A 
HETATM    4  C   UNL     1      38.183  44.502  63.683  1.00  0.00     0.032 A 
HETATM    5  C   UNL     1      39.563  44.357  63.504  1.00  0.00     0.019 A 
HETATM    6  C   UNL     1      40.135  43.084  63.422  1.00  0.00     0.030 A 
ENDROOT
BRANCH   1   7
HETATM    7  N   UNL     1      40.004  40.693  63.559  1.00  0.00    -0.309 N 
HETATM    8  C   UNL     1      40.432  39.995  64.681  1.00  0.00     0.325 C 
HETATM    9  N   UNL     1      41.326  39.005  64.306  1.00  0.00    -0.305 N 
HETATM   10  O   UNL     1      40.101  40.249  65.830  1.00  0.00    -0.247 OA
HETATM   11  H   UNL     1      41.746  39.109  63.397  1.00  0.00     0.171 HD
HETATM   12  H   UNL     1      40.156  40.242  62.671  1.00  0.00     0.170 HD
BRANCH   9  13
HETATM   13  C   UNL     1      41.950  38.094  65.143  1.00  0.00     0.086 A 
HETATM   14  C   UNL     1      43.321  38.093  65.324  1.00  0.00     0.052 A 
HETATM   15  C   UNL     1      44.407  38.945  64.784  1.00  0.00     0.072 C 
HETATM   16  N   UNL     1      43.579  37.093  66.216  1.00  0.00    -0.280 N 
HETATM   17  H   UNL     1      44.474  36.812  66.602  1.00  0.00     0.189 HD
HETATM   18  N   UNL     1      42.493  36.420  66.603  1.00  0.00    -0.177 NA
HETATM   19  C   UNL     1      41.482  37.016  65.952  1.00  0.00     0.079 A 
HETATM   20  C   UNL     1      40.115  36.470  66.137  1.00  0.00     0.075 C 
ENDBRANCH   9  13
ENDBRANCH   1   7
BRANCH   4  21
HETATM   21  C   UNL     1      37.635  45.875  63.889  1.00  0.00     0.252 C 
HETATM   22  N   UNL     1      38.451  46.754  64.576  1.00  0.00    -0.352 N 
HETATM   23  H   UNL     1      39.402  46.464  64.753  1.00  0.00     0.163 HD
HETATM   24  O   UNL     1      36.554  46.179  63.399  1.00  0.00    -0.268 OA
BRANCH  22  25
HETATM   25  C   UNL     1      38.212  48.180  64.661  1.00  0.00     0.084 C 
HETATM   26  C   UNL     1      37.465  48.606  65.924  1.00  0.00     0.025 C 
HETATM   27  C   UNL     1      37.727  50.102  65.976  1.00  0.00     0.002 C 
HETATM   28  C   UNL     1      39.195  50.215  65.588  1.00  0.00     0.002 C 
HETATM   29  C   UNL     1      39.449  49.085  64.588  1.00  0.00     0.025 C 
ENDBRANCH  22  25
ENDBRANCH   4  21
TORSDOF 4
ENDMDL
MODEL 8
REMARK VINA RESULT:      -7.6     12.697     13.766
REMARK  4 active torsions:
REMARK  status: ('A' for Active; 'I' for Inactive)
REMARK    1  A    between atoms: C_8  and  N_9 
REMARK       I    between atoms: N_9  and  C_10 
REMARK       I    between atoms: C_10  and  N_11 
REMARK    2  A    between atoms: N_11  and  C_12 
REMARK    3  A    between atoms: C_15  and  C_16 
REMARK       I    between atoms: C_16  and  N_17 
REMARK    4  A    between atoms: N_17  and  C_18 
ROOT
HETATM    1  C   UNL     1      32.865  50.719  42.489  1.00  0.00     0.036 A 
HETATM    2  C   UNL     1      34.004  50.262  41.823  1.00  0.00     0.030 A 
HETATM    3  C   UNL     1      35.278  50.709  42.199  1.00  0.00     0.019 A 
HETATM    4  C   UNL     1      35.423  51.637  43.235  1.00  0.00     0.032 A 
HETATM    5  C   UNL     1      34.289  52.049  43.943  1.00  0.00     0.019 A 
HETATM    6  C   UNL     1      33.020  51.592  43.573  1.00  0.00     0.030 A 
ENDROOT
BRANCH   1   7
HETATM    7  N   UNL     1      31.547  50.407  42.098  1.00  0.00    -0.309 N 
HETATM    8  C   UNL     1      31.016  50.424  40.813  1.00  0.00     0.325 C 
HETATM    9  N   UNL     1      29.632  50.392  40.875  1.00  0.00    -0.305 N 
HETATM   10  O   UNL     1      31.675  50.503  39.787  1.00  0.00    -0.247 OA
HETATM   11  H   UNL     1      29.223  50.647  41.759  1.00  0.00     0.171 HD
HETATM   12  H   UNL     1      30.924  50.103  42.830  1.00  0.00     0.170 HD
BRANCH   9  13
HETATM   13  C   UNL     1      28.757  50.377  39.802  1.00  0.00     0.086 A 
HETATM   14  C   UNL     1      28.068  49.233  39.441  1.00  0.00     0.052 A 
HETATM   15  C   UNL     1      28.026  47.864  40.006  1.00  0.00     0.072 C 
HETATM   16  N   UNL     1      27.294  49.585  38.373  1.00  0.00    -0.280 N 
HETATM   17  H   UNL     1      26.638  49.008  37.856  1.00  0.00     0.189 HD
HETATM   18  N   UNL     1      27.450  50.853  37.987  1.00  0.00    -0.177 NA
HETATM   19  C   UNL     1      28.348  51.356  38.848  1.00  0.00     0.079 A 
HETATM   20  C   UNL     1      28.778  52.764  38.665  1.00  0.00     0.075 C 
ENDBRANCH   9  13
ENDBRANCH   1   7
BRANCH   4  21
HETATM   21  C   UNL     1      36.739  52.248  43.588  1.00  0.00     0.252 C 
HETATM   22  N   UNL     1      36.715  53.195  44.593  1.00  0.00    -0.352 N 
HETATM   23  H   UNL     1      35.857  53.297  45.116  1.00  0.00     0.163 HD
HETATM   24  O   UNL     1      37.761  51.849  43.041  1.00  0.00    -0.268 OA
BRANCH  22  25
HETATM   25  C   UNL     1      37.902  53.715  45.243  1.00  0.00     0.084 C 
HETATM   26  C   UNL     1      37.906  55.235  45.393  1.00  0.00     0.025 C 
HETATM   27  C   UNL     1      38.982  55.463  46.441  1.00  0.00     0.002 C 
HETATM   28  C   UNL     1      38.729  54.352  47.451  1.00  0.00     0.002 C 
HETATM   29  C   UNL     1      38.213  53.161  46.639  1.00  0.00     0.025 C 
ENDBRANCH  22  25
ENDBRANCH   4  21
TORSDOF 4
ENDMDL
MODEL 9
REMARK VINA RESULT:      -7.3     13.151     16.210
REMARK  4 active torsions:
REMARK  status: ('A' for Active; 'I' for Inactive)
REMARK    1  A    between atoms: C_8  and  N_9 
REMARK       I    between atoms: N_9  and  C_10 
REMARK       I    between atoms: C_10  and  N_11 
REMARK    2  A    between atoms: N_11  and  C_12 
REMARK    3  A    between atoms: C_15  and  C_16 
REMARK       I    between atoms: C_16  and  N_17 
REMARK    4  A    between atoms: N_17  and  C_18 
ROOT
HETATM    1  C   UNL     1      34.804  52.103  43.764  1.00  0.00     0.036 A 
HETATM    2  C   UNL     1      33.663  52.138  44.568  1.00  0.00     0.030 A 
HETATM    3  C   UNL     1      32.520  51.408  44.217  1.00  0.00     0.019 A 
HETATM    4  C   UNL     1      32.500  50.650  43.042  1.00  0.00     0.032 A 
HETATM    5  C   UNL     1      33.661  50.565  42.267  1.00  0.00     0.019 A 
HETATM    6  C   UNL     1      34.805  51.286  42.627  1.00  0.00     0.030 A 
ENDROOT
BRANCH   1   7
HETATM    7  N   UNL     1      35.949  52.896  43.986  1.00  0.00    -0.309 N 
HETATM    8  C   UNL     1      37.162  52.500  44.537  1.00  0.00     0.325 C 
HETATM    9  N   UNL     1      37.900  53.615  44.899  1.00  0.00    -0.305 N 
HETATM   10  O   UNL     1      37.502  51.340  44.714  1.00  0.00    -0.247 OA
HETATM   11  H   UNL     1      37.385  54.476  44.994  1.00  0.00     0.171 HD
HETATM   12  H   UNL     1      35.893  53.855  43.680  1.00  0.00     0.170 HD
BRANCH   9  13
HETATM   13  C   UNL     1      39.166  53.621  45.461  1.00  0.00     0.086 A 
HETATM   14  C   UNL     1      39.355  53.697  46.829  1.00  0.00     0.052 A 
HETATM   15  C   UNL     1      38.414  53.766  47.972  1.00  0.00     0.072 C 
HETATM   16  N   UNL     1      40.706  53.658  47.023  1.00  0.00    -0.280 N 
HETATM   17  H   UNL     1      41.215  53.671  47.900  1.00  0.00     0.189 HD
HETATM   18  N   UNL     1      41.412  53.599  45.892  1.00  0.00    -0.177 NA
HETATM   19  C   UNL     1      40.486  53.579  44.920  1.00  0.00     0.079 A 
HETATM   20  C   UNL     1      40.952  53.555  43.512  1.00  0.00     0.075 C 
ENDBRANCH   9  13
ENDBRANCH   1   7
BRANCH   4  21
HETATM   21  C   UNL     1      31.269  49.963  42.551  1.00  0.00     0.252 C 
HETATM   22  N   UNL     1      30.436  50.717  41.747  1.00  0.00    -0.352 N 
HETATM   23  H   UNL     1      30.782  51.610  41.426  1.00  0.00     0.163 HD
HETATM   24  O   UNL     1      31.088  48.779  42.812  1.00  0.00    -0.268 OA
BRANCH  22  25
HETATM   25  C   UNL     1      29.338  50.166  40.978  1.00  0.00     0.084 C 
HETATM   26  C   UNL     1      27.987  50.814  41.282  1.00  0.00     0.025 C 
HETATM   27  C   UNL     1      27.141  50.390  40.093  1.00  0.00     0.002 C 
HETATM   28  C   UNL     1      28.091  50.547  38.913  1.00  0.00     0.002 C 
HETATM   29  C   UNL     1      29.483  50.211  39.452  1.00  0.00     0.025 C 
ENDBRANCH  22  25
ENDBRANCH   4  21
TORSDOF 4
ENDMDL
MODEL 10
REMARK VINA RESULT:      -7.3      6.019      9.807
REMARK  4 active torsions:
REMARK  status: ('A' for Active; 'I' for Inactive)
REMARK    1  A    between atoms: C_8  and  N_9 
REMARK       I    between atoms: N_9  and  C_10 
REMARK       I    between atoms: C_10  and  N_11 
REMARK    2  A    between atoms: N_11  and  C_12 
REMARK    3  A    between atoms: C_15  and  C_16 
REMARK       I    between atoms: C_16  and  N_17 
REMARK    4  A    between atoms: N_17  and  C_18 
ROOT
HETATM    1  C   UNL     1      27.199  40.088  50.322  1.00  0.00     0.036 A 
HETATM    2  C   UNL     1      26.187  40.020  49.361  1.00  0.00     0.030 A 
HETATM    3  C   UNL     1      26.451  39.517  48.081  1.00  0.00     0.019 A 
HETATM    4  C   UNL     1      27.739  39.094  47.740  1.00  0.00     0.032 A 
HETATM    5  C   UNL     1      28.739  39.103  48.719  1.00  0.00     0.019 A 
HETATM    6  C   UNL     1      28.469  39.596  50.000  1.00  0.00     0.030 A 
ENDROOT
BRANCH   1   7
HETATM    7  N   UNL     1      27.042  40.685  51.589  1.00  0.00    -0.309 N 
HETATM    8  C   UNL     1      27.300  42.004  51.943  1.00  0.00     0.325 C 
HETATM    9  N   UNL     1      27.350  42.119  53.323  1.00  0.00    -0.305 N 
HETATM   10  O   UNL     1      27.499  42.914  51.152  1.00  0.00    -0.247 OA
HETATM   11  H   UNL     1      27.487  41.262  53.835  1.00  0.00     0.171 HD
HETATM   12  H   UNL     1      26.666  40.097  52.316  1.00  0.00     0.170 HD
BRANCH   9  13
HETATM   13  C   UNL     1      27.566  43.279  54.049  1.00  0.00     0.086 A 
HETATM   14  C   UNL     1      28.833  43.658  54.455  1.00  0.00     0.052 A 
HETATM   15  C   UNL     1      30.173  43.055  54.262  1.00  0.00     0.072 C 
HETATM   16  N   UNL     1      28.675  44.842  55.116  1.00  0.00    -0.280 N 
HETATM   17  H   UNL     1      29.389  45.427  55.536  1.00  0.00     0.189 HD
HETATM   18  N   UNL     1      27.406  45.246  55.205  1.00  0.00    -0.177 NA
HETATM   19  C   UNL     1      26.708  44.298  54.559  1.00  0.00     0.079 A 
HETATM   20  C   UNL     1      25.231  44.430  54.510  1.00  0.00     0.075 C 
ENDBRANCH   9  13
ENDBRANCH   1   7
BRANCH   4  21
HETATM   21  C   UNL     1      28.108  38.676  46.355  1.00  0.00     0.252 C 
HETATM   22  N   UNL     1      28.006  39.651  45.382  1.00  0.00    -0.352 N 
HETATM   23  H   UNL     1      27.843  40.600  45.689  1.00  0.00     0.163 HD
HETATM   24  O   UNL     1      28.538  37.545  46.155  1.00  0.00    -0.268 OA
BRANCH  22  25
HETATM   25  C   UNL     1      28.547  39.519  44.044  1.00  0.00     0.084 C 
HETATM   26  C   UNL     1      27.502  39.152  42.991  1.00  0.00     0.025 C 
HETATM   27  C   UNL     1      28.206  39.497  41.690  1.00  0.00     0.002 C 
HETATM   28  C   UNL     1      28.899  40.816  42.005  1.00  0.00     0.002 C 
HETATM   29  C   UNL     1      29.287  40.739  43.483  1.00  0.00     0.025 C 
ENDBRANCH  22  25
ENDBRANCH   4  21
TORSDOF 4
ENDMDL
