MODEL 1
REMARK VINA RESULT:     -10.0      0.000      0.000
REMARK  6 active torsions:
REMARK  status: ('A' for Active; 'I' for Inactive)
REMARK    1  A    between atoms: O_2  and  C_3 
REMARK    2  A    between atoms: C_6  and  C_7 
REMARK    3  A    between atoms: C_11  and  C_12 
REMARK       I    between atoms: C_12  and  N_13 
REMARK    4  A    between atoms: N_13  and  N_14 
REMARK       I    between atoms: N_14  and  C_15 
REMARK    5  A    between atoms: C_15  and  C_16 
REMARK    6  A    between atoms: C_17  and  C_18 
ROOT
HETATM    1  C   UNL     1      24.657  45.769  50.673  1.00  0.00     0.288 C 
HETATM    2  N   UNL     1      24.384  47.104  50.877  1.00  0.00    -0.262 N 
HETATM    3  O   UNL     1      24.133  45.127  49.764  1.00  0.00    -0.264 OA
HETATM    4  H   UNL     1      24.854  47.682  51.568  1.00  0.00     0.190 HD
ENDROOT
BRANCH   1   5
HETATM    5  C   UNL     1      25.581  45.175  51.599  1.00  0.00     0.121 A 
HETATM    6  N   UNL     1      25.504  43.852  51.933  1.00  0.00    -0.272 N 
HETATM    7  N   UNL     1      26.403  43.461  52.845  1.00  0.00    -0.174 NA
HETATM    8  H   UNL     1      24.838  43.172  51.576  1.00  0.00     0.189 HD
HETATM    9  C   UNL     1      27.118  44.565  53.116  1.00  0.00     0.089 A 
HETATM   10  C   UNL     1      26.639  45.661  52.341  1.00  0.00     0.071 A 
BRANCH   9  11
HETATM   11  C   UNL     1      28.198  44.558  54.108  1.00  0.00    -0.005 A 
HETATM   12  C   UNL     1      29.087  43.482  54.208  1.00  0.00     0.016 A 
HETATM   13  C   UNL     1      30.130  43.508  55.141  1.00  0.00     0.037 A 
HETATM   14  C   UNL     1      30.309  44.606  55.985  1.00  0.00     0.068 A 
HETATM   15  C   UNL     1      29.419  45.675  55.903  1.00  0.00     0.037 A 
HETATM   16  C   UNL     1      28.371  45.648  54.972  1.00  0.00     0.016 A 
BRANCH  14  17
HETATM   17  O   UNL     1      31.373  44.509  56.837  1.00  0.00    -0.356 OA
HETATM   18  C   UNL     1      31.816  43.196  57.159  1.00  0.00     0.210 C 
ENDBRANCH  14  17
ENDBRANCH   9  11
ENDBRANCH   1   5
BRANCH   2  19
HETATM   19  N   UNL     1      23.502  47.751  50.010  1.00  0.00    -0.267 N 
HETATM   20  C   UNL     1      23.971  48.774  49.222  1.00  0.00     0.240 C 
HETATM   21  O   UNL     1      25.131  49.170  49.222  1.00  0.00    -0.271 OA
HETATM   22  H   UNL     1      22.522  47.472  50.041  1.00  0.00     0.190 HD
BRANCH  20  23
HETATM   23  C   UNL     1      22.926  49.391  48.373  1.00  0.00     0.089 A 
HETATM   24  C   UNL     1      22.446  50.789  48.742  1.00  0.00     0.036 A 
HETATM   25  C   UNL     1      23.207  50.556  47.461  1.00  0.00     0.025 A 
BRANCH  24  26
HETATM   26  C   UNL     1      20.959  51.041  48.770  1.00  0.00    -0.015 A 
HETATM   27  C   UNL     1      20.295  51.278  49.984  1.00  0.00     0.123 A 
HETATM   28  F   UNL     1      20.995  51.249  51.130  1.00  0.00    -0.206 F 
HETATM   29  C   UNL     1      18.928  51.539  50.048  1.00  0.00     0.043 A 
HETATM   30  C   UNL     1      18.179  51.566  48.875  1.00  0.00     0.003 A 
HETATM   31  C   UNL     1      18.807  51.337  47.651  1.00  0.00     0.001 A 
HETATM   32  C   UNL     1      20.182  51.083  47.601  1.00  0.00     0.011 A 
ENDBRANCH  24  26
ENDBRANCH  20  23
ENDBRANCH   2  19
TORSDOF 6
ENDMDL
MODEL 2
REMARK VINA RESULT:      -9.7      2.676     11.035
REMARK  6 active torsions:
REMARK  status: ('A' for Active; 'I' for Inactive)
REMARK    1  A    between atoms: O_2  and  C_3 
REMARK    2  A    between atoms: C_6  and  C_7 
REMARK    3  A    between atoms: C_11  and  C_12 
REMARK       I    between atoms: C_12  and  N_13 
REMARK    4  A    between atoms: N_13  and  N_14 
REMARK       I    between atoms: N_14  and  C_15 
REMARK    5  A    between atoms: C_15  and  C_16 
REMARK    6  A    between atoms: C_17  and  C_18 
ROOT
HETATM    1  C   UNL     1      25.813  47.908  49.598  1.00  0.00     0.288 C 
HETATM    2  N   UNL     1      25.499  47.090  50.662  1.00  0.00    -0.262 N 
HETATM    3  O   UNL     1      26.946  47.948  49.120  1.00  0.00    -0.264 OA
HETATM    4  H   UNL     1      24.560  46.976  51.032  1.00  0.00     0.190 HD
ENDROOT
BRANCH   1   5
HETATM    5  C   UNL     1      24.738  48.716  49.095  1.00  0.00     0.121 A 
HETATM    6  N   UNL     1      24.942  49.640  48.109  1.00  0.00    -0.272 N 
HETATM    7  N   UNL     1      23.852  50.349  47.784  1.00  0.00    -0.174 NA
HETATM    8  H   UNL     1      25.817  49.840  47.634  1.00  0.00     0.189 HD
HETATM    9  C   UNL     1      22.881  49.863  48.576  1.00  0.00     0.089 A 
HETATM   10  C   UNL     1      23.397  48.826  49.405  1.00  0.00     0.071 A 
BRANCH   9  11
HETATM   11  C   UNL     1      21.520  50.409  48.544  1.00  0.00    -0.005 A 
HETATM   12  C   UNL     1      20.939  50.981  49.682  1.00  0.00     0.016 A 
HETATM   13  C   UNL     1      19.650  51.524  49.623  1.00  0.00     0.037 A 
HETATM   14  C   UNL     1      18.921  51.512  48.431  1.00  0.00     0.068 A 
HETATM   15  C   UNL     1      19.487  50.930  47.299  1.00  0.00     0.037 A 
HETATM   16  C   UNL     1      20.775  50.382  47.357  1.00  0.00     0.016 A 
BRANCH  14  17
HETATM   17  O   UNL     1      17.684  52.087  48.509  1.00  0.00    -0.356 OA
HETATM   18  C   UNL     1      17.336  52.689  49.749  1.00  0.00     0.210 C 
ENDBRANCH  14  17
ENDBRANCH   9  11
ENDBRANCH   1   5
BRANCH   2  19
HETATM   19  N   UNL     1      26.492  46.269  51.197  1.00  0.00    -0.267 N 
HETATM   20  C   UNL     1      26.240  44.927  51.345  1.00  0.00     0.240 C 
HETATM   21  O   UNL     1      25.186  44.383  51.035  1.00  0.00    -0.271 OA
HETATM   22  H   UNL     1      27.352  46.715  51.514  1.00  0.00     0.190 HD
BRANCH  20  23
HETATM   23  C   UNL     1      27.365  44.178  51.951  1.00  0.00     0.089 A 
HETATM   24  C   UNL     1      27.270  43.828  53.430  1.00  0.00     0.036 A 
HETATM   25  C   UNL     1      27.242  42.742  52.385  1.00  0.00     0.025 A 
BRANCH  24  26
HETATM   26  C   UNL     1      28.475  44.091  54.298  1.00  0.00    -0.015 A 
HETATM   27  C   UNL     1      28.606  45.303  54.996  1.00  0.00     0.123 A 
HETATM   28  F   UNL     1      27.656  46.242  54.859  1.00  0.00    -0.206 F 
HETATM   29  C   UNL     1      29.692  45.572  55.826  1.00  0.00     0.043 A 
HETATM   30  C   UNL     1      30.693  44.618  55.976  1.00  0.00     0.003 A 
HETATM   31  C   UNL     1      30.594  43.402  55.300  1.00  0.00     0.001 A 
HETATM   32  C   UNL     1      29.495  43.142  54.475  1.00  0.00     0.011 A 
ENDBRANCH  24  26
ENDBRANCH  20  23
ENDBRANCH   2  19
TORSDOF 6
ENDMDL
MODEL 3
REMARK VINA RESULT:      -9.6      2.703     11.159
REMARK  6 active torsions:
REMARK  status: ('A' for Active; 'I' for Inactive)
REMARK    1  A    between atoms: O_2  and  C_3 
REMARK    2  A    between atoms: C_6  and  C_7 
REMARK    3  A    between atoms: C_11  and  C_12 
REMARK       I    between atoms: C_12  and  N_13 
REMARK    4  A    between atoms: N_13  and  N_14 
REMARK       I    between atoms: N_14  and  C_15 
REMARK    5  A    between atoms: C_15  and  C_16 
REMARK    6  A    between atoms: C_17  and  C_18 
ROOT
HETATM    1  C   UNL     1      25.171  47.348  50.312  1.00  0.00     0.288 C 
HETATM    2  N   UNL     1      25.209  46.095  50.884  1.00  0.00    -0.262 N 
HETATM    3  O   UNL     1      26.157  48.083  50.287  1.00  0.00    -0.264 OA
HETATM    4  H   UNL     1      24.438  45.434  50.857  1.00  0.00     0.190 HD
ENDROOT
BRANCH   1   5
HETATM    5  C   UNL     1      23.904  47.743  49.762  1.00  0.00     0.121 A 
HETATM    6  N   UNL     1      23.026  46.823  49.262  1.00  0.00    -0.272 N 
HETATM    7  N   UNL     1      21.912  47.353  48.740  1.00  0.00    -0.174 NA
HETATM    8  H   UNL     1      23.150  45.815  49.238  1.00  0.00     0.189 HD
HETATM    9  C   UNL     1      22.048  48.677  48.916  1.00  0.00     0.089 A 
HETATM   10  C   UNL     1      23.283  48.961  49.567  1.00  0.00     0.071 A 
BRANCH   9  11
HETATM   11  C   UNL     1      21.034  49.623  48.441  1.00  0.00    -0.005 A 
HETATM   12  C   UNL     1      20.109  49.265  47.453  1.00  0.00     0.016 A 
HETATM   13  C   UNL     1      19.129  50.173  47.036  1.00  0.00     0.037 A 
HETATM   14  C   UNL     1      19.050  51.450  47.597  1.00  0.00     0.068 A 
HETATM   15  C   UNL     1      19.976  51.820  48.570  1.00  0.00     0.037 A 
HETATM   16  C   UNL     1      20.960  50.913  48.985  1.00  0.00     0.016 A 
BRANCH  14  17
HETATM   17  O   UNL     1      18.039  52.229  47.110  1.00  0.00    -0.356 OA
HETATM   18  C   UNL     1      16.740  51.999  47.642  1.00  0.00     0.210 C 
ENDBRANCH  14  17
ENDBRANCH   9  11
ENDBRANCH   1   5
BRANCH   2  19
HETATM   19  N   UNL     1      26.409  45.640  51.431  1.00  0.00    -0.267 N 
HETATM   20  C   UNL     1      26.779  44.331  51.234  1.00  0.00     0.240 C 
HETATM   21  O   UNL     1      26.120  43.515  50.599  1.00  0.00    -0.271 OA
HETATM   22  H   UNL     1      26.939  46.290  52.010  1.00  0.00     0.190 HD
BRANCH  20  23
HETATM   23  C   UNL     1      28.057  43.974  51.892  1.00  0.00     0.089 A 
HETATM   24  C   UNL     1      27.992  43.374  53.289  1.00  0.00     0.036 A 
HETATM   25  C   UNL     1      28.476  42.547  52.126  1.00  0.00     0.025 A 
BRANCH  24  26
HETATM   26  C   UNL     1      28.925  43.924  54.340  1.00  0.00    -0.015 A 
HETATM   27  C   UNL     1      28.700  45.190  54.906  1.00  0.00     0.123 A 
HETATM   28  F   UNL     1      27.658  45.922  54.479  1.00  0.00    -0.206 F 
HETATM   29  C   UNL     1      29.525  45.721  55.894  1.00  0.00     0.043 A 
HETATM   30  C   UNL     1      30.617  44.985  56.346  1.00  0.00     0.003 A 
HETATM   31  C   UNL     1      30.868  43.724  55.808  1.00  0.00     0.001 A 
HETATM   32  C   UNL     1      30.027  43.199  54.820  1.00  0.00     0.011 A 
ENDBRANCH  24  26
ENDBRANCH  20  23
ENDBRANCH   2  19
TORSDOF 6
ENDMDL
MODEL 4
REMARK VINA RESULT:      -9.3      2.138      2.720
REMARK  6 active torsions:
REMARK  status: ('A' for Active; 'I' for Inactive)
REMARK    1  A    between atoms: O_2  and  C_3 
REMARK    2  A    between atoms: C_6  and  C_7 
REMARK    3  A    between atoms: C_11  and  C_12 
REMARK       I    between atoms: C_12  and  N_13 
REMARK    4  A    between atoms: N_13  and  N_14 
REMARK       I    between atoms: N_14  and  C_15 
REMARK    5  A    between atoms: C_15  and  C_16 
REMARK    6  A    between atoms: C_17  and  C_18 
ROOT
HETATM    1  C   UNL     1      23.994  46.087  49.514  1.00  0.00     0.288 C 
HETATM    2  N   UNL     1      23.661  47.350  49.954  1.00  0.00    -0.262 N 
HETATM    3  O   UNL     1      23.300  45.475  48.704  1.00  0.00    -0.264 OA
HETATM    4  H   UNL     1      24.248  47.913  50.563  1.00  0.00     0.190 HD
ENDROOT
BRANCH   1   5
HETATM    5  C   UNL     1      25.194  45.530  50.073  1.00  0.00     0.121 A 
HETATM    6  N   UNL     1      26.133  44.924  49.286  1.00  0.00    -0.272 N 
HETATM    7  N   UNL     1      27.170  44.411  49.961  1.00  0.00    -0.174 NA
HETATM    8  H   UNL     1      26.103  44.819  48.276  1.00  0.00     0.189 HD
HETATM    9  C   UNL     1      26.918  44.703  51.248  1.00  0.00     0.089 A 
HETATM   10  C   UNL     1      25.691  45.418  51.357  1.00  0.00     0.071 A 
BRANCH   9  11
HETATM   11  C   UNL     1      27.819  44.276  52.323  1.00  0.00    -0.005 A 
HETATM   12  C   UNL     1      27.628  44.697  53.644  1.00  0.00     0.016 A 
HETATM   13  C   UNL     1      28.481  44.253  54.660  1.00  0.00     0.037 A 
HETATM   14  C   UNL     1      29.535  43.380  54.381  1.00  0.00     0.068 A 
HETATM   15  C   UNL     1      29.742  42.969  53.066  1.00  0.00     0.037 A 
HETATM   16  C   UNL     1      28.892  43.416  52.047  1.00  0.00     0.016 A 
BRANCH  14  17
HETATM   17  O   UNL     1      30.281  43.015  55.466  1.00  0.00    -0.356 OA
HETATM   18  C   UNL     1      31.054  44.037  56.084  1.00  0.00     0.210 C 
ENDBRANCH  14  17
ENDBRANCH   9  11
ENDBRANCH   1   5
BRANCH   2  19
HETATM   19  N   UNL     1      22.512  47.958  49.447  1.00  0.00    -0.267 N 
HETATM   20  C   UNL     1      22.482  49.326  49.320  1.00  0.00     0.240 C 
HETATM   21  O   UNL     1      23.408  50.069  49.625  1.00  0.00    -0.271 OA
HETATM   22  H   UNL     1      21.713  47.360  49.244  1.00  0.00     0.190 HD
BRANCH  20  23
HETATM   23  C   UNL     1      21.195  49.842  48.799  1.00  0.00     0.089 A 
HETATM   24  C   UNL     1      19.996  49.835  49.737  1.00  0.00     0.036 A 
HETATM   25  C   UNL     1      20.592  51.138  49.271  1.00  0.00     0.025 A 
BRANCH  24  26
HETATM   26  C   UNL     1      18.687  49.304  49.207  1.00  0.00    -0.015 A 
HETATM   27  C   UNL     1      18.440  47.922  49.161  1.00  0.00     0.123 A 
HETATM   28  F   UNL     1      19.397  47.072  49.567  1.00  0.00    -0.206 F 
HETATM   29  C   UNL     1      17.236  47.395  48.701  1.00  0.00     0.043 A 
HETATM   30  C   UNL     1      16.232  48.255  48.265  1.00  0.00     0.003 A 
HETATM   31  C   UNL     1      16.442  49.633  48.300  1.00  0.00     0.001 A 
HETATM   32  C   UNL     1      17.655  50.149  48.771  1.00  0.00     0.011 A 
ENDBRANCH  24  26
ENDBRANCH  20  23
ENDBRANCH   2  19
TORSDOF 6
ENDMDL
MODEL 5
REMARK VINA RESULT:      -9.1      7.101     11.123
REMARK  6 active torsions:
REMARK  status: ('A' for Active; 'I' for Inactive)
REMARK    1  A    between atoms: O_2  and  C_3 
REMARK    2  A    between atoms: C_6  and  C_7 
REMARK    3  A    between atoms: C_11  and  C_12 
REMARK       I    between atoms: C_12  and  N_13 
REMARK    4  A    between atoms: N_13  and  N_14 
REMARK       I    between atoms: N_14  and  C_15 
REMARK    5  A    between atoms: C_15  and  C_16 
REMARK    6  A    between atoms: C_17  and  C_18 
ROOT
HETATM    1  C   UNL     1      28.101  40.960  51.732  1.00  0.00     0.288 C 
HETATM    2  N   UNL     1      27.091  41.783  52.181  1.00  0.00    -0.262 N 
HETATM    3  O   UNL     1      29.175  40.863  52.325  1.00  0.00    -0.264 OA
HETATM    4  H   UNL     1      26.168  41.831  51.760  1.00  0.00     0.190 HD
ENDROOT
BRANCH   1   5
HETATM    5  C   UNL     1      27.824  40.237  50.523  1.00  0.00     0.121 A 
HETATM    6  N   UNL     1      26.676  39.511  50.374  1.00  0.00    -0.272 N 
HETATM    7  N   UNL     1      26.587  38.853  49.210  1.00  0.00    -0.174 NA
HETATM    8  H   UNL     1      25.923  39.417  51.050  1.00  0.00     0.189 HD
HETATM    9  C   UNL     1      27.714  39.169  48.552  1.00  0.00     0.089 A 
HETATM   10  C   UNL     1      28.512  40.048  49.341  1.00  0.00     0.071 A 
BRANCH   9  11
HETATM   11  C   UNL     1      28.013  38.613  47.229  1.00  0.00    -0.005 A 
HETATM   12  C   UNL     1      27.566  39.238  46.059  1.00  0.00     0.016 A 
HETATM   13  C   UNL     1      27.888  38.707  44.804  1.00  0.00     0.037 A 
HETATM   14  C   UNL     1      28.663  37.551  44.693  1.00  0.00     0.068 A 
HETATM   15  C   UNL     1      29.098  36.914  45.853  1.00  0.00     0.037 A 
HETATM   16  C   UNL     1      28.773  37.441  47.109  1.00  0.00     0.016 A 
BRANCH  14  17
HETATM   17  O   UNL     1      28.915  37.149  43.411  1.00  0.00    -0.356 OA
HETATM   18  C   UNL     1      29.687  35.965  43.252  1.00  0.00     0.210 C 
ENDBRANCH  14  17
ENDBRANCH   9  11
ENDBRANCH   1   5
BRANCH   2  19
HETATM   19  N   UNL     1      27.287  42.510  53.356  1.00  0.00    -0.267 N 
HETATM   20  C   UNL     1      27.254  43.883  53.304  1.00  0.00     0.240 C 
HETATM   21  O   UNL     1      27.062  44.531  52.282  1.00  0.00    -0.271 OA
HETATM   22  H   UNL     1      27.506  41.987  54.202  1.00  0.00     0.190 HD
BRANCH  20  23
HETATM   23  C   UNL     1      27.506  44.529  54.613  1.00  0.00     0.089 A 
HETATM   24  C   UNL     1      28.778  45.352  54.765  1.00  0.00     0.036 A 
HETATM   25  C   UNL     1      27.427  46.019  54.809  1.00  0.00     0.025 A 
BRANCH  24  26
HETATM   26  C   UNL     1      29.618  45.135  55.999  1.00  0.00    -0.015 A 
HETATM   27  C   UNL     1      30.600  44.131  56.030  1.00  0.00     0.123 A 
HETATM   28  F   UNL     1      30.764  43.343  54.955  1.00  0.00    -0.206 F 
HETATM   29  C   UNL     1      31.411  43.916  57.142  1.00  0.00     0.043 A 
HETATM   30  C   UNL     1      31.253  44.713  58.271  1.00  0.00     0.003 A 
HETATM   31  C   UNL     1      30.290  45.721  58.274  1.00  0.00     0.001 A 
HETATM   32  C   UNL     1      29.486  45.931  57.148  1.00  0.00     0.011 A 
ENDBRANCH  24  26
ENDBRANCH  20  23
ENDBRANCH   2  19
TORSDOF 6
ENDMDL
MODEL 6
REMARK VINA RESULT:      -8.9      2.238      3.642
REMARK  6 active torsions:
REMARK  status: ('A' for Active; 'I' for Inactive)
REMARK    1  A    between atoms: O_2  and  C_3 
REMARK    2  A    between atoms: C_6  and  C_7 
REMARK    3  A    between atoms: C_11  and  C_12 
REMARK       I    between atoms: C_12  and  N_13 
REMARK    4  A    between atoms: N_13  and  N_14 
REMARK       I    between atoms: N_14  and  C_15 
REMARK    5  A    between atoms: C_15  and  C_16 
REMARK    6  A    between atoms: C_17  and  C_18 
ROOT
HETATM    1  C   UNL     1      23.401  48.279  49.109  1.00  0.00     0.288 C 
HETATM    2  N   UNL     1      22.099  48.539  49.479  1.00  0.00    -0.262 N 
HETATM    3  O   UNL     1      23.927  48.832  48.145  1.00  0.00    -0.264 OA
HETATM    4  H   UNL     1      21.657  48.158  50.312  1.00  0.00     0.190 HD
ENDROOT
BRANCH   1   5
HETATM    5  C   UNL     1      24.095  47.312  49.913  1.00  0.00     0.121 A 
HETATM    6  N   UNL     1      23.684  46.010  49.977  1.00  0.00    -0.272 N 
HETATM    7  N   UNL     1      24.404  45.245  50.808  1.00  0.00    -0.174 NA
HETATM    8  H   UNL     1      22.900  45.595  49.481  1.00  0.00     0.189 HD
HETATM    9  C   UNL     1      25.342  46.069  51.304  1.00  0.00     0.089 A 
HETATM   10  C   UNL     1      25.188  47.374  50.755  1.00  0.00     0.071 A 
BRANCH   9  11
HETATM   11  C   UNL     1      26.323  45.609  52.292  1.00  0.00    -0.005 A 
HETATM   12  C   UNL     1      27.097  44.464  52.072  1.00  0.00     0.016 A 
HETATM   13  C   UNL     1      28.049  44.060  53.014  1.00  0.00     0.037 A 
HETATM   14  C   UNL     1      28.252  44.790  54.187  1.00  0.00     0.068 A 
HETATM   15  C   UNL     1      27.475  45.923  54.421  1.00  0.00     0.037 A 
HETATM   16  C   UNL     1      26.518  46.326  53.481  1.00  0.00     0.016 A 
BRANCH  14  17
HETATM   17  O   UNL     1      29.221  44.294  55.013  1.00  0.00    -0.356 OA
HETATM   18  C   UNL     1      29.807  43.053  54.637  1.00  0.00     0.210 C 
ENDBRANCH  14  17
ENDBRANCH   9  11
ENDBRANCH   1   5
BRANCH   2  19
HETATM   19  N   UNL     1      21.365  49.474  48.749  1.00  0.00    -0.267 N 
HETATM   20  C   UNL     1      20.987  50.647  49.356  1.00  0.00     0.240 C 
HETATM   21  O   UNL     1      21.251  50.941  50.516  1.00  0.00    -0.271 OA
HETATM   22  H   UNL     1      21.087  49.219  47.802  1.00  0.00     0.190 HD
BRANCH  20  23
HETATM   23  C   UNL     1      20.189  51.535  48.479  1.00  0.00     0.089 A 
HETATM   24  C   UNL     1      18.781  51.089  48.110  1.00  0.00     0.036 A 
HETATM   25  C   UNL     1      18.994  52.303  48.977  1.00  0.00     0.025 A 
BRANCH  24  26
HETATM   26  C   UNL     1      18.365  51.186  46.663  1.00  0.00    -0.015 A 
HETATM   27  C   UNL     1      18.704  50.173  45.750  1.00  0.00     0.123 A 
HETATM   28  F   UNL     1      19.431  49.127  46.174  1.00  0.00    -0.206 F 
HETATM   29  C   UNL     1      18.318  50.216  44.413  1.00  0.00     0.043 A 
HETATM   30  C   UNL     1      17.572  51.294  43.947  1.00  0.00     0.003 A 
HETATM   31  C   UNL     1      17.216  52.316  44.827  1.00  0.00     0.001 A 
HETATM   32  C   UNL     1      17.605  52.258  46.170  1.00  0.00     0.011 A 
ENDBRANCH  24  26
ENDBRANCH  20  23
ENDBRANCH   2  19
TORSDOF 6
ENDMDL
MODEL 7
REMARK VINA RESULT:      -8.8      1.915      2.378
REMARK  6 active torsions:
REMARK  status: ('A' for Active; 'I' for Inactive)
REMARK    1  A    between atoms: O_2  and  C_3 
REMARK    2  A    between atoms: C_6  and  C_7 
REMARK    3  A    between atoms: C_11  and  C_12 
REMARK       I    between atoms: C_12  and  N_13 
REMARK    4  A    between atoms: N_13  and  N_14 
REMARK       I    between atoms: N_14  and  C_15 
REMARK    5  A    between atoms: C_15  and  C_16 
REMARK    6  A    between atoms: C_17  and  C_18 
ROOT
HETATM    1  C   UNL     1      24.414  46.634  50.252  1.00  0.00     0.288 C 
HETATM    2  N   UNL     1      23.386  45.991  49.597  1.00  0.00    -0.262 N 
HETATM    3  O   UNL     1      24.451  47.858  50.366  1.00  0.00    -0.264 OA
HETATM    4  H   UNL     1      23.285  44.982  49.550  1.00  0.00     0.190 HD
ENDROOT
BRANCH   1   5
HETATM    5  C   UNL     1      25.444  45.782  50.780  1.00  0.00     0.121 A 
HETATM    6  N   UNL     1      25.774  44.603  50.173  1.00  0.00    -0.272 N 
HETATM    7  N   UNL     1      26.718  43.900  50.813  1.00  0.00    -0.174 NA
HETATM    8  H   UNL     1      25.368  44.222  49.324  1.00  0.00     0.189 HD
HETATM    9  C   UNL     1      27.039  44.651  51.879  1.00  0.00     0.089 A 
HETATM   10  C   UNL     1      26.269  45.849  51.885  1.00  0.00     0.071 A 
BRANCH   9  11
HETATM   11  C   UNL     1      28.031  44.204  52.863  1.00  0.00    -0.005 A 
HETATM   12  C   UNL     1      29.037  43.294  52.520  1.00  0.00     0.016 A 
HETATM   13  C   UNL     1      29.993  42.904  53.466  1.00  0.00     0.037 A 
HETATM   14  C   UNL     1      29.966  43.416  54.765  1.00  0.00     0.068 A 
HETATM   15  C   UNL     1      28.958  44.311  55.119  1.00  0.00     0.037 A 
HETATM   16  C   UNL     1      27.998  44.699  54.174  1.00  0.00     0.016 A 
BRANCH  14  17
HETATM   17  O   UNL     1      30.964  42.964  55.581  1.00  0.00    -0.356 OA
HETATM   18  C   UNL     1      31.403  43.848  56.605  1.00  0.00     0.210 C 
ENDBRANCH  14  17
ENDBRANCH   9  11
ENDBRANCH   1   5
BRANCH   2  19
HETATM   19  N   UNL     1      22.345  46.754  49.067  1.00  0.00    -0.267 N 
HETATM   20  C   UNL     1      21.229  46.115  48.582  1.00  0.00     0.240 C 
HETATM   21  O   UNL     1      21.075  44.899  48.581  1.00  0.00    -0.271 OA
HETATM   22  H   UNL     1      22.483  47.762  49.007  1.00  0.00     0.190 HD
BRANCH  20  23
HETATM   23  C   UNL     1      20.216  47.040  48.022  1.00  0.00     0.089 A 
HETATM   24  C   UNL     1      20.714  48.260  47.259  1.00  0.00     0.036 A 
HETATM   25  C   UNL     1      19.965  47.166  46.543  1.00  0.00     0.025 A 
BRANCH  24  26
HETATM   26  C   UNL     1      20.092  49.597  47.579  1.00  0.00    -0.015 A 
HETATM   27  C   UNL     1      20.568  50.371  48.650  1.00  0.00     0.123 A 
HETATM   28  F   UNL     1      21.568  49.894  49.409  1.00  0.00    -0.206 F 
HETATM   29  C   UNL     1      20.036  51.620  48.961  1.00  0.00     0.043 A 
HETATM   30  C   UNL     1      18.993  52.131  48.195  1.00  0.00     0.003 A 
HETATM   31  C   UNL     1      18.498  51.390  47.122  1.00  0.00     0.001 A 
HETATM   32  C   UNL     1      19.046  50.140  46.817  1.00  0.00     0.011 A 
ENDBRANCH  24  26
ENDBRANCH  20  23
ENDBRANCH   2  19
TORSDOF 6
ENDMDL
MODEL 8
REMARK VINA RESULT:      -8.7      1.780      2.544
REMARK  6 active torsions:
REMARK  status: ('A' for Active; 'I' for Inactive)
REMARK    1  A    between atoms: O_2  and  C_3 
REMARK    2  A    between atoms: C_6  and  C_7 
REMARK    3  A    between atoms: C_11  and  C_12 
REMARK       I    between atoms: C_12  and  N_13 
REMARK    4  A    between atoms: N_13  and  N_14 
REMARK       I    between atoms: N_14  and  C_15 
REMARK    5  A    between atoms: C_15  and  C_16 
REMARK    6  A    between atoms: C_17  and  C_18 
ROOT
HETATM    1  C   UNL     1      24.416  47.658  50.025  1.00  0.00     0.288 C 
HETATM    2  N   UNL     1      23.063  47.429  49.896  1.00  0.00    -0.262 N 
HETATM    3  O   UNL     1      24.941  48.699  49.630  1.00  0.00    -0.264 OA
HETATM    4  H   UNL     1      22.586  46.617  50.276  1.00  0.00     0.190 HD
ENDROOT
BRANCH   1   5
HETATM    5  C   UNL     1      25.171  46.600  50.635  1.00  0.00     0.121 A 
HETATM    6  N   UNL     1      24.845  45.288  50.441  1.00  0.00    -0.272 N 
HETATM    7  N   UNL     1      25.614  44.424  51.118  1.00  0.00    -0.174 NA
HETATM    8  H   UNL     1      24.090  44.927  49.865  1.00  0.00     0.189 HD
HETATM    9  C   UNL     1      26.497  45.193  51.775  1.00  0.00     0.089 A 
HETATM   10  C   UNL     1      26.258  46.568  51.486  1.00  0.00     0.071 A 
BRANCH   9  11
HETATM   11  C   UNL     1      27.506  44.614  52.667  1.00  0.00    -0.005 A 
HETATM   12  C   UNL     1      28.387  43.621  52.224  1.00  0.00     0.016 A 
HETATM   13  C   UNL     1      29.362  43.104  53.083  1.00  0.00     0.037 A 
HETATM   14  C   UNL     1      29.482  43.568  54.395  1.00  0.00     0.068 A 
HETATM   15  C   UNL     1      28.599  44.545  54.849  1.00  0.00     0.037 A 
HETATM   16  C   UNL     1      27.618  45.061  53.992  1.00  0.00     0.016 A 
BRANCH  14  17
HETATM   17  O   UNL     1      30.484  42.989  55.121  1.00  0.00    -0.356 OA
HETATM   18  C   UNL     1      31.053  43.771  56.163  1.00  0.00     0.210 C 
ENDBRANCH  14  17
ENDBRANCH   9  11
ENDBRANCH   1   5
BRANCH   2  19
HETATM   19  N   UNL     1      22.264  48.417  49.319  1.00  0.00    -0.267 N 
HETATM   20  C   UNL     1      21.163  48.043  48.589  1.00  0.00     0.240 C 
HETATM   21  O   UNL     1      20.820  46.881  48.401  1.00  0.00    -0.271 OA
HETATM   22  H   UNL     1      22.568  49.385  49.417  1.00  0.00     0.190 HD
BRANCH  20  23
HETATM   23  C   UNL     1      20.422  49.187  48.009  1.00  0.00     0.089 A 
HETATM   24  C   UNL     1      19.736  50.148  48.971  1.00  0.00     0.036 A 
HETATM   25  C   UNL     1      20.902  50.609  48.133  1.00  0.00     0.025 A 
BRANCH  24  26
HETATM   26  C   UNL     1      18.313  50.550  48.674  1.00  0.00    -0.015 A 
HETATM   27  C   UNL     1      17.968  51.902  48.514  1.00  0.00     0.123 A 
HETATM   28  F   UNL     1      18.917  52.841  48.658  1.00  0.00    -0.206 F 
HETATM   29  C   UNL     1      16.670  52.310  48.215  1.00  0.00     0.043 A 
HETATM   30  C   UNL     1      15.667  51.356  48.070  1.00  0.00     0.003 A 
HETATM   31  C   UNL     1      15.975  50.005  48.219  1.00  0.00     0.001 A 
HETATM   32  C   UNL     1      17.284  49.608  48.512  1.00  0.00     0.011 A 
ENDBRANCH  24  26
ENDBRANCH  20  23
ENDBRANCH   2  19
TORSDOF 6
ENDMDL
MODEL 9
REMARK VINA RESULT:      -8.5      3.625     11.060
REMARK  6 active torsions:
REMARK  status: ('A' for Active; 'I' for Inactive)
REMARK    1  A    between atoms: O_2  and  C_3 
REMARK    2  A    between atoms: C_6  and  C_7 
REMARK    3  A    between atoms: C_11  and  C_12 
REMARK       I    between atoms: C_12  and  N_13 
REMARK    4  A    between atoms: N_13  and  N_14 
REMARK       I    between atoms: N_14  and  C_15 
REMARK    5  A    between atoms: C_15  and  C_16 
REMARK    6  A    between atoms: C_17  and  C_18 
ROOT
HETATM    1  C   UNL     1      25.362  46.651  50.820  1.00  0.00     0.288 C 
HETATM    2  N   UNL     1      25.843  45.361  50.750  1.00  0.00    -0.262 N 
HETATM    3  O   UNL     1      25.874  47.499  51.550  1.00  0.00    -0.264 OA
HETATM    4  H   UNL     1      25.493  44.658  50.105  1.00  0.00     0.190 HD
ENDROOT
BRANCH   1   5
HETATM    5  C   UNL     1      24.218  46.934  49.999  1.00  0.00     0.121 A 
HETATM    6  N   UNL     1      23.706  48.197  49.901  1.00  0.00    -0.272 N 
HETATM    7  N   UNL     1      22.610  48.289  49.136  1.00  0.00    -0.174 NA
HETATM    8  H   UNL     1      24.060  49.034  50.355  1.00  0.00     0.189 HD
HETATM    9  C   UNL     1      22.396  47.039  48.694  1.00  0.00     0.089 A 
HETATM   10  C   UNL     1      23.394  46.161  49.205  1.00  0.00     0.071 A 
BRANCH   9  11
HETATM   11  C   UNL     1      21.250  46.712  47.838  1.00  0.00    -0.005 A 
HETATM   12  C   UNL     1      21.411  46.468  46.470  1.00  0.00     0.016 A 
HETATM   13  C   UNL     1      20.309  46.128  45.676  1.00  0.00     0.037 A 
HETATM   14  C   UNL     1      19.032  46.019  46.232  1.00  0.00     0.068 A 
HETATM   15  C   UNL     1      18.861  46.275  47.591  1.00  0.00     0.037 A 
HETATM   16  C   UNL     1      19.963  46.621  48.385  1.00  0.00     0.016 A 
BRANCH  14  17
HETATM   17  O   UNL     1      18.050  45.667  45.350  1.00  0.00    -0.356 OA
HETATM   18  C   UNL     1      16.885  46.483  45.330  1.00  0.00     0.210 C 
ENDBRANCH  14  17
ENDBRANCH   9  11
ENDBRANCH   1   5
BRANCH   2  19
HETATM   19  N   UNL     1      26.958  45.016  51.515  1.00  0.00    -0.267 N 
HETATM   20  C   UNL     1      27.608  43.835  51.251  1.00  0.00     0.240 C 
HETATM   21  O   UNL     1      27.276  43.044  50.376  1.00  0.00    -0.271 OA
HETATM   22  H   UNL     1      27.211  45.635  52.284  1.00  0.00     0.190 HD
BRANCH  20  23
HETATM   23  C   UNL     1      28.754  43.577  52.154  1.00  0.00     0.089 A 
HETATM   24  C   UNL     1      28.449  43.183  53.592  1.00  0.00     0.036 A 
HETATM   25  C   UNL     1      29.098  42.199  52.653  1.00  0.00     0.025 A 
BRANCH  24  26
HETATM   26  C   UNL     1      29.210  43.880  54.693  1.00  0.00    -0.015 A 
HETATM   27  C   UNL     1      28.723  45.068  55.261  1.00  0.00     0.123 A 
HETATM   28  F   UNL     1      27.581  45.597  54.791  1.00  0.00    -0.206 F 
HETATM   29  C   UNL     1      29.384  45.727  56.294  1.00  0.00     0.043 A 
HETATM   30  C   UNL     1      30.574  45.203  56.791  1.00  0.00     0.003 A 
HETATM   31  C   UNL     1      31.086  44.023  56.253  1.00  0.00     0.001 A 
HETATM   32  C   UNL     1      30.407  43.368  55.219  1.00  0.00     0.011 A 
ENDBRANCH  24  26
ENDBRANCH  20  23
ENDBRANCH   2  19
TORSDOF 6
ENDMDL
MODEL 10
REMARK VINA RESULT:      -8.4      6.270     11.573
REMARK  6 active torsions:
REMARK  status: ('A' for Active; 'I' for Inactive)
REMARK    1  A    between atoms: O_2  and  C_3 
REMARK    2  A    between atoms: C_6  and  C_7 
REMARK    3  A    between atoms: C_11  and  C_12 
REMARK       I    between atoms: C_12  and  N_13 
REMARK    4  A    between atoms: N_13  and  N_14 
REMARK       I    between atoms: N_14  and  C_15 
REMARK    5  A    between atoms: C_15  and  C_16 
REMARK    6  A    between atoms: C_17  and  C_18 
ROOT
HETATM    1  C   UNL     1      24.580  43.082  51.038  1.00  0.00     0.288 C 
HETATM    2  N   UNL     1      25.715  42.711  51.726  1.00  0.00    -0.262 N 
HETATM    3  O   UNL     1      23.893  44.043  51.382  1.00  0.00    -0.264 OA
HETATM    4  H   UNL     1      26.345  41.973  51.428  1.00  0.00     0.190 HD
ENDROOT
BRANCH   1   5
HETATM    5  C   UNL     1      24.246  42.267  49.904  1.00  0.00     0.121 A 
HETATM    6  N   UNL     1      25.159  41.420  49.341  1.00  0.00    -0.272 N 
HETATM    7  N   UNL     1      24.711  40.766  48.261  1.00  0.00    -0.174 NA
HETATM    8  H   UNL     1      26.114  41.264  49.649  1.00  0.00     0.189 HD
HETATM    9  C   UNL     1      23.444  41.183  48.110  1.00  0.00     0.089 A 
HETATM   10  C   UNL     1      23.111  42.118  49.132  1.00  0.00     0.071 A 
BRANCH   9  11
HETATM   11  C   UNL     1      22.607  40.714  47.000  1.00  0.00    -0.005 A 
HETATM   12  C   UNL     1      21.542  39.832  47.214  1.00  0.00     0.016 A 
HETATM   13  C   UNL     1      20.738  39.420  46.145  1.00  0.00     0.037 A 
HETATM   14  C   UNL     1      20.975  39.884  44.849  1.00  0.00     0.068 A 
HETATM   15  C   UNL     1      22.042  40.751  44.626  1.00  0.00     0.037 A 
HETATM   16  C   UNL     1      22.852  41.160  45.694  1.00  0.00     0.016 A 
BRANCH  14  17
HETATM   17  O   UNL     1      20.106  39.415  43.904  1.00  0.00    -0.356 OA
HETATM   18  C   UNL     1      18.778  39.142  44.334  1.00  0.00     0.210 C 
ENDBRANCH  14  17
ENDBRANCH   9  11
ENDBRANCH   1   5
BRANCH   2  19
HETATM   19  N   UNL     1      26.106  43.464  52.834  1.00  0.00    -0.267 N 
HETATM   20  C   UNL     1      27.331  43.221  53.407  1.00  0.00     0.240 C 
HETATM   21  O   UNL     1      28.124  42.375  53.009  1.00  0.00    -0.271 OA
HETATM   22  H   UNL     1      25.434  44.130  53.213  1.00  0.00     0.190 HD
BRANCH  20  23
HETATM   23  C   UNL     1      27.608  44.067  54.591  1.00  0.00     0.089 A 
HETATM   24  C   UNL     1      28.907  44.861  54.608  1.00  0.00     0.036 A 
HETATM   25  C   UNL     1      27.579  45.571  54.536  1.00  0.00     0.025 A 
BRANCH  24  26
HETATM   26  C   UNL     1      29.742  44.824  55.864  1.00  0.00    -0.015 A 
HETATM   27  C   UNL     1      30.732  43.844  56.038  1.00  0.00     0.123 A 
HETATM   28  F   UNL     1      30.909  42.916  55.083  1.00  0.00    -0.206 F 
HETATM   29  C   UNL     1      31.538  43.792  57.172  1.00  0.00     0.043 A 
HETATM   30  C   UNL     1      31.367  44.736  58.180  1.00  0.00     0.003 A 
HETATM   31  C   UNL     1      30.395  45.726  58.039  1.00  0.00     0.001 A 
HETATM   32  C   UNL     1      29.596  45.771  56.891  1.00  0.00     0.011 A 
ENDBRANCH  24  26
ENDBRANCH  20  23
ENDBRANCH   2  19
TORSDOF 6
ENDMDL
