MODEL 1
REMARK VINA RESULT:      -9.5      0.000      0.000
REMARK  5 active torsions:
REMARK  status: ('A' for Active; 'I' for Inactive)
REMARK    1  A    between atoms: C_2  and  C_3 
REMARK    2  A    between atoms: C_8  and  C_9 
REMARK       I    between atoms: C_9  and  N_10 
REMARK    3  A    between atoms: N_10  and  C_11 
REMARK    4  A    between atoms: C_11  and  C_12 
REMARK    5  A    between atoms: C_19  and  C_20 
ROOT
HETATM    1  C   UNL     1      26.220  44.952  53.166  1.00  0.00     0.118 C 
HETATM    2  N   UNL     1      26.392  46.214  52.440  1.00  0.00    -0.366 N 
HETATM    3  C   UNL     1      25.530  46.505  51.445  1.00  0.00     0.123 A 
HETATM    4  N   UNL     1      25.052  45.507  50.652  1.00  0.00    -0.240 N 
HETATM    5  N   UNL     1      24.144  45.904  49.748  1.00  0.00    -0.165 NA
HETATM    6  C   UNL     1      24.116  47.249  49.908  1.00  0.00     0.148 A 
HETATM    7  C   UNL     1      24.987  47.664  50.958  1.00  0.00     0.088 A 
HETATM    8  C   UNL     1      25.462  44.129  50.802  1.00  0.00     0.221 C 
HETATM    9  C   UNL     1      25.696  43.793  52.286  1.00  0.00     0.066 C 
HETATM   10  H   UNL     1      26.692  46.978  53.050  1.00  0.00     0.161 HD
ENDROOT
BRANCH   6  11
HETATM   11  C   UNL     1      23.268  48.121  49.078  1.00  0.00     0.272 C 
HETATM   12  N   UNL     1      21.959  48.173  49.502  1.00  0.00    -0.353 N 
HETATM   13  H   UNL     1      21.709  47.489  50.211  1.00  0.00     0.162 HD
HETATM   14  O   UNL     1      23.688  48.724  48.095  1.00  0.00    -0.266 OA
BRANCH  12  15
HETATM   15  C   UNL     1      20.914  48.802  48.722  1.00  0.00     0.155 C 
BRANCH  15  16
HETATM   16  C   UNL     1      20.627  50.230  49.187  1.00  0.00     0.139 C 
HETATM   17  O   UNL     1      20.409  51.096  48.056  1.00  0.00    -0.384 OA
HETATM   18  C   UNL     1      19.519  52.145  48.466  1.00  0.00     0.168 C 
HETATM   19  C   UNL     1      19.021  51.808  49.860  1.00  0.00     0.029 C 
HETATM   20  C   UNL     1      19.354  50.343  50.006  1.00  0.00     0.035 C 
ENDBRANCH  15  16
ENDBRANCH  12  15
ENDBRANCH   6  11
BRANCH   8  21
HETATM   21  C   UNL     1      26.680  43.857  49.948  1.00  0.00     0.409 C 
HETATM   22  F   UNL     1      26.384  43.120  48.853  1.00  0.00    -0.169 F 
HETATM   23  F   UNL     1      27.319  44.968  49.533  1.00  0.00    -0.169 F 
HETATM   24  F   UNL     1      27.584  43.131  50.659  1.00  0.00    -0.169 F 
ENDBRANCH   8  21
BRANCH   1  25
HETATM   25  C   UNL     1      27.497  44.589  53.904  1.00  0.00    -0.035 A 
HETATM   26  C   UNL     1      28.105  45.534  54.749  1.00  0.00     0.011 A 
HETATM   27  C   UNL     1      29.278  45.222  55.443  1.00  0.00     0.024 A 
HETATM   28  C   UNL     1      29.850  43.960  55.303  1.00  0.00     0.034 A 
HETATM   29  C   UNL     1      29.260  43.009  54.477  1.00  0.00     0.024 A 
HETATM   30 CL   UNL     1      31.296  43.580  56.154  1.00  0.00    -0.084 Cl
HETATM   31  C   UNL     1      28.089  43.323  53.781  1.00  0.00     0.011 A 
ENDBRANCH   1  25
TORSDOF 5
ENDMDL
MODEL 2
REMARK VINA RESULT:      -9.4      0.742      1.294
REMARK  5 active torsions:
REMARK  status: ('A' for Active; 'I' for Inactive)
REMARK    1  A    between atoms: C_2  and  C_3 
REMARK    2  A    between atoms: C_8  and  C_9 
REMARK       I    between atoms: C_9  and  N_10 
REMARK    3  A    between atoms: N_10  and  C_11 
REMARK    4  A    between atoms: C_11  and  C_12 
REMARK    5  A    between atoms: C_19  and  C_20 
ROOT
HETATM    1  C   UNL     1      26.010  45.005  53.072  1.00  0.00     0.118 C 
HETATM    2  N   UNL     1      26.166  46.211  52.253  1.00  0.00    -0.366 N 
HETATM    3  C   UNL     1      25.299  46.414  51.240  1.00  0.00     0.123 A 
HETATM    4  N   UNL     1      24.834  45.353  50.526  1.00  0.00    -0.240 N 
HETATM    5  N   UNL     1      23.920  45.669  49.596  1.00  0.00    -0.165 NA
HETATM    6  C   UNL     1      23.875  47.021  49.654  1.00  0.00     0.148 A 
HETATM    7  C   UNL     1      24.741  47.526  50.668  1.00  0.00     0.088 A 
HETATM    8  C   UNL     1      25.262  43.996  50.779  1.00  0.00     0.221 C 
HETATM    9  C   UNL     1      25.501  43.776  52.284  1.00  0.00     0.066 C 
HETATM   10  H   UNL     1      26.456  47.022  52.803  1.00  0.00     0.161 HD
ENDROOT
BRANCH   6  11
HETATM   11  C   UNL     1      23.015  47.817  48.762  1.00  0.00     0.272 C 
HETATM   12  N   UNL     1      21.676  47.528  48.894  1.00  0.00    -0.353 N 
HETATM   13  H   UNL     1      21.466  46.703  49.451  1.00  0.00     0.162 HD
HETATM   14  O   UNL     1      23.456  48.642  47.967  1.00  0.00    -0.266 OA
BRANCH  12  15
HETATM   15  C   UNL     1      20.676  48.040  47.980  1.00  0.00     0.155 C 
BRANCH  15  16
HETATM   16  C   UNL     1      20.020  49.320  48.501  1.00  0.00     0.139 C 
HETATM   17  O   UNL     1      20.350  49.528  49.888  1.00  0.00    -0.384 OA
HETATM   18  C   UNL     1      20.341  50.941  50.138  1.00  0.00     0.168 C 
HETATM   19  C   UNL     1      20.178  51.644  48.802  1.00  0.00     0.029 C 
HETATM   20  C   UNL     1      20.516  50.569  47.798  1.00  0.00     0.035 C 
ENDBRANCH  15  16
ENDBRANCH  12  15
ENDBRANCH   6  11
BRANCH   8  21
HETATM   21  C   UNL     1      26.482  43.675  49.946  1.00  0.00     0.409 C 
HETATM   22  F   UNL     1      26.171  42.983  48.826  1.00  0.00    -0.169 F 
HETATM   23  F   UNL     1      27.193  44.757  49.575  1.00  0.00    -0.169 F 
HETATM   24  F   UNL     1      27.327  42.882  50.658  1.00  0.00    -0.169 F 
ENDBRANCH   8  21
BRANCH   1  25
HETATM   25  C   UNL     1      27.293  44.716  53.834  1.00  0.00    -0.035 A 
HETATM   26  C   UNL     1      27.894  43.450  53.729  1.00  0.00     0.011 A 
HETATM   27  C   UNL     1      29.077  43.160  54.417  1.00  0.00     0.024 A 
HETATM   28  C   UNL     1      29.672  44.137  55.211  1.00  0.00     0.034 A 
HETATM   29  C   UNL     1      29.096  45.399  55.323  1.00  0.00     0.024 A 
HETATM   30 CL   UNL     1      31.125  43.778  56.060  1.00  0.00    -0.084 Cl
HETATM   31  C   UNL     1      27.912  45.686  54.638  1.00  0.00     0.011 A 
ENDBRANCH   1  25
TORSDOF 5
ENDMDL
MODEL 3
REMARK VINA RESULT:      -9.2      5.592     10.554
REMARK  5 active torsions:
REMARK  status: ('A' for Active; 'I' for Inactive)
REMARK    1  A    between atoms: C_2  and  C_3 
REMARK    2  A    between atoms: C_8  and  C_9 
REMARK       I    between atoms: C_9  and  N_10 
REMARK    3  A    between atoms: N_10  and  C_11 
REMARK    4  A    between atoms: C_11  and  C_12 
REMARK    5  A    between atoms: C_19  and  C_20 
ROOT
HETATM    1  C   UNL     1      19.035  51.523  47.619  1.00  0.00     0.118 C 
HETATM    2  N   UNL     1      20.147  51.695  48.559  1.00  0.00    -0.366 N 
HETATM    3  C   UNL     1      21.266  50.968  48.370  1.00  0.00     0.123 A 
HETATM    4  N   UNL     1      21.172  49.694  47.899  1.00  0.00    -0.240 N 
HETATM    5  N   UNL     1      22.353  49.097  47.677  1.00  0.00    -0.165 NA
HETATM    6  C   UNL     1      23.249  50.007  48.126  1.00  0.00     0.148 A 
HETATM    7  C   UNL     1      22.600  51.192  48.583  1.00  0.00     0.088 A 
HETATM    8  C   UNL     1      19.905  49.056  47.625  1.00  0.00     0.221 C 
HETATM    9  C   UNL     1      18.890  50.080  47.082  1.00  0.00     0.066 C 
HETATM   10  H   UNL     1      20.254  52.665  48.863  1.00  0.00     0.161 HD
ENDROOT
BRANCH   6  11
HETATM   11  C   UNL     1      24.699  49.753  48.114  1.00  0.00     0.272 C 
HETATM   12  N   UNL     1      25.100  48.829  49.052  1.00  0.00    -0.353 N 
HETATM   13  H   UNL     1      24.391  48.572  49.733  1.00  0.00     0.162 HD
HETATM   14  O   UNL     1      25.473  50.326  47.352  1.00  0.00    -0.266 OA
BRANCH  12  15
HETATM   15  C   UNL     1      26.495  48.579  49.351  1.00  0.00     0.155 C 
BRANCH  15  16
HETATM   16  C   UNL     1      26.671  47.503  50.423  1.00  0.00     0.139 C 
HETATM   17  O   UNL     1      25.634  47.606  51.418  1.00  0.00    -0.384 OA
HETATM   18  C   UNL     1      25.402  46.295  51.954  1.00  0.00     0.168 C 
HETATM   19  C   UNL     1      26.203  45.309  51.122  1.00  0.00     0.029 C 
HETATM   20  C   UNL     1      26.538  46.093  49.876  1.00  0.00     0.035 C 
ENDBRANCH  15  16
ENDBRANCH  12  15
ENDBRANCH   6  11
BRANCH   8  21
HETATM   21  C   UNL     1      19.404  48.348  48.863  1.00  0.00     0.409 C 
HETATM   22  F   UNL     1      19.402  47.002  48.719  1.00  0.00    -0.169 F 
HETATM   23  F   UNL     1      20.099  48.638  49.980  1.00  0.00    -0.169 F 
HETATM   24  F   UNL     1      18.114  48.703  49.105  1.00  0.00    -0.169 F 
ENDBRANCH   8  21
BRANCH   1  25
HETATM   25  C   UNL     1      17.745  52.048  48.225  1.00  0.00    -0.035 A 
HETATM   26  C   UNL     1      16.568  52.057  47.457  1.00  0.00     0.011 A 
HETATM   27  C   UNL     1      15.367  52.532  47.994  1.00  0.00     0.024 A 
HETATM   28  C   UNL     1      15.331  52.996  49.306  1.00  0.00     0.034 A 
HETATM   29  C   UNL     1      16.484  52.989  50.085  1.00  0.00     0.024 A 
HETATM   30 CL   UNL     1      13.854  53.583  49.964  1.00  0.00    -0.084 Cl
HETATM   31  C   UNL     1      17.685  52.518  49.547  1.00  0.00     0.011 A 
ENDBRANCH   1  25
TORSDOF 5
ENDMDL
MODEL 4
REMARK VINA RESULT:      -9.2      2.243      3.241
REMARK  5 active torsions:
REMARK  status: ('A' for Active; 'I' for Inactive)
REMARK    1  A    between atoms: C_2  and  C_3 
REMARK    2  A    between atoms: C_8  and  C_9 
REMARK       I    between atoms: C_9  and  N_10 
REMARK    3  A    between atoms: N_10  and  C_11 
REMARK    4  A    between atoms: C_11  and  C_12 
REMARK    5  A    between atoms: C_19  and  C_20 
ROOT
HETATM    1  C   UNL     1      27.015  45.233  54.332  1.00  0.00     0.118 C 
HETATM    2  N   UNL     1      27.277  46.157  53.225  1.00  0.00    -0.366 N 
HETATM    3  C   UNL     1      26.313  46.340  52.299  1.00  0.00     0.123 A 
HETATM    4  N   UNL     1      25.523  45.294  51.932  1.00  0.00    -0.240 N 
HETATM    5  N   UNL     1      24.551  45.612  51.063  1.00  0.00    -0.165 NA
HETATM    6  C   UNL     1      24.799  46.915  50.786  1.00  0.00     0.148 A 
HETATM    7  C   UNL     1      25.910  47.402  51.535  1.00  0.00     0.088 A 
HETATM    8  C   UNL     1      25.695  43.962  52.466  1.00  0.00     0.221 C 
HETATM    9  C   UNL     1      26.135  44.023  53.940  1.00  0.00     0.066 C 
HETATM   10  H   UNL     1      27.819  46.973  53.516  1.00  0.00     0.161 HD
ENDROOT
BRANCH   6  11
HETATM   11  C   UNL     1      23.985  47.681  49.828  1.00  0.00     0.272 C 
HETATM   12  N   UNL     1      22.874  46.999  49.386  1.00  0.00    -0.353 N 
HETATM   13  H   UNL     1      22.846  46.014  49.636  1.00  0.00     0.162 HD
HETATM   14  O   UNL     1      24.283  48.811  49.449  1.00  0.00    -0.266 OA
BRANCH  12  15
HETATM   15  C   UNL     1      22.050  47.478  48.296  1.00  0.00     0.155 C 
BRANCH  15  16
HETATM   16  C   UNL     1      21.501  46.335  47.442  1.00  0.00     0.139 C 
HETATM   17  O   UNL     1      22.116  46.339  46.139  1.00  0.00    -0.384 OA
HETATM   18  C   UNL     1      22.140  44.987  45.657  1.00  0.00     0.168 C 
HETATM   19  C   UNL     1      21.685  44.085  46.791  1.00  0.00     0.029 C 
HETATM   20  C   UNL     1      21.817  44.964  48.011  1.00  0.00     0.035 C 
ENDBRANCH  15  16
ENDBRANCH  12  15
ENDBRANCH   6  11
BRANCH   8  21
HETATM   21  C   UNL     1      26.663  43.182  51.605  1.00  0.00     0.409 C 
HETATM   22  F   UNL     1      26.090  42.735  50.464  1.00  0.00    -0.169 F 
HETATM   23  F   UNL     1      27.771  43.868  51.264  1.00  0.00    -0.169 F 
HETATM   24  F   UNL     1      27.083  42.075  52.276  1.00  0.00    -0.169 F 
ENDBRANCH   8  21
BRANCH   1  25
HETATM   25  C   UNL     1      28.319  44.813  54.989  1.00  0.00    -0.035 A 
HETATM   26  C   UNL     1      28.946  43.619  54.593  1.00  0.00     0.011 A 
HETATM   27  C   UNL     1      30.148  43.214  55.180  1.00  0.00     0.024 A 
HETATM   28  C   UNL     1      30.739  44.003  56.164  1.00  0.00     0.034 A 
HETATM   29  C   UNL     1      30.137  45.192  56.566  1.00  0.00     0.024 A 
HETATM   30 CL   UNL     1      32.216  43.501  56.888  1.00  0.00    -0.084 Cl
HETATM   31  C   UNL     1      28.933  45.594  55.981  1.00  0.00     0.011 A 
ENDBRANCH   1  25
TORSDOF 5
ENDMDL
MODEL 5
REMARK VINA RESULT:      -9.0      2.367      3.133
REMARK  5 active torsions:
REMARK  status: ('A' for Active; 'I' for Inactive)
REMARK    1  A    between atoms: C_2  and  C_3 
REMARK    2  A    between atoms: C_8  and  C_9 
REMARK       I    between atoms: C_9  and  N_10 
REMARK    3  A    between atoms: N_10  and  C_11 
REMARK    4  A    between atoms: C_11  and  C_12 
REMARK    5  A    between atoms: C_19  and  C_20 
ROOT
HETATM    1  C   UNL     1      26.972  43.747  51.050  1.00  0.00     0.118 C 
HETATM    2  N   UNL     1      25.572  43.671  51.475  1.00  0.00    -0.366 N 
HETATM    3  C   UNL     1      24.621  44.140  50.641  1.00  0.00     0.123 A 
HETATM    4  N   UNL     1      24.877  45.236  49.874  1.00  0.00    -0.240 N 
HETATM    5  N   UNL     1      23.888  45.562  49.029  1.00  0.00    -0.165 NA
HETATM    6  C   UNL     1      22.906  44.684  49.346  1.00  0.00     0.148 A 
HETATM    7  C   UNL     1      23.328  43.783  50.367  1.00  0.00     0.088 A 
HETATM    8  C   UNL     1      26.126  45.958  49.940  1.00  0.00     0.221 C 
HETATM    9  C   UNL     1      27.298  44.992  50.192  1.00  0.00     0.066 C 
HETATM   10  H   UNL     1      25.368  42.818  51.998  1.00  0.00     0.161 HD
ENDROOT
BRANCH   6  11
HETATM   11  C   UNL     1      21.593  44.702  48.682  1.00  0.00     0.272 C 
HETATM   12  N   UNL     1      20.888  45.865  48.895  1.00  0.00    -0.353 N 
HETATM   13  H   UNL     1      21.277  46.480  49.605  1.00  0.00     0.162 HD
HETATM   14  O   UNL     1      21.165  43.761  48.019  1.00  0.00    -0.266 OA
BRANCH  12  15
HETATM   15  C   UNL     1      19.501  46.016  48.507  1.00  0.00     0.155 C 
BRANCH  15  16
HETATM   16  C   UNL     1      19.041  47.473  48.567  1.00  0.00     0.139 C 
HETATM   17  O   UNL     1      19.078  47.959  49.923  1.00  0.00    -0.384 OA
HETATM   18  C   UNL     1      19.323  49.373  49.881  1.00  0.00     0.168 C 
HETATM   19  C   UNL     1      19.633  49.743  48.442  1.00  0.00     0.029 C 
HETATM   20  C   UNL     1      19.949  48.415  47.799  1.00  0.00     0.035 C 
ENDBRANCH  15  16
ENDBRANCH  12  15
ENDBRANCH   6  11
BRANCH   8  21
HETATM   21  C   UNL     1      26.039  47.047  50.986  1.00  0.00     0.409 C 
HETATM   22  F   UNL     1      24.764  47.439  51.213  1.00  0.00    -0.169 F 
HETATM   23  F   UNL     1      26.581  46.712  52.173  1.00  0.00    -0.169 F 
HETATM   24  F   UNL     1      26.703  48.152  50.554  1.00  0.00    -0.169 F 
ENDBRANCH   8  21
BRANCH   1  25
HETATM   25  C   UNL     1      27.896  43.610  52.248  1.00  0.00    -0.035 A 
HETATM   26  C   UNL     1      29.164  43.026  52.086  1.00  0.00     0.011 A 
HETATM   27  C   UNL     1      30.034  42.893  53.173  1.00  0.00     0.024 A 
HETATM   28  C   UNL     1      29.646  43.348  54.430  1.00  0.00     0.034 A 
HETATM   29  C   UNL     1      28.397  43.935  54.610  1.00  0.00     0.024 A 
HETATM   30 CL   UNL     1      30.715  43.180  55.767  1.00  0.00    -0.084 Cl
HETATM   31  C   UNL     1      27.527  44.065  53.524  1.00  0.00     0.011 A 
ENDBRANCH   1  25
TORSDOF 5
ENDMDL
MODEL 6
REMARK VINA RESULT:      -8.5     11.304     12.164
REMARK  5 active torsions:
REMARK  status: ('A' for Active; 'I' for Inactive)
REMARK    1  A    between atoms: C_2  and  C_3 
REMARK    2  A    between atoms: C_8  and  C_9 
REMARK       I    between atoms: C_9  and  N_10 
REMARK    3  A    between atoms: N_10  and  C_11 
REMARK    4  A    between atoms: C_11  and  C_12 
REMARK    5  A    between atoms: C_19  and  C_20 
ROOT
HETATM    1  C   UNL     1      30.718  50.487  42.352  1.00  0.00     0.118 C 
HETATM    2  N   UNL     1      30.329  51.041  41.052  1.00  0.00    -0.366 N 
HETATM    3  C   UNL     1      29.304  50.465  40.390  1.00  0.00     0.123 A 
HETATM    4  N   UNL     1      29.129  49.117  40.458  1.00  0.00    -0.240 N 
HETATM    5  N   UNL     1      28.035  48.668  39.825  1.00  0.00    -0.165 NA
HETATM    6  C   UNL     1      27.539  49.783  39.236  1.00  0.00     0.148 A 
HETATM    7  C   UNL     1      28.321  50.931  39.559  1.00  0.00     0.088 A 
HETATM    8  C   UNL     1      30.027  48.250  41.187  1.00  0.00     0.221 C 
HETATM    9  C   UNL     1      30.548  48.953  42.454  1.00  0.00     0.066 C 
HETATM   10  H   UNL     1      30.403  52.060  41.023  1.00  0.00     0.161 HD
ENDROOT
BRANCH   6  11
HETATM   11  C   UNL     1      26.337  49.753  38.387  1.00  0.00     0.272 C 
HETATM   12  N   UNL     1      25.165  49.899  39.094  1.00  0.00    -0.353 N 
HETATM   13  H   UNL     1      25.261  49.839  40.104  1.00  0.00     0.162 HD
HETATM   14  O   UNL     1      26.380  49.595  37.170  1.00  0.00    -0.266 OA
BRANCH  12  15
HETATM   15  C   UNL     1      23.863  49.700  38.492  1.00  0.00     0.155 C 
BRANCH  15  16
HETATM   16  C   UNL     1      22.745  50.355  39.304  1.00  0.00     0.139 C 
HETATM   17  O   UNL     1      21.713  50.854  38.430  1.00  0.00    -0.384 OA
HETATM   18  C   UNL     1      20.469  50.813  39.146  1.00  0.00     0.168 C 
HETATM   19  C   UNL     1      20.716  50.085  40.456  1.00  0.00     0.029 C 
HETATM   20  C   UNL     1      22.031  49.382  40.224  1.00  0.00     0.035 C 
ENDBRANCH  15  16
ENDBRANCH  12  15
ENDBRANCH   6  11
BRANCH   8  21
HETATM   21  C   UNL     1      31.145  47.787  40.281  1.00  0.00     0.409 C 
HETATM   22  F   UNL     1      31.265  48.559  39.177  1.00  0.00    -0.169 F 
HETATM   23  F   UNL     1      32.352  47.738  40.879  1.00  0.00    -0.169 F 
HETATM   24  F   UNL     1      30.882  46.529  39.835  1.00  0.00    -0.169 F 
ENDBRANCH   8  21
BRANCH   1  25
HETATM   25  C   UNL     1      32.120  50.941  42.721  1.00  0.00    -0.035 A 
HETATM   26  C   UNL     1      32.348  51.557  43.964  1.00  0.00     0.011 A 
HETATM   27  C   UNL     1      33.630  51.979  44.328  1.00  0.00     0.024 A 
HETATM   28  C   UNL     1      34.698  51.784  43.455  1.00  0.00     0.034 A 
HETATM   29  C   UNL     1      34.494  51.171  42.223  1.00  0.00     0.024 A 
HETATM   30 CL   UNL     1      36.274  52.309  43.902  1.00  0.00    -0.084 Cl
HETATM   31  C   UNL     1      33.211  50.752  41.858  1.00  0.00     0.011 A 
ENDBRANCH   1  25
TORSDOF 5
ENDMDL
MODEL 7
REMARK VINA RESULT:      -8.5     13.203     15.351
REMARK  5 active torsions:
REMARK  status: ('A' for Active; 'I' for Inactive)
REMARK    1  A    between atoms: C_2  and  C_3 
REMARK    2  A    between atoms: C_8  and  C_9 
REMARK       I    between atoms: C_9  and  N_10 
REMARK    3  A    between atoms: N_10  and  C_11 
REMARK    4  A    between atoms: C_11  and  C_12 
REMARK    5  A    between atoms: C_19  and  C_20 
ROOT
HETATM    1  C   UNL     1      31.802  48.730  41.626  1.00  0.00     0.118 C 
HETATM    2  N   UNL     1      32.828  49.470  40.887  1.00  0.00    -0.366 N 
HETATM    3  C   UNL     1      33.640  50.301  41.573  1.00  0.00     0.123 A 
HETATM    4  N   UNL     1      33.149  51.002  42.632  1.00  0.00    -0.240 N 
HETATM    5  N   UNL     1      34.066  51.734  43.283  1.00  0.00    -0.165 NA
HETATM    6  C   UNL     1      35.183  51.567  42.536  1.00  0.00     0.148 A 
HETATM    7  C   UNL     1      34.948  50.682  41.443  1.00  0.00     0.088 A 
HETATM    8  C   UNL     1      31.765  50.929  43.040  1.00  0.00     0.221 C 
HETATM    9  C   UNL     1      31.211  49.508  42.824  1.00  0.00     0.066 C 
HETATM   10  H   UNL     1      33.239  48.919  40.130  1.00  0.00     0.161 HD
ENDROOT
BRANCH   6  11
HETATM   11  C   UNL     1      36.453  52.235  42.864  1.00  0.00     0.272 C 
HETATM   12  N   UNL     1      37.188  51.571  43.820  1.00  0.00    -0.353 N 
HETATM   13  H   UNL     1      36.698  50.816  44.293  1.00  0.00     0.162 HD
HETATM   14  O   UNL     1      36.809  53.290  42.347  1.00  0.00    -0.266 OA
BRANCH  12  15
HETATM   15  C   UNL     1      38.365  52.148  44.437  1.00  0.00     0.155 C 
BRANCH  15  16
HETATM   16  C   UNL     1      38.050  52.797  45.786  1.00  0.00     0.139 C 
HETATM   17  O   UNL     1      39.009  52.384  46.780  1.00  0.00    -0.384 OA
HETATM   18  C   UNL     1      39.132  53.443  47.742  1.00  0.00     0.168 C 
HETATM   19  C   UNL     1      38.352  54.635  47.217  1.00  0.00     0.029 C 
HETATM   20  C   UNL     1      38.157  54.310  45.756  1.00  0.00     0.035 C 
ENDBRANCH  15  16
ENDBRANCH  12  15
ENDBRANCH   6  11
BRANCH   8  21
HETATM   21  C   UNL     1      30.957  51.981  42.316  1.00  0.00     0.409 C 
HETATM   22  F   UNL     1      30.389  52.867  43.166  1.00  0.00    -0.169 F 
HETATM   23  F   UNL     1      31.659  52.682  41.405  1.00  0.00    -0.169 F 
HETATM   24  F   UNL     1      29.932  51.391  41.646  1.00  0.00    -0.169 F 
ENDBRANCH   8  21
BRANCH   1  25
HETATM   25  C   UNL     1      30.729  48.224  40.677  1.00  0.00    -0.035 A 
HETATM   26  C   UNL     1      29.402  48.106  41.125  1.00  0.00     0.011 A 
HETATM   27  C   UNL     1      28.395  47.648  40.270  1.00  0.00     0.024 A 
HETATM   28  C   UNL     1      28.706  47.310  38.954  1.00  0.00     0.034 A 
HETATM   29  C   UNL     1      30.012  47.427  38.489  1.00  0.00     0.024 A 
HETATM   30 CL   UNL     1      27.468  46.743  37.904  1.00  0.00    -0.084 Cl
HETATM   31  C   UNL     1      31.018  47.882  39.347  1.00  0.00     0.011 A 
ENDBRANCH   1  25
TORSDOF 5
ENDMDL
MODEL 8
REMARK VINA RESULT:      -8.4      4.973     10.002
REMARK  5 active torsions:
REMARK  status: ('A' for Active; 'I' for Inactive)
REMARK    1  A    between atoms: C_2  and  C_3 
REMARK    2  A    between atoms: C_8  and  C_9 
REMARK       I    between atoms: C_9  and  N_10 
REMARK    3  A    between atoms: N_10  and  C_11 
REMARK    4  A    between atoms: C_11  and  C_12 
REMARK    5  A    between atoms: C_19  and  C_20 
ROOT
HETATM    1  C   UNL     1      20.571  49.667  49.108  1.00  0.00     0.118 C 
HETATM    2  N   UNL     1      21.075  48.495  48.387  1.00  0.00    -0.366 N 
HETATM    3  C   UNL     1      22.212  47.915  48.821  1.00  0.00     0.123 A 
HETATM    4  N   UNL     1      23.212  48.685  49.330  1.00  0.00    -0.240 N 
HETATM    5  N   UNL     1      24.260  47.993  49.801  1.00  0.00    -0.165 NA
HETATM    6  C   UNL     1      23.953  46.712  49.482  1.00  0.00     0.148 A 
HETATM    7  C   UNL     1      22.677  46.627  48.851  1.00  0.00     0.088 A 
HETATM    8  C   UNL     1      23.129  50.127  49.394  1.00  0.00     0.221 C 
HETATM    9  C   UNL     1      21.684  50.574  49.683  1.00  0.00     0.066 C 
HETATM   10  H   UNL     1      20.323  47.886  48.058  1.00  0.00     0.161 HD
ENDROOT
BRANCH   6  11
HETATM   11  C   UNL     1      24.859  45.591  49.781  1.00  0.00     0.272 C 
HETATM   12  N   UNL     1      24.344  44.703  50.699  1.00  0.00    -0.353 N 
HETATM   13  H   UNL     1      23.500  45.015  51.172  1.00  0.00     0.162 HD
HETATM   14  O   UNL     1      25.970  45.473  49.272  1.00  0.00    -0.266 OA
BRANCH  12  15
HETATM   15  C   UNL     1      25.138  43.645  51.287  1.00  0.00     0.155 C 
BRANCH  15  16
HETATM   16  C   UNL     1      25.889  44.112  52.534  1.00  0.00     0.139 C 
HETATM   17  O   UNL     1      25.010  44.130  53.676  1.00  0.00    -0.384 OA
HETATM   18  C   UNL     1      25.802  43.888  54.849  1.00  0.00     0.168 C 
HETATM   19  C   UNL     1      27.202  43.522  54.391  1.00  0.00     0.029 C 
HETATM   20  C   UNL     1      27.016  43.176  52.934  1.00  0.00     0.035 C 
ENDBRANCH  15  16
ENDBRANCH  12  15
ENDBRANCH   6  11
BRANCH   8  21
HETATM   21  C   UNL     1      23.679  50.732  48.121  1.00  0.00     0.409 C 
HETATM   22  F   UNL     1      24.987  50.439  47.937  1.00  0.00    -0.169 F 
HETATM   23  F   UNL     1      23.016  50.363  47.007  1.00  0.00    -0.169 F 
HETATM   24  F   UNL     1      23.600  52.088  48.188  1.00  0.00    -0.169 F 
ENDBRANCH   8  21
BRANCH   1  25
HETATM   25  C   UNL     1      19.586  50.436  48.244  1.00  0.00    -0.035 A 
HETATM   26  C   UNL     1      18.975  49.799  47.149  1.00  0.00     0.011 A 
HETATM   27  C   UNL     1      18.062  50.483  46.342  1.00  0.00     0.024 A 
HETATM   28  C   UNL     1      17.746  51.809  46.625  1.00  0.00     0.034 A 
HETATM   29  C   UNL     1      18.334  52.456  47.708  1.00  0.00     0.024 A 
HETATM   30 CL   UNL     1      16.625  52.651  45.628  1.00  0.00    -0.084 Cl
HETATM   31  C   UNL     1      19.249  51.772  48.513  1.00  0.00     0.011 A 
ENDBRANCH   1  25
TORSDOF 5
ENDMDL
MODEL 9
REMARK VINA RESULT:      -8.4      5.754     10.415
REMARK  5 active torsions:
REMARK  status: ('A' for Active; 'I' for Inactive)
REMARK    1  A    between atoms: C_2  and  C_3 
REMARK    2  A    between atoms: C_8  and  C_9 
REMARK       I    between atoms: C_9  and  N_10 
REMARK    3  A    between atoms: N_10  and  C_11 
REMARK    4  A    between atoms: C_11  and  C_12 
REMARK    5  A    between atoms: C_19  and  C_20 
ROOT
HETATM    1  C   UNL     1      18.552  49.949  49.839  1.00  0.00     0.118 C 
HETATM    2  N   UNL     1      18.732  48.995  48.741  1.00  0.00    -0.366 N 
HETATM    3  C   UNL     1      19.860  48.256  48.711  1.00  0.00     0.123 A 
HETATM    4  N   UNL     1      21.035  48.801  49.130  1.00  0.00    -0.240 N 
HETATM    5  N   UNL     1      22.071  47.949  49.128  1.00  0.00    -0.165 NA
HETATM    6  C   UNL     1      21.548  46.825  48.584  1.00  0.00     0.148 A 
HETATM    7  C   UNL     1      20.160  46.987  48.296  1.00  0.00     0.088 A 
HETATM    8  C   UNL     1      21.144  50.171  49.575  1.00  0.00     0.221 C 
HETATM    9  C   UNL     1      19.868  50.600  50.324  1.00  0.00     0.066 C 
HETATM   10  H   UNL     1      17.857  48.542  48.470  1.00  0.00     0.161 HD
ENDROOT
BRANCH   6  11
HETATM   11  C   UNL     1      22.355  45.617  48.349  1.00  0.00     0.272 C 
HETATM   12  N   UNL     1      22.633  44.914  49.500  1.00  0.00    -0.353 N 
HETATM   13  H   UNL     1      22.399  45.394  50.365  1.00  0.00     0.162 HD
HETATM   14  O   UNL     1      22.755  45.283  47.238  1.00  0.00    -0.266 OA
BRANCH  12  15
HETATM   15  C   UNL     1      23.574  43.814  49.531  1.00  0.00     0.155 C 
BRANCH  15  16
HETATM   16  C   UNL     1      24.904  44.210  50.174  1.00  0.00     0.139 C 
HETATM   17  O   UNL     1      25.753  44.866  49.212  1.00  0.00    -0.384 OA
HETATM   18  C   UNL     1      26.600  45.783  49.921  1.00  0.00     0.168 C 
HETATM   19  C   UNL     1      26.124  45.827  51.363  1.00  0.00     0.029 C 
HETATM   20  C   UNL     1      24.744  45.220  51.295  1.00  0.00     0.035 C 
ENDBRANCH  15  16
ENDBRANCH  12  15
ENDBRANCH   6  11
BRANCH   8  21
HETATM   21  C   UNL     1      21.456  51.072  48.402  1.00  0.00     0.409 C 
HETATM   22  F   UNL     1      21.453  50.403  47.226  1.00  0.00    -0.169 F 
HETATM   23  F   UNL     1      20.620  52.122  48.278  1.00  0.00    -0.169 F 
HETATM   24  F   UNL     1      22.707  51.587  48.540  1.00  0.00    -0.169 F 
ENDBRANCH   8  21
BRANCH   1  25
HETATM   25  C   UNL     1      17.495  50.978  49.476  1.00  0.00    -0.035 A 
HETATM   26  C   UNL     1      16.466  50.634  48.582  1.00  0.00     0.011 A 
HETATM   27  C   UNL     1      15.479  51.563  48.236  1.00  0.00     0.024 A 
HETATM   28  C   UNL     1      15.509  52.842  48.786  1.00  0.00     0.034 A 
HETATM   29  C   UNL     1      16.515  53.200  49.678  1.00  0.00     0.024 A 
HETATM   30 CL   UNL     1      14.297  53.984  48.355  1.00  0.00    -0.084 Cl
HETATM   31  C   UNL     1      17.503  52.272  50.020  1.00  0.00     0.011 A 
ENDBRANCH   1  25
TORSDOF 5
ENDMDL
MODEL 10
REMARK VINA RESULT:      -8.3      4.499      9.109
REMARK  5 active torsions:
REMARK  status: ('A' for Active; 'I' for Inactive)
REMARK    1  A    between atoms: C_2  and  C_3 
REMARK    2  A    between atoms: C_8  and  C_9 
REMARK       I    between atoms: C_9  and  N_10 
REMARK    3  A    between atoms: N_10  and  C_11 
REMARK    4  A    between atoms: C_11  and  C_12 
REMARK    5  A    between atoms: C_19  and  C_20 
ROOT
HETATM    1  C   UNL     1      22.487  48.486  48.479  1.00  0.00     0.118 C 
HETATM    2  N   UNL     1      23.020  47.909  49.717  1.00  0.00    -0.366 N 
HETATM    3  C   UNL     1      23.723  46.761  49.640  1.00  0.00     0.123 A 
HETATM    4  N   UNL     1      23.369  45.812  48.731  1.00  0.00    -0.240 N 
HETATM    5  N   UNL     1      24.187  44.749  48.693  1.00  0.00    -0.165 NA
HETATM    6  C   UNL     1      25.054  44.990  49.705  1.00  0.00     0.148 A 
HETATM    7  C   UNL     1      24.784  46.241  50.332  1.00  0.00     0.088 A 
HETATM    8  C   UNL     1      22.230  45.960  47.854  1.00  0.00     0.221 C 
HETATM    9  C   UNL     1      22.058  47.431  47.433  1.00  0.00     0.066 C 
HETATM   10  H   UNL     1      23.342  48.623  50.374  1.00  0.00     0.161 HD
ENDROOT
BRANCH   6  11
HETATM   11  C   UNL     1      26.126  44.046  50.061  1.00  0.00     0.272 C 
HETATM   12  N   UNL     1      26.069  43.624  51.370  1.00  0.00    -0.353 N 
HETATM   13  H   UNL     1      25.416  44.134  51.959  1.00  0.00     0.162 HD
HETATM   14  O   UNL     1      26.994  43.688  49.270  1.00  0.00    -0.266 OA
BRANCH  12  15
HETATM   15  C   UNL     1      27.132  42.858  51.988  1.00  0.00     0.155 C 
BRANCH  15  16
HETATM   16  C   UNL     1      27.411  43.310  53.422  1.00  0.00     0.139 C 
HETATM   17  O   UNL     1      28.829  43.334  53.677  1.00  0.00    -0.384 OA
HETATM   18  C   UNL     1      29.084  44.343  54.665  1.00  0.00     0.168 C 
HETATM   19  C   UNL     1      27.789  45.101  54.895  1.00  0.00     0.029 C 
HETATM   20  C   UNL     1      26.949  44.729  53.697  1.00  0.00     0.035 C 
ENDBRANCH  15  16
ENDBRANCH  12  15
ENDBRANCH   6  11
BRANCH   8  21
HETATM   21  C   UNL     1      20.992  45.399  48.517  1.00  0.00     0.409 C 
HETATM   22  F   UNL     1      21.290  44.577  49.549  1.00  0.00    -0.169 F 
HETATM   23  F   UNL     1      20.141  46.338  48.976  1.00  0.00    -0.169 F 
HETATM   24  F   UNL     1      20.294  44.647  47.624  1.00  0.00    -0.169 F 
ENDBRANCH   8  21
BRANCH   1  25
HETATM   25  C   UNL     1      21.379  49.477  48.792  1.00  0.00    -0.035 A 
HETATM   26  C   UNL     1      20.396  49.146  49.740  1.00  0.00     0.011 A 
HETATM   27  C   UNL     1      19.369  50.043  50.049  1.00  0.00     0.024 A 
HETATM   28  C   UNL     1      19.320  51.283  49.416  1.00  0.00     0.034 A 
HETATM   29  C   UNL     1      20.287  51.632  48.480  1.00  0.00     0.024 A 
HETATM   30 CL   UNL     1      18.053  52.384  49.794  1.00  0.00    -0.084 Cl
HETATM   31  C   UNL     1      21.312  50.733  48.169  1.00  0.00     0.011 A 
ENDBRANCH   1  25
TORSDOF 5
ENDMDL
