MODEL 1
REMARK VINA RESULT:      -9.0      0.000      0.000
REMARK  13 active torsions:
REMARK  status: ('A' for Active; 'I' for Inactive)
REMARK    1  A    between atoms: C_2  and  O_3 
REMARK    2  A    between atoms: O_3  and  C_4 
REMARK    3  A    between atoms: C_5  and  O_6 
REMARK    4  A    between atoms: C_9  and  C_10 
REMARK    5  A    between atoms: N_11  and  C_12 
REMARK    6  A    between atoms: C_12  and  C_13 
REMARK    7  A    between atoms: C_13  and  N_14 
REMARK    8  A    between atoms: C_20  and  O_21 
REMARK    9  A    between atoms: C_22  and  C_23 
REMARK   10  A    between atoms: C_23  and  C_24 
REMARK   11  A    between atoms: C_28  and  O_29 
REMARK   12  A    between atoms: O_29  and  C_30 
REMARK   13  A    between atoms: C_30  and  C_31 
ROOT
HETATM    1  C   UNL     1      25.588  42.671  48.615  1.00  0.00     0.161 A 
HETATM    2  N   UNL     1      24.291  41.986  48.559  1.00  0.00    -0.332 N 
HETATM    3  C   UNL     1      23.403  42.551  49.443  1.00  0.00     0.278 A 
HETATM    4  O   UNL     1      22.211  42.315  49.542  1.00  0.00    -0.265 OA
HETATM    5  C   UNL     1      24.126  43.571  50.227  1.00  0.00     0.146 A 
HETATM    6  C   UNL     1      25.366  43.650  49.729  1.00  0.00     0.059 A 
ENDROOT
BRANCH   6   7
HETATM    7  C   UNL     1      26.261  44.787  50.063  1.00  0.00     0.194 C 
HETATM    8  O   UNL     1      26.807  45.454  49.191  1.00  0.00    -0.287 OA
BRANCH   7   9
HETATM    9  C   UNL     1      26.604  45.037  51.477  1.00  0.00     0.021 A 
HETATM   10  C   UNL     1      26.184  46.212  52.123  1.00  0.00    -0.045 A 
HETATM   11  C   UNL     1      25.292  47.224  51.457  1.00  0.00     0.049 C 
HETATM   12  C   UNL     1      26.568  46.412  53.458  1.00  0.00     0.044 A 
HETATM   13  C   UNL     1      27.362  45.481  54.133  1.00  0.00     0.069 A 
HETATM   14  C   UNL     1      27.716  44.292  53.501  1.00  0.00     0.038 A 
HETATM   15  C   UNL     1      27.319  44.062  52.181  1.00  0.00     0.019 A 
BRANCH  13  16
HETATM   16  O   UNL     1      27.687  45.824  55.413  1.00  0.00    -0.347 OA
BRANCH  16  17
HETATM   17  C   UNL     1      28.932  46.501  55.588  1.00  0.00     0.214 C 
BRANCH  17  18
HETATM   18  C   UNL     1      29.869  45.559  56.300  1.00  0.00    -0.034 A 
HETATM   19  C   UNL     1      30.355  44.413  55.653  1.00  0.00     0.009 A 
HETATM   20  C   UNL     1      31.202  43.528  56.323  1.00  0.00     0.001 A 
HETATM   21  C   UNL     1      31.563  43.773  57.646  1.00  0.00     0.000 A 
HETATM   22  C   UNL     1      31.076  44.901  58.303  1.00  0.00     0.001 A 
HETATM   23  C   UNL     1      30.230  45.789  57.635  1.00  0.00     0.009 A 
ENDBRANCH  17  18
ENDBRANCH  16  17
ENDBRANCH  13  16
ENDBRANCH   7   9
ENDBRANCH   6   7
BRANCH   1  24
HETATM   24  C   UNL     1      26.705  41.659  48.767  1.00  0.00    -0.028 A 
HETATM   25  C   UNL     1      27.470  41.227  47.667  1.00  0.00     0.012 A 
HETATM   26  C   UNL     1      28.537  40.349  47.850  1.00  0.00     0.040 A 
HETATM   27  C   UNL     1      28.867  39.934  49.134  1.00  0.00     0.099 A 
HETATM   28  C   UNL     1      28.154  40.377  50.250  1.00  0.00     0.102 A 
HETATM   29  C   UNL     1      27.056  41.215  50.059  1.00  0.00     0.049 A 
BRANCH  27  30
HETATM   30  O   UNL     1      29.934  39.094  49.283  1.00  0.00    -0.358 OA
HETATM   31  H   UNL     1      29.566  38.188  49.250  1.00  0.00     0.218 HD
ENDBRANCH  27  30
BRANCH  28  32
HETATM   32  O   UNL     1      28.622  39.936  51.460  1.00  0.00    -0.349 OA
BRANCH  32  33
HETATM   33  C   UNL     1      29.079  40.943  52.367  1.00  0.00     0.171 C 
HETATM   34  C   UNL     1      28.312  40.795  53.668  1.00  0.00     0.034 C 
ENDBRANCH  32  33
ENDBRANCH  28  32
ENDBRANCH   1  24
BRANCH   5  35
HETATM   35  O   UNL     1      23.532  44.330  51.189  1.00  0.00    -0.355 OA
HETATM   36  H   UNL     1      22.763  44.776  50.790  1.00  0.00     0.218 HD
ENDBRANCH   5  35
BRANCH   2  37
HETATM   37  C   UNL     1      24.023  40.914  47.592  1.00  0.00     0.155 C 
BRANCH  37  38
HETATM   38  C   UNL     1      23.399  41.309  46.234  1.00  0.00     0.254 C 
BRANCH  38  39
HETATM   39  N   UNL     1      22.538  42.552  46.307  1.00  0.00    -0.077 N 
HETATM   40  H   UNL     1      22.475  42.775  47.322  1.00  0.00     0.279 HD
HETATM   41  C   UNL     1      23.090  43.738  45.580  1.00  0.00     0.269 C 
HETATM   42  C   UNL     1      21.118  42.268  45.905  1.00  0.00     0.269 C 
ENDBRANCH  38  39
ENDBRANCH  37  38
ENDBRANCH   2  37
TORSDOF 13
ENDMDL
MODEL 2
REMARK VINA RESULT:      -8.6      4.520      7.066
REMARK  13 active torsions:
REMARK  status: ('A' for Active; 'I' for Inactive)
REMARK    1  A    between atoms: C_2  and  O_3 
REMARK    2  A    between atoms: O_3  and  C_4 
REMARK    3  A    between atoms: C_5  and  O_6 
REMARK    4  A    between atoms: C_9  and  C_10 
REMARK    5  A    between atoms: N_11  and  C_12 
REMARK    6  A    between atoms: C_12  and  C_13 
REMARK    7  A    between atoms: C_13  and  N_14 
REMARK    8  A    between atoms: C_20  and  O_21 
REMARK    9  A    between atoms: C_22  and  C_23 
REMARK   10  A    between atoms: C_23  and  C_24 
REMARK   11  A    between atoms: C_28  and  O_29 
REMARK   12  A    between atoms: O_29  and  C_30 
REMARK   13  A    between atoms: C_30  and  C_31 
ROOT
HETATM    1  C   UNL     1      20.932  49.024  47.709  1.00  0.00     0.161 A 
HETATM    2  N   UNL     1      19.766  49.559  48.422  1.00  0.00    -0.332 N 
HETATM    3  C   UNL     1      20.159  50.298  49.513  1.00  0.00     0.278 A 
HETATM    4  O   UNL     1      19.452  50.989  50.226  1.00  0.00    -0.265 OA
HETATM    5  C   UNL     1      21.623  50.176  49.643  1.00  0.00     0.146 A 
HETATM    6  C   UNL     1      22.059  49.469  48.594  1.00  0.00     0.059 A 
ENDROOT
BRANCH   6   7
HETATM    7  C   UNL     1      23.499  49.426  48.236  1.00  0.00     0.194 C 
HETATM    8  O   UNL     1      23.928  49.973  47.226  1.00  0.00    -0.287 OA
BRANCH   7   9
HETATM    9  C   UNL     1      24.414  48.596  49.044  1.00  0.00     0.021 A 
HETATM   10  C   UNL     1      25.797  48.846  49.052  1.00  0.00    -0.045 A 
HETATM   11  C   UNL     1      26.409  50.013  48.328  1.00  0.00     0.049 C 
HETATM   12  C   UNL     1      26.622  48.003  49.813  1.00  0.00     0.044 A 
HETATM   13  C   UNL     1      26.095  46.930  50.536  1.00  0.00     0.069 A 
HETATM   14  C   UNL     1      24.717  46.734  50.572  1.00  0.00     0.038 A 
HETATM   15  C   UNL     1      23.876  47.579  49.843  1.00  0.00     0.019 A 
BRANCH  13  16
HETATM   16  O   UNL     1      27.019  46.176  51.200  1.00  0.00    -0.347 OA
BRANCH  16  17
HETATM   17  C   UNL     1      26.523  45.015  51.868  1.00  0.00     0.214 C 
BRANCH  17  18
HETATM   18  C   UNL     1      27.655  44.435  52.677  1.00  0.00    -0.034 A 
HETATM   19  C   UNL     1      28.499  43.461  52.126  1.00  0.00     0.009 A 
HETATM   20  C   UNL     1      29.530  42.906  52.887  1.00  0.00     0.001 A 
HETATM   21  C   UNL     1      29.722  43.311  54.206  1.00  0.00     0.000 A 
HETATM   22  C   UNL     1      28.881  44.270  54.768  1.00  0.00     0.001 A 
HETATM   23  C   UNL     1      27.850  44.828  54.010  1.00  0.00     0.009 A 
ENDBRANCH  17  18
ENDBRANCH  16  17
ENDBRANCH  13  16
ENDBRANCH   7   9
ENDBRANCH   6   7
BRANCH   1  24
HETATM   24  C   UNL     1      20.759  47.539  47.468  1.00  0.00    -0.028 A 
HETATM   25  C   UNL     1      20.517  47.019  46.182  1.00  0.00     0.012 A 
HETATM   26  C   UNL     1      20.433  45.642  45.982  1.00  0.00     0.040 A 
HETATM   27  C   UNL     1      20.630  44.782  47.055  1.00  0.00     0.099 A 
HETATM   28  C   UNL     1      20.913  45.265  48.334  1.00  0.00     0.102 A 
HETATM   29  C   UNL     1      20.947  46.643  48.542  1.00  0.00     0.049 A 
BRANCH  27  30
HETATM   30  O   UNL     1      20.567  43.438  46.821  1.00  0.00    -0.358 OA
HETATM   31  H   UNL     1      21.481  43.106  46.921  1.00  0.00     0.218 HD
ENDBRANCH  27  30
BRANCH  28  32
HETATM   32  O   UNL     1      21.144  44.307  49.286  1.00  0.00    -0.349 OA
BRANCH  32  33
HETATM   33  C   UNL     1      22.505  44.122  49.682  1.00  0.00     0.171 C 
HETATM   34  C   UNL     1      22.954  42.751  49.210  1.00  0.00     0.034 C 
ENDBRANCH  32  33
ENDBRANCH  28  32
ENDBRANCH   1  24
BRANCH   5  35
HETATM   35  O   UNL     1      22.338  50.800  50.621  1.00  0.00    -0.355 OA
HETATM   36  H   UNL     1      21.714  51.298  51.181  1.00  0.00     0.218 HD
ENDBRANCH   5  35
BRANCH   2  37
HETATM   37  C   UNL     1      18.399  49.370  47.921  1.00  0.00     0.155 C 
BRANCH  37  38
HETATM   38  C   UNL     1      17.418  48.555  48.795  1.00  0.00     0.254 C 
BRANCH  38  39
HETATM   39  N   UNL     1      16.673  47.486  48.025  1.00  0.00    -0.077 N 
HETATM   40  H   UNL     1      15.750  47.408  48.499  1.00  0.00     0.279 HD
HETATM   41  C   UNL     1      16.453  47.796  46.578  1.00  0.00     0.269 C 
HETATM   42  C   UNL     1      17.296  46.131  48.212  1.00  0.00     0.269 C 
ENDBRANCH  38  39
ENDBRANCH  37  38
ENDBRANCH   2  37
TORSDOF 13
ENDMDL
MODEL 3
REMARK VINA RESULT:      -8.5      3.327      6.369
REMARK  13 active torsions:
REMARK  status: ('A' for Active; 'I' for Inactive)
REMARK    1  A    between atoms: C_2  and  O_3 
REMARK    2  A    between atoms: O_3  and  C_4 
REMARK    3  A    between atoms: C_5  and  O_6 
REMARK    4  A    between atoms: C_9  and  C_10 
REMARK    5  A    between atoms: N_11  and  C_12 
REMARK    6  A    between atoms: C_12  and  C_13 
REMARK    7  A    between atoms: C_13  and  N_14 
REMARK    8  A    between atoms: C_20  and  O_21 
REMARK    9  A    between atoms: C_22  and  C_23 
REMARK   10  A    between atoms: C_23  and  C_24 
REMARK   11  A    between atoms: C_28  and  O_29 
REMARK   12  A    between atoms: O_29  and  C_30 
REMARK   13  A    between atoms: C_30  and  C_31 
ROOT
HETATM    1  C   UNL     1      21.760  45.563  47.984  1.00  0.00     0.161 A 
HETATM    2  N   UNL     1      21.894  45.491  46.524  1.00  0.00    -0.332 N 
HETATM    3  C   UNL     1      22.809  44.530  46.165  1.00  0.00     0.278 A 
HETATM    4  O   UNL     1      23.046  44.122  45.041  1.00  0.00    -0.265 OA
HETATM    5  C   UNL     1      23.423  44.003  47.399  1.00  0.00     0.146 A 
HETATM    6  C   UNL     1      22.799  44.580  48.433  1.00  0.00     0.059 A 
ENDROOT
BRANCH   6   7
HETATM    7  C   UNL     1      22.941  44.051  49.813  1.00  0.00     0.194 C 
HETATM    8  O   UNL     1      21.998  43.539  50.406  1.00  0.00    -0.287 OA
BRANCH   7   9
HETATM    9  C   UNL     1      24.211  44.264  50.535  1.00  0.00     0.021 A 
HETATM   10  C   UNL     1      25.077  43.189  50.803  1.00  0.00    -0.045 A 
HETATM   11  C   UNL     1      24.814  41.797  50.296  1.00  0.00     0.049 C 
HETATM   12  C   UNL     1      26.254  43.445  51.523  1.00  0.00     0.044 A 
HETATM   13  C   UNL     1      26.561  44.729  51.980  1.00  0.00     0.069 A 
HETATM   14  C   UNL     1      25.728  45.795  51.650  1.00  0.00     0.038 A 
HETATM   15  C   UNL     1      24.565  45.565  50.911  1.00  0.00     0.019 A 
BRANCH  13  16
HETATM   16  O   UNL     1      27.720  44.822  52.695  1.00  0.00    -0.347 OA
BRANCH  16  17
HETATM   17  C   UNL     1      28.202  43.610  53.276  1.00  0.00     0.214 C 
BRANCH  17  18
HETATM   18  C   UNL     1      29.084  43.981  54.441  1.00  0.00    -0.034 A 
HETATM   19  C   UNL     1      28.870  45.173  55.147  1.00  0.00     0.009 A 
HETATM   20  C   UNL     1      29.705  45.527  56.209  1.00  0.00     0.001 A 
HETATM   21  C   UNL     1      30.766  44.699  56.568  1.00  0.00     0.000 A 
HETATM   22  C   UNL     1      30.997  43.518  55.866  1.00  0.00     0.001 A 
HETATM   23  C   UNL     1      30.162  43.160  54.804  1.00  0.00     0.009 A 
ENDBRANCH  17  18
ENDBRANCH  16  17
ENDBRANCH  13  16
ENDBRANCH   7   9
ENDBRANCH   6   7
BRANCH   1  24
HETATM   24  C   UNL     1      21.889  46.999  48.449  1.00  0.00    -0.028 A 
HETATM   25  C   UNL     1      20.768  47.758  48.837  1.00  0.00     0.012 A 
HETATM   26  C   UNL     1      20.928  49.053  49.327  1.00  0.00     0.040 A 
HETATM   27  C   UNL     1      22.207  49.577  49.469  1.00  0.00     0.099 A 
HETATM   28  C   UNL     1      23.341  48.835  49.132  1.00  0.00     0.102 A 
HETATM   29  C   UNL     1      23.177  47.559  48.594  1.00  0.00     0.049 A 
BRANCH  27  30
HETATM   30  O   UNL     1      22.331  50.839  49.976  1.00  0.00    -0.358 OA
HETATM   31  H   UNL     1      21.781  50.857  50.784  1.00  0.00     0.218 HD
ENDBRANCH  27  30
BRANCH  28  32
HETATM   32  O   UNL     1      24.540  49.451  49.376  1.00  0.00    -0.349 OA
BRANCH  32  33
HETATM   33  C   UNL     1      25.286  49.863  48.228  1.00  0.00     0.171 C 
HETATM   34  C   UNL     1      26.759  49.632  48.510  1.00  0.00     0.034 C 
ENDBRANCH  32  33
ENDBRANCH  28  32
ENDBRANCH   1  24
BRANCH   5  35
HETATM   35  O   UNL     1      24.368  43.022  47.399  1.00  0.00    -0.355 OA
HETATM   36  H   UNL     1      25.244  43.445  47.335  1.00  0.00     0.218 HD
ENDBRANCH   5  35
BRANCH   2  37
HETATM   37  C   UNL     1      21.057  46.301  45.629  1.00  0.00     0.155 C 
BRANCH  37  38
HETATM   38  C   UNL     1      19.721  45.691  45.146  1.00  0.00     0.254 C 
BRANCH  38  39
HETATM   39  N   UNL     1      18.503  46.360  45.745  1.00  0.00    -0.077 N 
HETATM   40  H   UNL     1      17.745  46.211  45.047  1.00  0.00     0.279 HD
HETATM   41  C   UNL     1      18.069  45.802  47.063  1.00  0.00     0.269 C 
HETATM   42  C   UNL     1      18.660  47.854  45.799  1.00  0.00     0.269 C 
ENDBRANCH  38  39
ENDBRANCH  37  38
ENDBRANCH   2  37
TORSDOF 13
ENDMDL
MODEL 4
REMARK VINA RESULT:      -8.4     11.612     13.832
REMARK  13 active torsions:
REMARK  status: ('A' for Active; 'I' for Inactive)
REMARK    1  A    between atoms: C_2  and  O_3 
REMARK    2  A    between atoms: O_3  and  C_4 
REMARK    3  A    between atoms: C_5  and  O_6 
REMARK    4  A    between atoms: C_9  and  C_10 
REMARK    5  A    between atoms: N_11  and  C_12 
REMARK    6  A    between atoms: C_12  and  C_13 
REMARK    7  A    between atoms: C_13  and  N_14 
REMARK    8  A    between atoms: C_20  and  O_21 
REMARK    9  A    between atoms: C_22  and  C_23 
REMARK   10  A    between atoms: C_23  and  C_24 
REMARK   11  A    between atoms: C_28  and  O_29 
REMARK   12  A    between atoms: O_29  and  C_30 
REMARK   13  A    between atoms: C_30  and  C_31 
ROOT
HETATM    1  C   UNL     1      28.493  48.278  39.482  1.00  0.00     0.161 A 
HETATM    2  N   UNL     1      27.453  47.460  40.117  1.00  0.00    -0.332 N 
HETATM    3  C   UNL     1      26.306  48.193  40.311  1.00  0.00     0.278 A 
HETATM    4  O   UNL     1      25.221  47.778  40.680  1.00  0.00    -0.265 OA
HETATM    5  C   UNL     1      26.585  49.588  39.921  1.00  0.00     0.146 A 
HETATM    6  C   UNL     1      27.828  49.621  39.424  1.00  0.00     0.059 A 
ENDROOT
BRANCH   6   7
HETATM    7  C   UNL     1      28.318  50.788  38.648  1.00  0.00     0.194 C 
HETATM    8  O   UNL     1      27.723  51.199  37.658  1.00  0.00    -0.287 OA
BRANCH   7   9
HETATM    9  C   UNL     1      29.621  51.388  39.001  1.00  0.00     0.021 A 
HETATM   10  C   UNL     1      29.721  52.343  40.027  1.00  0.00    -0.045 A 
HETATM   11  C   UNL     1      28.546  52.736  40.880  1.00  0.00     0.049 C 
HETATM   12  C   UNL     1      30.979  52.903  40.295  1.00  0.00     0.044 A 
HETATM   13  C   UNL     1      32.109  52.539  39.557  1.00  0.00     0.069 A 
HETATM   14  C   UNL     1      32.007  51.544  38.588  1.00  0.00     0.038 A 
HETATM   15  C   UNL     1      30.768  50.955  38.325  1.00  0.00     0.019 A 
BRANCH  13  16
HETATM   16  O   UNL     1      33.257  53.191  39.904  1.00  0.00    -0.347 OA
BRANCH  16  17
HETATM   17  C   UNL     1      34.464  52.690  39.331  1.00  0.00     0.214 C 
BRANCH  17  18
HETATM   18  C   UNL     1      35.332  52.189  40.458  1.00  0.00    -0.034 A 
HETATM   19  C   UNL     1      34.985  51.028  41.162  1.00  0.00     0.009 A 
HETATM   20  C   UNL     1      35.776  50.581  42.223  1.00  0.00     0.001 A 
HETATM   21  C   UNL     1      36.914  51.293  42.594  1.00  0.00     0.000 A 
HETATM   22  C   UNL     1      37.262  52.456  41.909  1.00  0.00     0.001 A 
HETATM   23  C   UNL     1      36.474  52.905  40.848  1.00  0.00     0.009 A 
ENDBRANCH  17  18
ENDBRANCH  16  17
ENDBRANCH  13  16
ENDBRANCH   7   9
ENDBRANCH   6   7
BRANCH   1  24
HETATM   24  C   UNL     1      29.793  48.159  40.251  1.00  0.00    -0.028 A 
HETATM   25  C   UNL     1      30.879  47.410  39.760  1.00  0.00     0.012 A 
HETATM   26  C   UNL     1      32.086  47.378  40.457  1.00  0.00     0.040 A 
HETATM   27  C   UNL     1      32.223  48.123  41.621  1.00  0.00     0.099 A 
HETATM   28  C   UNL     1      31.178  48.909  42.112  1.00  0.00     0.102 A 
HETATM   29  C   UNL     1      29.955  48.900  41.441  1.00  0.00     0.049 A 
BRANCH  27  30
HETATM   30  O   UNL     1      33.426  48.091  42.267  1.00  0.00    -0.358 OA
HETATM   31  H   UNL     1      33.524  47.178  42.603  1.00  0.00     0.218 HD
ENDBRANCH  27  30
BRANCH  28  32
HETATM   32  O   UNL     1      31.467  49.638  43.235  1.00  0.00    -0.349 OA
BRANCH  32  33
HETATM   33  C   UNL     1      31.749  51.026  43.034  1.00  0.00     0.171 C 
HETATM   34  C   UNL     1      32.597  51.512  44.195  1.00  0.00     0.034 C 
ENDBRANCH  32  33
ENDBRANCH  28  32
ENDBRANCH   1  24
BRANCH   5  35
HETATM   35  O   UNL     1      25.652  50.578  39.980  1.00  0.00    -0.355 OA
HETATM   36  H   UNL     1      25.440  50.738  40.918  1.00  0.00     0.218 HD
ENDBRANCH   5  35
BRANCH   2  37
HETATM   37  C   UNL     1      27.653  46.030  40.389  1.00  0.00     0.155 C 
BRANCH  37  38
HETATM   38  C   UNL     1      26.960  45.016  39.450  1.00  0.00     0.254 C 
BRANCH  38  39
HETATM   39  N   UNL     1      27.826  44.587  38.285  1.00  0.00    -0.077 N 
HETATM   40  H   UNL     1      27.463  43.651  38.011  1.00  0.00     0.279 HD
HETATM   41  C   UNL     1      27.774  45.497  37.098  1.00  0.00     0.269 C 
HETATM   42  C   UNL     1      29.242  44.319  38.715  1.00  0.00     0.269 C 
ENDBRANCH  38  39
ENDBRANCH  37  38
ENDBRANCH   2  37
TORSDOF 13
ENDMDL
MODEL 5
REMARK VINA RESULT:      -8.4      0.956      2.158
REMARK  13 active torsions:
REMARK  status: ('A' for Active; 'I' for Inactive)
REMARK    1  A    between atoms: C_2  and  O_3 
REMARK    2  A    between atoms: O_3  and  C_4 
REMARK    3  A    between atoms: C_5  and  O_6 
REMARK    4  A    between atoms: C_9  and  C_10 
REMARK    5  A    between atoms: N_11  and  C_12 
REMARK    6  A    between atoms: C_12  and  C_13 
REMARK    7  A    between atoms: C_13  and  N_14 
REMARK    8  A    between atoms: C_20  and  O_21 
REMARK    9  A    between atoms: C_22  and  C_23 
REMARK   10  A    between atoms: C_23  and  C_24 
REMARK   11  A    between atoms: C_28  and  O_29 
REMARK   12  A    between atoms: O_29  and  C_30 
REMARK   13  A    between atoms: C_30  and  C_31 
ROOT
HETATM    1  C   UNL     1      25.901  42.361  48.849  1.00  0.00     0.161 A 
HETATM    2  N   UNL     1      24.634  41.648  48.647  1.00  0.00    -0.332 N 
HETATM    3  C   UNL     1      23.600  42.302  49.273  1.00  0.00     0.278 A 
HETATM    4  O   UNL     1      22.410  42.054  49.183  1.00  0.00    -0.265 OA
HETATM    5  C   UNL     1      24.170  43.429  50.036  1.00  0.00     0.146 A 
HETATM    6  C   UNL     1      25.481  43.471  49.766  1.00  0.00     0.059 A 
ENDROOT
BRANCH   6   7
HETATM    7  C   UNL     1      26.302  44.660  50.107  1.00  0.00     0.194 C 
HETATM    8  O   UNL     1      26.802  45.366  49.239  1.00  0.00    -0.287 OA
BRANCH   7   9
HETATM    9  C   UNL     1      26.630  44.922  51.522  1.00  0.00     0.021 A 
HETATM   10  C   UNL     1      26.199  46.100  52.156  1.00  0.00    -0.045 A 
HETATM   11  C   UNL     1      25.309  47.103  51.474  1.00  0.00     0.049 C 
HETATM   12  C   UNL     1      26.570  46.312  53.493  1.00  0.00     0.044 A 
HETATM   13  C   UNL     1      27.361  45.389  54.182  1.00  0.00     0.069 A 
HETATM   14  C   UNL     1      27.726  44.196  53.562  1.00  0.00     0.038 A 
HETATM   15  C   UNL     1      27.343  43.955  52.240  1.00  0.00     0.019 A 
BRANCH  13  16
HETATM   16  O   UNL     1      27.673  45.742  55.462  1.00  0.00    -0.347 OA
BRANCH  16  17
HETATM   17  C   UNL     1      28.913  46.427  55.644  1.00  0.00     0.214 C 
BRANCH  17  18
HETATM   18  C   UNL     1      29.853  45.489  56.358  1.00  0.00    -0.034 A 
HETATM   19  C   UNL     1      30.259  45.751  57.674  1.00  0.00     0.009 A 
HETATM   20  C   UNL     1      31.150  44.895  58.324  1.00  0.00     0.001 A 
HETATM   21  C   UNL     1      31.651  43.776  57.663  1.00  0.00     0.000 A 
HETATM   22  C   UNL     1      31.264  43.511  56.350  1.00  0.00     0.001 A 
HETATM   23  C   UNL     1      30.372  44.365  55.698  1.00  0.00     0.009 A 
ENDBRANCH  17  18
ENDBRANCH  16  17
ENDBRANCH  13  16
ENDBRANCH   7   9
ENDBRANCH   6   7
BRANCH   1  24
HETATM   24  C   UNL     1      26.969  41.402  49.332  1.00  0.00    -0.028 A 
HETATM   25  C   UNL     1      27.281  41.266  50.698  1.00  0.00     0.012 A 
HETATM   26  C   UNL     1      28.219  40.323  51.117  1.00  0.00     0.040 A 
HETATM   27  C   UNL     1      28.814  39.489  50.180  1.00  0.00     0.099 A 
HETATM   28  C   UNL     1      28.495  39.570  48.823  1.00  0.00     0.102 A 
HETATM   29  C   UNL     1      27.595  40.548  48.400  1.00  0.00     0.049 A 
BRANCH  27  30
HETATM   30  O   UNL     1      29.710  38.559  50.625  1.00  0.00    -0.358 OA
HETATM   31  H   UNL     1      30.439  39.065  51.034  1.00  0.00     0.218 HD
ENDBRANCH  27  30
BRANCH  28  32
HETATM   32  O   UNL     1      29.112  38.650  48.017  1.00  0.00    -0.349 OA
BRANCH  32  33
HETATM   33  C   UNL     1      28.262  37.684  47.393  1.00  0.00     0.171 C 
HETATM   34  C   UNL     1      28.668  37.564  45.936  1.00  0.00     0.034 C 
ENDBRANCH  32  33
ENDBRANCH  28  32
ENDBRANCH   1  24
BRANCH   5  35
HETATM   35  O   UNL     1      23.411  44.293  50.765  1.00  0.00    -0.355 OA
HETATM   36  H   UNL     1      22.488  43.978  50.743  1.00  0.00     0.218 HD
ENDBRANCH   5  35
BRANCH   2  37
HETATM   37  C   UNL     1      24.546  40.454  47.795  1.00  0.00     0.155 C 
BRANCH  37  38
HETATM   38  C   UNL     1      24.158  40.655  46.312  1.00  0.00     0.254 C 
BRANCH  38  39
HETATM   39  N   UNL     1      22.929  41.519  46.124  1.00  0.00    -0.077 N 
HETATM   40  H   UNL     1      22.574  41.692  47.087  1.00  0.00     0.279 HD
HETATM   41  C   UNL     1      23.185  42.832  45.454  1.00  0.00     0.269 C 
HETATM   42  C   UNL     1      21.817  40.762  45.454  1.00  0.00     0.269 C 
ENDBRANCH  38  39
ENDBRANCH  37  38
ENDBRANCH   2  37
TORSDOF 13
ENDMDL
MODEL 6
REMARK VINA RESULT:      -8.4      4.898      7.944
REMARK  13 active torsions:
REMARK  status: ('A' for Active; 'I' for Inactive)
REMARK    1  A    between atoms: C_2  and  O_3 
REMARK    2  A    between atoms: O_3  and  C_4 
REMARK    3  A    between atoms: C_5  and  O_6 
REMARK    4  A    between atoms: C_9  and  C_10 
REMARK    5  A    between atoms: N_11  and  C_12 
REMARK    6  A    between atoms: C_12  and  C_13 
REMARK    7  A    between atoms: C_13  and  N_14 
REMARK    8  A    between atoms: C_20  and  O_21 
REMARK    9  A    between atoms: C_22  and  C_23 
REMARK   10  A    between atoms: C_23  and  C_24 
REMARK   11  A    between atoms: C_28  and  O_29 
REMARK   12  A    between atoms: O_29  and  C_30 
REMARK   13  A    between atoms: C_30  and  C_31 
ROOT
HETATM    1  C   UNL     1      21.117  49.352  47.710  1.00  0.00     0.161 A 
HETATM    2  N   UNL     1      20.016  50.083  48.347  1.00  0.00    -0.332 N 
HETATM    3  C   UNL     1      20.482  50.869  49.374  1.00  0.00     0.278 A 
HETATM    4  O   UNL     1      19.856  51.701  50.007  1.00  0.00    -0.265 OA
HETATM    5  C   UNL     1      21.921  50.590  49.544  1.00  0.00     0.146 A 
HETATM    6  C   UNL     1      22.280  49.742  48.572  1.00  0.00     0.059 A 
ENDROOT
BRANCH   6   7
HETATM    7  C   UNL     1      23.709  49.499  48.249  1.00  0.00     0.194 C 
HETATM    8  O   UNL     1      24.242  50.008  47.269  1.00  0.00    -0.287 OA
BRANCH   7   9
HETATM    9  C   UNL     1      24.469  48.521  49.052  1.00  0.00     0.021 A 
HETATM   10  C   UNL     1      25.860  48.645  49.212  1.00  0.00    -0.045 A 
HETATM   11  C   UNL     1      26.633  49.814  48.667  1.00  0.00     0.049 C 
HETATM   12  C   UNL     1      26.535  47.666  49.957  1.00  0.00     0.044 A 
HETATM   13  C   UNL     1      25.854  46.582  50.518  1.00  0.00     0.069 A 
HETATM   14  C   UNL     1      24.468  46.508  50.407  1.00  0.00     0.038 A 
HETATM   15  C   UNL     1      23.774  47.488  49.691  1.00  0.00     0.019 A 
BRANCH  13  16
HETATM   16  O   UNL     1      26.643  45.691  51.186  1.00  0.00    -0.347 OA
BRANCH  16  17
HETATM   17  C   UNL     1      26.112  45.166  52.402  1.00  0.00     0.214 C 
BRANCH  17  18
HETATM   18  C   UNL     1      27.008  45.621  53.526  1.00  0.00    -0.034 A 
HETATM   19  C   UNL     1      27.943  44.742  54.092  1.00  0.00     0.009 A 
HETATM   20  C   UNL     1      28.754  45.158  55.151  1.00  0.00     0.001 A 
HETATM   21  C   UNL     1      28.631  46.448  55.659  1.00  0.00     0.000 A 
HETATM   22  C   UNL     1      27.696  47.327  55.113  1.00  0.00     0.001 A 
HETATM   23  C   UNL     1      26.885  46.915  54.054  1.00  0.00     0.009 A 
ENDBRANCH  17  18
ENDBRANCH  16  17
ENDBRANCH  13  16
ENDBRANCH   7   9
ENDBRANCH   6   7
BRANCH   1  24
HETATM   24  C   UNL     1      20.773  47.880  47.601  1.00  0.00    -0.028 A 
HETATM   25  C   UNL     1      20.427  47.113  48.729  1.00  0.00     0.012 A 
HETATM   26  C   UNL     1      20.046  45.780  48.587  1.00  0.00     0.040 A 
HETATM   27  C   UNL     1      19.971  45.223  47.316  1.00  0.00     0.099 A 
HETATM   28  C   UNL     1      20.268  45.969  46.174  1.00  0.00     0.102 A 
HETATM   29  C   UNL     1      20.697  47.288  46.322  1.00  0.00     0.049 A 
BRANCH  27  30
HETATM   30  O   UNL     1      19.570  43.922  47.208  1.00  0.00    -0.358 OA
HETATM   31  H   UNL     1      19.184  43.689  48.075  1.00  0.00     0.218 HD
ENDBRANCH  27  30
BRANCH  28  32
HETATM   32  O   UNL     1      20.096  45.315  44.983  1.00  0.00    -0.349 OA
BRANCH  32  33
HETATM   33  C   UNL     1      19.642  46.108  43.883  1.00  0.00     0.171 C 
HETATM   34  C   UNL     1      20.724  46.112  42.820  1.00  0.00     0.034 C 
ENDBRANCH  32  33
ENDBRANCH  28  32
ENDBRANCH   1  24
BRANCH   5  35
HETATM   35  O   UNL     1      22.695  51.215  50.475  1.00  0.00    -0.355 OA
HETATM   36  H   UNL     1      22.665  52.173  50.300  1.00  0.00     0.218 HD
ENDBRANCH   5  35
BRANCH   2  37
HETATM   37  C   UNL     1      18.640  50.008  47.837  1.00  0.00     0.155 C 
BRANCH  37  38
HETATM   38  C   UNL     1      17.561  49.405  48.765  1.00  0.00     0.254 C 
BRANCH  38  39
HETATM   39  N   UNL     1      16.713  48.347  48.093  1.00  0.00    -0.077 N 
HETATM   40  H   UNL     1      15.747  48.734  48.100  1.00  0.00     0.279 HD
HETATM   41  C   UNL     1      17.104  48.035  46.683  1.00  0.00     0.269 C 
HETATM   42  C   UNL     1      16.614  47.101  48.929  1.00  0.00     0.269 C 
ENDBRANCH  38  39
ENDBRANCH  37  38
ENDBRANCH   2  37
TORSDOF 13
ENDMDL
MODEL 7
REMARK VINA RESULT:      -8.3      3.476      6.684
REMARK  13 active torsions:
REMARK  status: ('A' for Active; 'I' for Inactive)
REMARK    1  A    between atoms: C_2  and  O_3 
REMARK    2  A    between atoms: O_3  and  C_4 
REMARK    3  A    between atoms: C_5  and  O_6 
REMARK    4  A    between atoms: C_9  and  C_10 
REMARK    5  A    between atoms: N_11  and  C_12 
REMARK    6  A    between atoms: C_12  and  C_13 
REMARK    7  A    between atoms: C_13  and  N_14 
REMARK    8  A    between atoms: C_20  and  O_21 
REMARK    9  A    between atoms: C_22  and  C_23 
REMARK   10  A    between atoms: C_23  and  C_24 
REMARK   11  A    between atoms: C_28  and  O_29 
REMARK   12  A    between atoms: O_29  and  C_30 
REMARK   13  A    between atoms: C_30  and  C_31 
ROOT
HETATM    1  C   UNL     1      21.975  45.601  48.224  1.00  0.00     0.161 A 
HETATM    2  N   UNL     1      22.029  45.526  46.760  1.00  0.00    -0.332 N 
HETATM    3  C   UNL     1      22.831  44.486  46.354  1.00  0.00     0.278 A 
HETATM    4  O   UNL     1      22.973  44.066  45.218  1.00  0.00    -0.265 OA
HETATM    5  C   UNL     1      23.454  43.896  47.554  1.00  0.00     0.146 A 
HETATM    6  C   UNL     1      22.939  44.522  48.619  1.00  0.00     0.059 A 
ENDROOT
BRANCH   6   7
HETATM    7  C   UNL     1      23.099  43.974  49.989  1.00  0.00     0.194 C 
HETATM    8  O   UNL     1      22.187  43.381  50.556  1.00  0.00    -0.287 OA
BRANCH   7   9
HETATM    9  C   UNL     1      24.340  44.261  50.736  1.00  0.00     0.021 A 
HETATM   10  C   UNL     1      25.285  43.250  50.980  1.00  0.00    -0.045 A 
HETATM   11  C   UNL     1      25.141  41.861  50.423  1.00  0.00     0.049 C 
HETATM   12  C   UNL     1      26.429  43.574  51.725  1.00  0.00     0.044 A 
HETATM   13  C   UNL     1      26.628  44.862  52.229  1.00  0.00     0.069 A 
HETATM   14  C   UNL     1      25.716  45.869  51.923  1.00  0.00     0.038 A 
HETATM   15  C   UNL     1      24.583  45.573  51.160  1.00  0.00     0.019 A 
BRANCH  13  16
HETATM   16  O   UNL     1      27.767  45.022  52.964  1.00  0.00    -0.347 OA
BRANCH  16  17
HETATM   17  C   UNL     1      27.588  45.294  54.354  1.00  0.00     0.214 C 
BRANCH  17  18
HETATM   18  C   UNL     1      28.827  44.828  55.074  1.00  0.00    -0.034 A 
HETATM   19  C   UNL     1      29.375  45.589  56.116  1.00  0.00     0.009 A 
HETATM   20  C   UNL     1      30.538  45.168  56.764  1.00  0.00     0.001 A 
HETATM   21  C   UNL     1      31.169  43.990  56.372  1.00  0.00     0.000 A 
HETATM   22  C   UNL     1      30.641  43.231  55.329  1.00  0.00     0.001 A 
HETATM   23  C   UNL     1      29.477  43.649  54.680  1.00  0.00     0.009 A 
ENDBRANCH  17  18
ENDBRANCH  16  17
ENDBRANCH  13  16
ENDBRANCH   7   9
ENDBRANCH   6   7
BRANCH   1  24
HETATM   24  C   UNL     1      22.260  47.016  48.685  1.00  0.00    -0.028 A 
HETATM   25  C   UNL     1      23.573  47.514  48.784  1.00  0.00     0.012 A 
HETATM   26  C   UNL     1      23.799  48.842  49.143  1.00  0.00     0.040 A 
HETATM   27  C   UNL     1      22.716  49.684  49.362  1.00  0.00     0.099 A 
HETATM   28  C   UNL     1      21.402  49.232  49.231  1.00  0.00     0.102 A 
HETATM   29  C   UNL     1      21.178  47.890  48.922  1.00  0.00     0.049 A 
BRANCH  27  30
HETATM   30  O   UNL     1      22.971  50.986  49.687  1.00  0.00    -0.358 OA
HETATM   31  H   UNL     1      23.434  51.368  48.916  1.00  0.00     0.218 HD
ENDBRANCH  27  30
BRANCH  28  32
HETATM   32  O   UNL     1      20.432  50.181  49.419  1.00  0.00    -0.349 OA
BRANCH  32  33
HETATM   33  C   UNL     1      19.876  50.761  48.236  1.00  0.00     0.171 C 
HETATM   34  C   UNL     1      19.448  52.180  48.559  1.00  0.00     0.034 C 
ENDBRANCH  32  33
ENDBRANCH  28  32
ENDBRANCH   1  24
BRANCH   5  35
HETATM   35  O   UNL     1      24.302  42.832  47.505  1.00  0.00    -0.355 OA
HETATM   36  H   UNL     1      23.928  42.174  46.890  1.00  0.00     0.218 HD
ENDBRANCH   5  35
BRANCH   2  37
HETATM   37  C   UNL     1      21.227  46.417  45.909  1.00  0.00     0.155 C 
BRANCH  37  38
HETATM   38  C   UNL     1      19.926  45.849  45.299  1.00  0.00     0.254 C 
BRANCH  38  39
HETATM   39  N   UNL     1      19.263  44.799  46.165  1.00  0.00    -0.077 N 
HETATM   40  H   UNL     1      19.878  44.714  47.001  1.00  0.00     0.279 HD
HETATM   41  C   UNL     1      17.877  45.140  46.611  1.00  0.00     0.269 C 
HETATM   42  C   UNL     1      19.322  43.438  45.530  1.00  0.00     0.269 C 
ENDBRANCH  38  39
ENDBRANCH  37  38
ENDBRANCH   2  37
TORSDOF 13
ENDMDL
MODEL 8
REMARK VINA RESULT:      -7.8      3.284     10.106
REMARK  13 active torsions:
REMARK  status: ('A' for Active; 'I' for Inactive)
REMARK    1  A    between atoms: C_2  and  O_3 
REMARK    2  A    between atoms: O_3  and  C_4 
REMARK    3  A    between atoms: C_5  and  O_6 
REMARK    4  A    between atoms: C_9  and  C_10 
REMARK    5  A    between atoms: N_11  and  C_12 
REMARK    6  A    between atoms: C_12  and  C_13 
REMARK    7  A    between atoms: C_13  and  N_14 
REMARK    8  A    between atoms: C_20  and  O_21 
REMARK    9  A    between atoms: C_22  and  C_23 
REMARK   10  A    between atoms: C_23  and  C_24 
REMARK   11  A    between atoms: C_28  and  O_29 
REMARK   12  A    between atoms: O_29  and  C_30 
REMARK   13  A    between atoms: C_30  and  C_31 
ROOT
HETATM    1  C   UNL     1      26.336  46.109  51.135  1.00  0.00     0.161 A 
HETATM    2  N   UNL     1      26.030  46.337  52.552  1.00  0.00    -0.332 N 
HETATM    3  C   UNL     1      25.379  45.253  53.092  1.00  0.00     0.278 A 
HETATM    4  O   UNL     1      25.114  45.064  54.266  1.00  0.00    -0.265 OA
HETATM    5  C   UNL     1      25.110  44.295  52.002  1.00  0.00     0.146 A 
HETATM    6  C   UNL     1      25.684  44.781  50.894  1.00  0.00     0.059 A 
ENDROOT
BRANCH   6   7
HETATM    7  C   UNL     1      25.885  43.931  49.693  1.00  0.00     0.194 C 
HETATM    8  O   UNL     1      27.002  43.714  49.239  1.00  0.00    -0.287 OA
BRANCH   7   9
HETATM    9  C   UNL     1      24.703  43.444  48.954  1.00  0.00     0.021 A 
HETATM   10  C   UNL     1      24.446  42.067  48.832  1.00  0.00    -0.045 A 
HETATM   11  C   UNL     1      25.289  41.027  49.516  1.00  0.00     0.049 C 
HETATM   12  C   UNL     1      23.327  41.662  48.090  1.00  0.00     0.044 A 
HETATM   13  C   UNL     1      22.490  42.593  47.469  1.00  0.00     0.069 A 
HETATM   14  C   UNL     1      22.719  43.955  47.653  1.00  0.00     0.038 A 
HETATM   15  C   UNL     1      23.813  44.379  48.412  1.00  0.00     0.019 A 
BRANCH  13  16
HETATM   16  O   UNL     1      21.462  42.054  46.752  1.00  0.00    -0.347 OA
BRANCH  16  17
HETATM   17  C   UNL     1      21.794  40.957  45.901  1.00  0.00     0.214 C 
BRANCH  17  18
HETATM   18  C   UNL     1      20.716  39.915  46.056  1.00  0.00    -0.034 A 
HETATM   19  C   UNL     1      20.570  39.215  47.262  1.00  0.00     0.009 A 
HETATM   20  C   UNL     1      19.588  38.231  47.395  1.00  0.00     0.001 A 
HETATM   21  C   UNL     1      18.750  37.931  46.324  1.00  0.00     0.000 A 
HETATM   22  C   UNL     1      18.894  38.612  45.116  1.00  0.00     0.001 A 
HETATM   23  C   UNL     1      19.874  39.597  44.980  1.00  0.00     0.009 A 
ENDBRANCH  17  18
ENDBRANCH  16  17
ENDBRANCH  13  16
ENDBRANCH   7   9
ENDBRANCH   6   7
BRANCH   1  24
HETATM   24  C   UNL     1      25.877  47.291  50.305  1.00  0.00    -0.028 A 
HETATM   25  C   UNL     1      26.790  48.124  49.631  1.00  0.00     0.012 A 
HETATM   26  C   UNL     1      26.332  49.160  48.818  1.00  0.00     0.040 A 
HETATM   27  C   UNL     1      24.965  49.339  48.646  1.00  0.00     0.099 A 
HETATM   28  C   UNL     1      24.035  48.504  49.267  1.00  0.00     0.102 A 
HETATM   29  C   UNL     1      24.494  47.500  50.120  1.00  0.00     0.049 A 
BRANCH  27  30
HETATM   30  O   UNL     1      24.549  50.347  47.823  1.00  0.00    -0.358 OA
HETATM   31  H   UNL     1      23.586  50.429  47.968  1.00  0.00     0.218 HD
ENDBRANCH  27  30
BRANCH  28  32
HETATM   32  O   UNL     1      22.723  48.756  48.964  1.00  0.00    -0.349 OA
BRANCH  32  33
HETATM   33  C   UNL     1      21.884  47.613  48.783  1.00  0.00     0.171 C 
HETATM   34  C   UNL     1      21.414  47.591  47.340  1.00  0.00     0.034 C 
ENDBRANCH  32  33
ENDBRANCH  28  32
ENDBRANCH   1  24
BRANCH   5  35
HETATM   35  O   UNL     1      24.485  43.102  52.199  1.00  0.00    -0.355 OA
HETATM   36  H   UNL     1      24.097  43.107  53.093  1.00  0.00     0.218 HD
ENDBRANCH   5  35
BRANCH   2  37
HETATM   37  C   UNL     1      26.478  47.547  53.256  1.00  0.00     0.155 C 
BRANCH  37  38
HETATM   38  C   UNL     1      27.660  47.409  54.242  1.00  0.00     0.254 C 
BRANCH  38  39
HETATM   39  N   UNL     1      27.227  47.107  55.661  1.00  0.00    -0.077 N 
HETATM   40  H   UNL     1      26.437  46.437  55.563  1.00  0.00     0.279 HD
HETATM   41  C   UNL     1      28.286  46.491  56.520  1.00  0.00     0.269 C 
HETATM   42  C   UNL     1      26.608  48.308  56.320  1.00  0.00     0.269 C 
ENDBRANCH  38  39
ENDBRANCH  37  38
ENDBRANCH   2  37
TORSDOF 13
ENDMDL
MODEL 9
REMARK VINA RESULT:      -7.7      3.185      6.994
REMARK  13 active torsions:
REMARK  status: ('A' for Active; 'I' for Inactive)
REMARK    1  A    between atoms: C_2  and  O_3 
REMARK    2  A    between atoms: O_3  and  C_4 
REMARK    3  A    between atoms: C_5  and  O_6 
REMARK    4  A    between atoms: C_9  and  C_10 
REMARK    5  A    between atoms: N_11  and  C_12 
REMARK    6  A    between atoms: C_12  and  C_13 
REMARK    7  A    between atoms: C_13  and  N_14 
REMARK    8  A    between atoms: C_20  and  O_21 
REMARK    9  A    between atoms: C_22  and  C_23 
REMARK   10  A    between atoms: C_23  and  C_24 
REMARK   11  A    between atoms: C_28  and  O_29 
REMARK   12  A    between atoms: O_29  and  C_30 
REMARK   13  A    between atoms: C_30  and  C_31 
ROOT
HETATM    1  C   UNL     1      25.682  42.499  49.212  1.00  0.00     0.161 A 
HETATM    2  N   UNL     1      25.976  41.523  48.156  1.00  0.00    -0.332 N 
HETATM    3  C   UNL     1      24.816  40.984  47.653  1.00  0.00     0.278 A 
HETATM    4  O   UNL     1      24.702  40.258  46.681  1.00  0.00    -0.265 OA
HETATM    5  C   UNL     1      23.689  41.498  48.456  1.00  0.00     0.146 A 
HETATM    6  C   UNL     1      24.192  42.383  49.326  1.00  0.00     0.059 A 
ENDROOT
BRANCH   6   7
HETATM    7  C   UNL     1      23.312  43.321  50.067  1.00  0.00     0.194 C 
HETATM    8  O   UNL     1      22.324  42.931  50.679  1.00  0.00    -0.287 OA
BRANCH   7   9
HETATM    9  C   UNL     1      23.559  44.773  49.958  1.00  0.00     0.021 A 
HETATM   10  C   UNL     1      22.940  45.536  48.953  1.00  0.00    -0.045 A 
HETATM   11  C   UNL     1      21.930  44.951  48.004  1.00  0.00     0.049 C 
HETATM   12  C   UNL     1      23.238  46.905  48.876  1.00  0.00     0.044 A 
HETATM   13  C   UNL     1      24.140  47.502  49.761  1.00  0.00     0.069 A 
HETATM   14  C   UNL     1      24.695  46.749  50.792  1.00  0.00     0.038 A 
HETATM   15  C   UNL     1      24.388  45.390  50.902  1.00  0.00     0.019 A 
BRANCH  13  16
HETATM   16  O   UNL     1      24.360  48.832  49.546  1.00  0.00    -0.347 OA
BRANCH  16  17
HETATM   17  C   UNL     1      23.872  49.361  48.313  1.00  0.00     0.214 C 
BRANCH  17  18
HETATM   18  C   UNL     1      22.579  50.079  48.604  1.00  0.00    -0.034 A 
HETATM   19  C   UNL     1      22.291  50.533  49.899  1.00  0.00     0.009 A 
HETATM   20  C   UNL     1      21.081  51.175  50.171  1.00  0.00     0.001 A 
HETATM   21  C   UNL     1      20.145  51.361  49.156  1.00  0.00     0.000 A 
HETATM   22  C   UNL     1      20.415  50.903  47.868  1.00  0.00     0.001 A 
HETATM   23  C   UNL     1      21.625  50.262  47.592  1.00  0.00     0.009 A 
ENDBRANCH  17  18
ENDBRANCH  16  17
ENDBRANCH  13  16
ENDBRANCH   7   9
ENDBRANCH   6   7
BRANCH   1  24
HETATM   24  C   UNL     1      26.517  42.206  50.441  1.00  0.00    -0.028 A 
HETATM   25  C   UNL     1      26.700  40.894  50.919  1.00  0.00     0.012 A 
HETATM   26  C   UNL     1      27.532  40.650  52.010  1.00  0.00     0.040 A 
HETATM   27  C   UNL     1      28.213  41.707  52.600  1.00  0.00     0.099 A 
HETATM   28  C   UNL     1      28.085  43.014  52.124  1.00  0.00     0.102 A 
HETATM   29  C   UNL     1      27.214  43.263  51.064  1.00  0.00     0.049 A 
BRANCH  27  30
HETATM   30  O   UNL     1      29.040  41.432  53.652  1.00  0.00    -0.358 OA
HETATM   31  H   UNL     1      29.354  40.517  53.511  1.00  0.00     0.218 HD
ENDBRANCH  27  30
BRANCH  28  32
HETATM   32  O   UNL     1      28.857  43.950  52.760  1.00  0.00    -0.349 OA
BRANCH  32  33
HETATM   33  C   UNL     1      28.210  44.719  53.777  1.00  0.00     0.171 C 
HETATM   34  C   UNL     1      29.080  44.691  55.021  1.00  0.00     0.034 C 
ENDBRANCH  32  33
ENDBRANCH  28  32
ENDBRANCH   1  24
BRANCH   5  35
HETATM   35  O   UNL     1      22.391  41.167  48.213  1.00  0.00    -0.355 OA
HETATM   36  H   UNL     1      21.911  41.182  49.061  1.00  0.00     0.218 HD
ENDBRANCH   5  35
BRANCH   2  37
HETATM   37  C   UNL     1      27.347  41.279  47.687  1.00  0.00     0.155 C 
BRANCH  37  38
HETATM   38  C   UNL     1      27.905  39.843  47.812  1.00  0.00     0.254 C 
BRANCH  38  39
HETATM   39  N   UNL     1      28.104  39.157  46.477  1.00  0.00    -0.077 N 
HETATM   40  H   UNL     1      29.109  38.886  46.463  1.00  0.00     0.279 HD
HETATM   41  C   UNL     1      27.265  37.936  46.271  1.00  0.00     0.269 C 
HETATM   42  C   UNL     1      27.969  40.122  45.332  1.00  0.00     0.269 C 
ENDBRANCH  38  39
ENDBRANCH  37  38
ENDBRANCH   2  37
TORSDOF 13
ENDMDL
MODEL 10
REMARK VINA RESULT:      -7.7      8.077     11.654
REMARK  13 active torsions:
REMARK  status: ('A' for Active; 'I' for Inactive)
REMARK    1  A    between atoms: C_2  and  O_3 
REMARK    2  A    between atoms: O_3  and  C_4 
REMARK    3  A    between atoms: C_5  and  O_6 
REMARK    4  A    between atoms: C_9  and  C_10 
REMARK    5  A    between atoms: N_11  and  C_12 
REMARK    6  A    between atoms: C_12  and  C_13 
REMARK    7  A    between atoms: C_13  and  N_14 
REMARK    8  A    between atoms: C_20  and  O_21 
REMARK    9  A    between atoms: C_22  and  C_23 
REMARK   10  A    between atoms: C_23  and  C_24 
REMARK   11  A    between atoms: C_28  and  O_29 
REMARK   12  A    between atoms: O_29  and  C_30 
REMARK   13  A    between atoms: C_30  and  C_31 
ROOT
HETATM    1  C   UNL     1      17.123  51.119  46.391  1.00  0.00     0.161 A 
HETATM    2  N   UNL     1      16.299  51.780  45.372  1.00  0.00    -0.332 N 
HETATM    3  C   UNL     1      15.522  52.764  45.937  1.00  0.00     0.278 A 
HETATM    4  O   UNL     1      14.838  53.587  45.354  1.00  0.00    -0.265 OA
HETATM    5  C   UNL     1      15.710  52.710  47.399  1.00  0.00     0.146 A 
HETATM    6  C   UNL     1      16.646  51.785  47.647  1.00  0.00     0.059 A 
ENDROOT
BRANCH   6   7
HETATM    7  C   UNL     1      17.308  51.692  48.972  1.00  0.00     0.194 C 
HETATM    8  O   UNL     1      16.800  52.170  49.980  1.00  0.00    -0.287 OA
BRANCH   7   9
HETATM    9  C   UNL     1      18.669  51.124  49.055  1.00  0.00     0.021 A 
HETATM   10  C   UNL     1      18.871  49.789  49.446  1.00  0.00    -0.045 A 
HETATM   11  C   UNL     1      17.730  48.844  49.705  1.00  0.00     0.049 C 
HETATM   12  C   UNL     1      20.188  49.314  49.540  1.00  0.00     0.044 A 
HETATM   13  C   UNL     1      21.280  50.143  49.269  1.00  0.00     0.069 A 
HETATM   14  C   UNL     1      21.063  51.443  48.820  1.00  0.00     0.038 A 
HETATM   15  C   UNL     1      19.758  51.926  48.694  1.00  0.00     0.019 A 
BRANCH  13  16
HETATM   16  O   UNL     1      22.501  49.557  49.436  1.00  0.00    -0.347 OA
BRANCH  16  17
HETATM   17  C   UNL     1      23.225  49.257  48.242  1.00  0.00     0.214 C 
BRANCH  17  18
HETATM   18  C   UNL     1      24.679  49.116  48.613  1.00  0.00    -0.034 A 
HETATM   19  C   UNL     1      25.094  48.119  49.507  1.00  0.00     0.009 A 
HETATM   20  C   UNL     1      26.438  48.008  49.869  1.00  0.00     0.001 A 
HETATM   21  C   UNL     1      27.377  48.895  49.349  1.00  0.00     0.000 A 
HETATM   22  C   UNL     1      26.975  49.898  48.468  1.00  0.00     0.001 A 
HETATM   23  C   UNL     1      25.632  50.011  48.104  1.00  0.00     0.009 A 
ENDBRANCH  17  18
ENDBRANCH  16  17
ENDBRANCH  13  16
ENDBRANCH   7   9
ENDBRANCH   6   7
BRANCH   1  24
HETATM   24  C   UNL     1      16.979  49.615  46.282  1.00  0.00    -0.028 A 
HETATM   25  C   UNL     1      15.720  48.986  46.304  1.00  0.00     0.012 A 
HETATM   26  C   UNL     1      15.617  47.607  46.130  1.00  0.00     0.040 A 
HETATM   27  C   UNL     1      16.764  46.860  45.894  1.00  0.00     0.099 A 
HETATM   28  C   UNL     1      18.024  47.460  45.825  1.00  0.00     0.102 A 
HETATM   29  C   UNL     1      18.130  48.832  46.049  1.00  0.00     0.049 A 
BRANCH  27  30
HETATM   30  O   UNL     1      16.627  45.515  45.703  1.00  0.00    -0.358 OA
HETATM   31  H   UNL     1      17.221  45.091  46.354  1.00  0.00     0.218 HD
ENDBRANCH  27  30
BRANCH  28  32
HETATM   32  O   UNL     1      19.061  46.616  45.528  1.00  0.00    -0.349 OA
BRANCH  32  33
HETATM   33  C   UNL     1      19.917  46.257  46.616  1.00  0.00     0.171 C 
HETATM   34  C   UNL     1      21.343  46.199  46.100  1.00  0.00     0.034 C 
ENDBRANCH  32  33
ENDBRANCH  28  32
ENDBRANCH   1  24
BRANCH   5  35
HETATM   35  O   UNL     1      15.089  53.562  48.261  1.00  0.00    -0.355 OA
HETATM   36  H   UNL     1      14.127  53.475  48.133  1.00  0.00     0.218 HD
ENDBRANCH   5  35
BRANCH   2  37
HETATM   37  C   UNL     1      16.415  51.447  43.946  1.00  0.00     0.155 C 
BRANCH  37  38
HETATM   38  C   UNL     1      17.739  51.803  43.231  1.00  0.00     0.254 C 
BRANCH  38  39
HETATM   39  N   UNL     1      18.466  50.597  42.677  1.00  0.00    -0.077 N 
HETATM   40  H   UNL     1      18.927  50.160  43.501  1.00  0.00     0.279 HD
HETATM   41  C   UNL     1      17.585  49.584  42.017  1.00  0.00     0.269 C 
HETATM   42  C   UNL     1      19.610  50.998  41.788  1.00  0.00     0.269 C 
ENDBRANCH  38  39
ENDBRANCH  37  38
ENDBRANCH   2  37
TORSDOF 13
ENDMDL
