MODEL 1
REMARK VINA RESULT:      -8.8      0.000      0.000
REMARK  4 active torsions:
REMARK  status: ('A' for Active; 'I' for Inactive)
REMARK    1  A    between atoms: C_3  and  N_4 
REMARK       I    between atoms: N_4  and  C_5 
REMARK    2  A    between atoms: C_5  and  C_6 
REMARK    3  A    between atoms: C_7  and  C_8 
REMARK    4  A    between atoms: C_11  and  O_12 
ROOT
HETATM    1  C   UNL     1      26.655  44.743  52.017  1.00  0.00     0.062 A 
HETATM    2  C   UNL     1      25.801  45.962  52.339  1.00  0.00     0.202 A 
HETATM    3  N   UNL     1      26.278  46.645  53.550  1.00  0.00    -0.083 N 
HETATM    4  C   UNL     1      27.314  46.196  54.323  1.00  0.00     0.726 A 
HETATM    5  N   UNL     1      27.965  45.072  53.970  1.00  0.00    -0.192 N 
HETATM    6  N   UNL     1      25.685  47.723  54.106  1.00  0.00    -0.141 NA
HETATM    7  C   UNL     1      26.484  47.933  55.162  1.00  0.00     0.162 A 
HETATM    8  C   UNL     1      26.317  49.084  56.072  1.00  0.00     0.096 C 
HETATM    9  N   UNL     1      27.483  47.004  55.337  1.00  0.00    -0.046 NA
HETATM   10  C   UNL     1      27.677  44.352  52.817  1.00  0.00     0.037 A 
HETATM   11  C   UNL     1      28.553  43.152  52.557  1.00  0.00     0.070 C 
HETATM   12  H   UNL     1      28.761  44.774  54.527  1.00  0.00     0.184 HD
ENDROOT
BRANCH   1  13
HETATM   13  C   UNL     1      26.411  44.060  50.719  1.00  0.00     0.256 C 
HETATM   14  N   UNL     1      25.383  43.143  50.776  1.00  0.00    -0.323 N 
HETATM   15  H   UNL     1      24.972  42.968  51.680  1.00  0.00     0.169 HD
HETATM   16  O   UNL     1      27.119  44.339  49.759  1.00  0.00    -0.267 OA
BRANCH  14  17
HETATM   17  C   UNL     1      24.852  42.384  49.702  1.00  0.00     0.041 A 
HETATM   18  C   UNL     1      23.554  42.685  49.229  1.00  0.00    -0.035 A 
HETATM   19  C   UNL     1      22.712  43.784  49.819  1.00  0.00     0.050 C 
HETATM   20  C   UNL     1      23.022  41.947  48.156  1.00  0.00     0.009 A 
HETATM   21  C   UNL     1      23.753  40.924  47.556  1.00  0.00     0.001 A 
HETATM   22  C   UNL     1      25.028  40.630  48.019  1.00  0.00     0.002 A 
HETATM   23  C   UNL     1      25.573  41.356  49.082  1.00  0.00     0.030 A 
ENDBRANCH  14  17
ENDBRANCH   1  13
BRANCH   2  24
HETATM   24  C   UNL     1      25.670  46.947  51.184  1.00  0.00    -0.028 A 
HETATM   25  C   UNL     1      24.425  47.137  50.566  1.00  0.00     0.012 A 
HETATM   26  C   UNL     1      24.289  48.030  49.501  1.00  0.00     0.037 A 
HETATM   27  C   UNL     1      25.386  48.754  49.035  1.00  0.00     0.068 A 
HETATM   28  C   UNL     1      26.630  48.570  49.638  1.00  0.00     0.037 A 
HETATM   29  C   UNL     1      26.772  47.673  50.705  1.00  0.00     0.012 A 
BRANCH  27  30
HETATM   30  O   UNL     1      25.112  49.597  47.993  1.00  0.00    -0.356 OA
HETATM   31  C   UNL     1      23.826  50.202  47.981  1.00  0.00     0.210 C 
ENDBRANCH  27  30
ENDBRANCH   2  24
TORSDOF 4
ENDMDL
MODEL 2
REMARK VINA RESULT:      -8.7      2.980      7.003
REMARK  4 active torsions:
REMARK  status: ('A' for Active; 'I' for Inactive)
REMARK    1  A    between atoms: C_3  and  N_4 
REMARK       I    between atoms: N_4  and  C_5 
REMARK    2  A    between atoms: C_5  and  C_6 
REMARK    3  A    between atoms: C_7  and  C_8 
REMARK    4  A    between atoms: C_11  and  O_12 
ROOT
HETATM    1  C   UNL     1      25.605  45.141  52.479  1.00  0.00     0.062 A 
HETATM    2  C   UNL     1      24.886  44.222  51.500  1.00  0.00     0.202 A 
HETATM    3  N   UNL     1      24.253  44.985  50.416  1.00  0.00    -0.083 N 
HETATM    4  C   UNL     1      24.254  46.351  50.340  1.00  0.00     0.726 A 
HETATM    5  N   UNL     1      24.878  47.066  51.295  1.00  0.00    -0.192 N 
HETATM    6  N   UNL     1      23.502  44.442  49.434  1.00  0.00    -0.141 NA
HETATM    7  C   UNL     1      23.166  45.538  48.739  1.00  0.00     0.162 A 
HETATM    8  C   UNL     1      22.399  45.479  47.478  1.00  0.00     0.096 C 
HETATM    9  N   UNL     1      23.594  46.730  49.277  1.00  0.00    -0.046 NA
HETATM   10  C   UNL     1      25.578  46.490  52.347  1.00  0.00     0.037 A 
HETATM   11  C   UNL     1      26.263  47.453  53.285  1.00  0.00     0.070 C 
HETATM   12  H   UNL     1      24.910  48.078  51.203  1.00  0.00     0.184 HD
ENDROOT
BRANCH   1  13
HETATM   13  C   UNL     1      26.450  44.503  53.524  1.00  0.00     0.256 C 
HETATM   14  N   UNL     1      27.789  44.798  53.388  1.00  0.00    -0.323 N 
HETATM   15  H   UNL     1      28.065  45.325  52.574  1.00  0.00     0.169 HD
HETATM   16  O   UNL     1      25.916  43.789  54.364  1.00  0.00    -0.267 OA
BRANCH  14  17
HETATM   17  C   UNL     1      28.843  44.414  54.257  1.00  0.00     0.041 A 
HETATM   18  C   UNL     1      29.590  43.253  53.952  1.00  0.00    -0.035 A 
HETATM   19  C   UNL     1      29.313  42.407  52.739  1.00  0.00     0.050 C 
HETATM   20  C   UNL     1      30.646  42.869  54.799  1.00  0.00     0.009 A 
HETATM   21  C   UNL     1      30.963  43.614  55.933  1.00  0.00     0.001 A 
HETATM   22  C   UNL     1      30.231  44.756  56.230  1.00  0.00     0.002 A 
HETATM   23  C   UNL     1      29.181  45.152  55.398  1.00  0.00     0.030 A 
ENDBRANCH  14  17
ENDBRANCH   1  13
BRANCH   2  24
HETATM   24  C   UNL     1      25.766  43.113  50.936  1.00  0.00    -0.028 A 
HETATM   25  C   UNL     1      26.760  43.422  49.995  1.00  0.00     0.012 A 
HETATM   26  C   UNL     1      27.570  42.418  49.462  1.00  0.00     0.037 A 
HETATM   27  C   UNL     1      27.411  41.090  49.859  1.00  0.00     0.068 A 
HETATM   28  C   UNL     1      26.424  40.770  50.789  1.00  0.00     0.037 A 
HETATM   29  C   UNL     1      25.606  41.774  51.325  1.00  0.00     0.012 A 
BRANCH  27  30
HETATM   30  O   UNL     1      28.275  40.211  49.265  1.00  0.00    -0.356 OA
HETATM   31  C   UNL     1      28.278  40.178  47.844  1.00  0.00     0.210 C 
ENDBRANCH  27  30
ENDBRANCH   2  24
TORSDOF 4
ENDMDL
MODEL 3
REMARK VINA RESULT:      -8.2      2.601      7.863
REMARK  4 active torsions:
REMARK  status: ('A' for Active; 'I' for Inactive)
REMARK    1  A    between atoms: C_3  and  N_4 
REMARK       I    between atoms: N_4  and  C_5 
REMARK    2  A    between atoms: C_5  and  C_6 
REMARK    3  A    between atoms: C_7  and  C_8 
REMARK    4  A    between atoms: C_11  and  O_12 
ROOT
HETATM    1  C   UNL     1      25.897  43.878  50.126  1.00  0.00     0.062 A 
HETATM    2  C   UNL     1      25.467  42.427  49.954  1.00  0.00     0.202 A 
HETATM    3  N   UNL     1      24.363  42.306  48.993  1.00  0.00    -0.083 N 
HETATM    4  C   UNL     1      23.756  43.372  48.386  1.00  0.00     0.726 A 
HETATM    5  N   UNL     1      24.186  44.618  48.655  1.00  0.00    -0.192 N 
HETATM    6  N   UNL     1      23.742  41.148  48.681  1.00  0.00    -0.141 NA
HETATM    7  C   UNL     1      22.832  41.581  47.796  1.00  0.00     0.162 A 
HETATM    8  C   UNL     1      21.931  40.666  47.066  1.00  0.00     0.096 C 
HETATM    9  N   UNL     1      22.800  42.943  47.605  1.00  0.00    -0.046 NA
HETATM   10  C   UNL     1      25.262  44.893  49.489  1.00  0.00     0.037 A 
HETATM   11  C   UNL     1      25.635  46.349  49.623  1.00  0.00     0.070 C 
HETATM   12  H   UNL     1      23.757  45.399  48.164  1.00  0.00     0.184 HD
ENDROOT
BRANCH   1  13
HETATM   13  C   UNL     1      27.125  44.139  50.923  1.00  0.00     0.256 C 
HETATM   14  N   UNL     1      26.973  43.841  52.260  1.00  0.00    -0.323 N 
HETATM   15  H   UNL     1      26.054  43.569  52.571  1.00  0.00     0.169 HD
HETATM   16  O   UNL     1      28.113  44.593  50.359  1.00  0.00    -0.267 OA
BRANCH  14  17
HETATM   17  C   UNL     1      27.968  43.904  53.270  1.00  0.00     0.041 A 
HETATM   18  C   UNL     1      27.945  44.981  54.185  1.00  0.00    -0.035 A 
HETATM   19  C   UNL     1      26.903  46.066  54.133  1.00  0.00     0.050 C 
HETATM   20  C   UNL     1      28.919  45.047  55.198  1.00  0.00     0.009 A 
HETATM   21  C   UNL     1      29.905  44.069  55.311  1.00  0.00     0.001 A 
HETATM   22  C   UNL     1      29.926  43.010  54.413  1.00  0.00     0.002 A 
HETATM   23  C   UNL     1      28.964  42.928  53.403  1.00  0.00     0.030 A 
ENDBRANCH  14  17
ENDBRANCH   1  13
BRANCH   2  24
HETATM   24  C   UNL     1      26.608  41.486  49.585  1.00  0.00    -0.028 A 
HETATM   25  C   UNL     1      27.054  40.533  50.513  1.00  0.00     0.012 A 
HETATM   26  C   UNL     1      28.102  39.668  50.193  1.00  0.00     0.037 A 
HETATM   27  C   UNL     1      28.721  39.730  48.945  1.00  0.00     0.068 A 
HETATM   28  C   UNL     1      28.289  40.676  48.017  1.00  0.00     0.037 A 
HETATM   29  C   UNL     1      27.240  41.548  48.333  1.00  0.00     0.012 A 
BRANCH  27  30
HETATM   30  O   UNL     1      29.727  38.821  48.762  1.00  0.00    -0.356 OA
HETATM   31  C   UNL     1      30.002  37.944  49.846  1.00  0.00     0.210 C 
ENDBRANCH  27  30
ENDBRANCH   2  24
TORSDOF 4
ENDMDL
MODEL 4
REMARK VINA RESULT:      -8.1      2.887      6.315
REMARK  4 active torsions:
REMARK  status: ('A' for Active; 'I' for Inactive)
REMARK    1  A    between atoms: C_3  and  N_4 
REMARK       I    between atoms: N_4  and  C_5 
REMARK    2  A    between atoms: C_5  and  C_6 
REMARK    3  A    between atoms: C_7  and  C_8 
REMARK    4  A    between atoms: C_11  and  O_12 
ROOT
HETATM    1  C   UNL     1      25.561  47.430  49.846  1.00  0.00     0.062 A 
HETATM    2  C   UNL     1      24.047  47.263  49.842  1.00  0.00     0.202 A 
HETATM    3  N   UNL     1      23.394  48.324  49.064  1.00  0.00    -0.083 N 
HETATM    4  C   UNL     1      24.061  49.367  48.480  1.00  0.00     0.726 A 
HETATM    5  N   UNL     1      25.400  49.442  48.595  1.00  0.00    -0.192 N 
HETATM    6  N   UNL     1      22.057  48.463  48.929  1.00  0.00    -0.141 NA
HETATM    7  C   UNL     1      21.995  49.560  48.160  1.00  0.00     0.162 A 
HETATM    8  C   UNL     1      20.722  50.095  47.637  1.00  0.00     0.096 C 
HETATM    9  N   UNL     1      23.205  50.152  47.881  1.00  0.00    -0.046 NA
HETATM   10  C   UNL     1      26.167  48.481  49.240  1.00  0.00     0.037 A 
HETATM   11  C   UNL     1      27.659  48.706  49.215  1.00  0.00     0.070 C 
HETATM   12  H   UNL     1      25.888  50.196  48.119  1.00  0.00     0.184 HD
ENDROOT
BRANCH   1  13
HETATM   13  C   UNL     1      26.370  46.329  50.433  1.00  0.00     0.256 C 
HETATM   14  N   UNL     1      26.238  46.233  51.802  1.00  0.00    -0.323 N 
HETATM   15  H   UNL     1      25.695  46.946  52.264  1.00  0.00     0.169 HD
HETATM   16  O   UNL     1      27.068  45.646  49.694  1.00  0.00    -0.267 OA
BRANCH  14  17
HETATM   17  C   UNL     1      26.810  45.251  52.651  1.00  0.00     0.041 A 
HETATM   18  C   UNL     1      27.289  45.643  53.922  1.00  0.00    -0.035 A 
HETATM   19  C   UNL     1      27.213  47.063  54.414  1.00  0.00     0.050 C 
HETATM   20  C   UNL     1      27.847  44.676  54.778  1.00  0.00     0.009 A 
HETATM   21  C   UNL     1      27.937  43.341  54.390  1.00  0.00     0.001 A 
HETATM   22  C   UNL     1      27.464  42.956  53.143  1.00  0.00     0.002 A 
HETATM   23  C   UNL     1      26.904  43.903  52.282  1.00  0.00     0.030 A 
ENDBRANCH  14  17
ENDBRANCH   1  13
BRANCH   2  24
HETATM   24  C   UNL     1      23.580  45.889  49.376  1.00  0.00    -0.028 A 
HETATM   25  C   UNL     1      23.403  44.858  50.310  1.00  0.00     0.012 A 
HETATM   26  C   UNL     1      22.982  43.592  49.899  1.00  0.00     0.037 A 
HETATM   27  C   UNL     1      22.724  43.329  48.554  1.00  0.00     0.068 A 
HETATM   28  C   UNL     1      22.902  44.345  47.615  1.00  0.00     0.037 A 
HETATM   29  C   UNL     1      23.327  45.616  48.022  1.00  0.00     0.012 A 
BRANCH  27  30
HETATM   30  O   UNL     1      22.313  42.052  48.291  1.00  0.00    -0.356 OA
HETATM   31  C   UNL     1      23.326  41.101  47.993  1.00  0.00     0.210 C 
ENDBRANCH  27  30
ENDBRANCH   2  24
TORSDOF 4
ENDMDL
MODEL 5
REMARK VINA RESULT:      -7.9      5.276      7.989
REMARK  4 active torsions:
REMARK  status: ('A' for Active; 'I' for Inactive)
REMARK    1  A    between atoms: C_3  and  N_4 
REMARK       I    between atoms: N_4  and  C_5 
REMARK    2  A    between atoms: C_5  and  C_6 
REMARK    3  A    between atoms: C_7  and  C_8 
REMARK    4  A    between atoms: C_11  and  O_12 
ROOT
HETATM    1  C   UNL     1      21.550  49.229  48.748  1.00  0.00     0.062 A 
HETATM    2  C   UNL     1      20.125  48.915  49.185  1.00  0.00     0.202 A 
HETATM    3  N   UNL     1      19.308  50.134  49.261  1.00  0.00    -0.083 N 
HETATM    4  C   UNL     1      19.791  51.394  49.035  1.00  0.00     0.726 A 
HETATM    5  N   UNL     1      21.086  51.557  48.706  1.00  0.00    -0.192 N 
HETATM    6  N   UNL     1      18.022  50.169  49.671  1.00  0.00    -0.141 NA
HETATM    7  C   UNL     1      17.762  51.481  49.569  1.00  0.00     0.162 A 
HETATM    8  C   UNL     1      16.423  52.050  49.823  1.00  0.00     0.096 C 
HETATM    9  N   UNL     1      18.830  52.265  49.199  1.00  0.00    -0.046 NA
HETATM   10  C   UNL     1      21.969  50.500  48.529  1.00  0.00     0.037 A 
HETATM   11  C   UNL     1      23.366  50.876  48.102  1.00  0.00     0.070 C 
HETATM   12  H   UNL     1      21.421  52.494  48.497  1.00  0.00     0.184 HD
ENDROOT
BRANCH   1  13
HETATM   13  C   UNL     1      22.443  48.079  48.445  1.00  0.00     0.256 C 
HETATM   14  N   UNL     1      23.149  47.639  49.544  1.00  0.00    -0.323 N 
HETATM   15  H   UNL     1      23.061  48.176  50.393  1.00  0.00     0.169 HD
HETATM   16  O   UNL     1      22.490  47.650  47.298  1.00  0.00    -0.267 OA
BRANCH  14  17
HETATM   17  C   UNL     1      24.022  46.523  49.611  1.00  0.00     0.041 A 
HETATM   18  C   UNL     1      25.416  46.749  49.677  1.00  0.00    -0.035 A 
HETATM   19  C   UNL     1      26.013  48.130  49.682  1.00  0.00     0.050 C 
HETATM   20  C   UNL     1      26.291  45.650  49.757  1.00  0.00     0.009 A 
HETATM   21  C   UNL     1      25.803  44.345  49.769  1.00  0.00     0.001 A 
HETATM   22  C   UNL     1      24.434  44.123  49.706  1.00  0.00     0.002 A 
HETATM   23  C   UNL     1      23.552  45.204  49.630  1.00  0.00     0.030 A 
ENDBRANCH  14  17
ENDBRANCH   1  13
BRANCH   2  24
HETATM   24  C   UNL     1      19.437  47.858  48.329  1.00  0.00    -0.028 A 
HETATM   25  C   UNL     1      19.232  46.569  48.844  1.00  0.00     0.012 A 
HETATM   26  C   UNL     1      18.609  45.587  48.071  1.00  0.00     0.037 A 
HETATM   27  C   UNL     1      18.173  45.870  46.776  1.00  0.00     0.068 A 
HETATM   28  C   UNL     1      18.376  47.146  46.253  1.00  0.00     0.037 A 
HETATM   29  C   UNL     1      19.003  48.134  47.023  1.00  0.00     0.012 A 
BRANCH  27  30
HETATM   30  O   UNL     1      17.574  44.821  46.135  1.00  0.00    -0.356 OA
HETATM   31  C   UNL     1      18.414  43.990  45.345  1.00  0.00     0.210 C 
ENDBRANCH  27  30
ENDBRANCH   2  24
TORSDOF 4
ENDMDL
MODEL 6
REMARK VINA RESULT:      -7.8      2.589      3.952
REMARK  4 active torsions:
REMARK  status: ('A' for Active; 'I' for Inactive)
REMARK    1  A    between atoms: C_3  and  N_4 
REMARK       I    between atoms: N_4  and  C_5 
REMARK    2  A    between atoms: C_5  and  C_6 
REMARK    3  A    between atoms: C_7  and  C_8 
REMARK    4  A    between atoms: C_11  and  O_12 
ROOT
HETATM    1  C   UNL     1      28.035  43.061  53.781  1.00  0.00     0.062 A 
HETATM    2  C   UNL     1      26.840  44.005  53.744  1.00  0.00     0.202 A 
HETATM    3  N   UNL     1      27.180  45.321  54.301  1.00  0.00    -0.083 N 
HETATM    4  C   UNL     1      28.397  45.631  54.846  1.00  0.00     0.726 A 
HETATM    5  N   UNL     1      29.366  44.697  54.873  1.00  0.00    -0.192 N 
HETATM    6  N   UNL     1      26.307  46.341  54.446  1.00  0.00    -0.141 NA
HETATM    7  C   UNL     1      27.098  47.274  54.995  1.00  0.00     0.162 A 
HETATM    8  C   UNL     1      26.634  48.648  55.276  1.00  0.00     0.096 C 
HETATM    9  N   UNL     1      28.383  46.867  55.272  1.00  0.00    -0.046 NA
HETATM   10  C   UNL     1      29.221  43.428  54.326  1.00  0.00     0.037 A 
HETATM   11  C   UNL     1      30.438  42.539  54.400  1.00  0.00     0.070 C 
HETATM   12  H   UNL     1      30.279  44.953  55.239  1.00  0.00     0.184 HD
ENDROOT
BRANCH   1  13
HETATM   13  C   UNL     1      27.899  41.756  53.082  1.00  0.00     0.256 C 
HETATM   14  N   UNL     1      28.575  41.715  51.881  1.00  0.00    -0.323 N 
HETATM   15  H   UNL     1      29.004  42.570  51.565  1.00  0.00     0.169 HD
HETATM   16  O   UNL     1      27.218  40.876  53.595  1.00  0.00    -0.267 OA
BRANCH  14  17
HETATM   17  C   UNL     1      28.709  40.602  51.012  1.00  0.00     0.041 A 
HETATM   18  C   UNL     1      28.102  40.653  49.737  1.00  0.00    -0.035 A 
HETATM   19  C   UNL     1      27.318  41.847  49.261  1.00  0.00     0.050 C 
HETATM   20  C   UNL     1      28.239  39.561  48.861  1.00  0.00     0.009 A 
HETATM   21  C   UNL     1      28.962  38.430  49.234  1.00  0.00     0.001 A 
HETATM   22  C   UNL     1      29.561  38.380  50.485  1.00  0.00     0.002 A 
HETATM   23  C   UNL     1      29.436  39.458  51.366  1.00  0.00     0.030 A 
ENDBRANCH  14  17
ENDBRANCH   1  13
BRANCH   2  24
HETATM   24  C   UNL     1      26.213  44.151  52.363  1.00  0.00    -0.028 A 
HETATM   25  C   UNL     1      24.988  43.525  52.084  1.00  0.00     0.012 A 
HETATM   26  C   UNL     1      24.403  43.643  50.821  1.00  0.00     0.037 A 
HETATM   27  C   UNL     1      25.020  44.389  49.817  1.00  0.00     0.068 A 
HETATM   28  C   UNL     1      26.239  45.011  50.082  1.00  0.00     0.037 A 
HETATM   29  C   UNL     1      26.832  44.894  51.346  1.00  0.00     0.012 A 
BRANCH  27  30
HETATM   30  O   UNL     1      24.335  44.427  48.634  1.00  0.00    -0.356 OA
HETATM   31  C   UNL     1      23.884  43.183  48.115  1.00  0.00     0.210 C 
ENDBRANCH  27  30
ENDBRANCH   2  24
TORSDOF 4
ENDMDL
MODEL 7
REMARK VINA RESULT:      -7.7     17.842     20.036
REMARK  4 active torsions:
REMARK  status: ('A' for Active; 'I' for Inactive)
REMARK    1  A    between atoms: C_3  and  N_4 
REMARK       I    between atoms: N_4  and  C_5 
REMARK    2  A    between atoms: C_5  and  C_6 
REMARK    3  A    between atoms: C_7  and  C_8 
REMARK    4  A    between atoms: C_11  and  O_12 
ROOT
HETATM    1  C   UNL     1      38.910  45.770  64.795  1.00  0.00     0.062 A 
HETATM    2  C   UNL     1      40.015  45.172  63.934  1.00  0.00     0.202 A 
HETATM    3  N   UNL     1      41.327  45.738  64.276  1.00  0.00    -0.083 N 
HETATM    4  C   UNL     1      41.515  46.727  65.204  1.00  0.00     0.726 A 
HETATM    5  N   UNL     1      40.454  47.219  65.869  1.00  0.00    -0.192 N 
HETATM    6  N   UNL     1      42.480  45.436  63.643  1.00  0.00    -0.141 NA
HETATM    7  C   UNL     1      43.346  46.211  64.314  1.00  0.00     0.162 A 
HETATM    8  C   UNL     1      44.801  46.184  64.062  1.00  0.00     0.096 C 
HETATM    9  N   UNL     1      42.785  47.030  65.266  1.00  0.00    -0.046 NA
HETATM   10  C   UNL     1      39.160  46.742  65.707  1.00  0.00     0.037 A 
HETATM   11  C   UNL     1      38.110  47.379  66.584  1.00  0.00     0.070 C 
HETATM   12  H   UNL     1      40.613  47.922  66.587  1.00  0.00     0.184 HD
ENDROOT
BRANCH   1  13
HETATM   13  C   UNL     1      37.558  45.161  64.695  1.00  0.00     0.256 C 
HETATM   14  N   UNL     1      37.322  44.208  65.664  1.00  0.00    -0.323 N 
HETATM   15  H   UNL     1      38.092  43.964  66.267  1.00  0.00     0.169 HD
HETATM   16  O   UNL     1      36.809  45.522  63.795  1.00  0.00    -0.267 OA
BRANCH  14  17
HETATM   17  C   UNL     1      36.114  43.500  65.892  1.00  0.00     0.041 A 
HETATM   18  C   UNL     1      35.222  43.972  66.881  1.00  0.00    -0.035 A 
HETATM   19  C   UNL     1      35.500  45.202  67.702  1.00  0.00     0.050 C 
HETATM   20  C   UNL     1      34.015  43.285  67.107  1.00  0.00     0.009 A 
HETATM   21  C   UNL     1      33.689  42.146  66.373  1.00  0.00     0.001 A 
HETATM   22  C   UNL     1      34.565  41.684  65.401  1.00  0.00     0.002 A 
HETATM   23  C   UNL     1      35.766  42.356  65.162  1.00  0.00     0.030 A 
ENDBRANCH  14  17
ENDBRANCH   1  13
BRANCH   2  24
HETATM   24  C   UNL     1      40.062  43.649  63.962  1.00  0.00    -0.028 A 
HETATM   25  C   UNL     1      39.432  42.912  62.948  1.00  0.00     0.012 A 
HETATM   26  C   UNL     1      39.460  41.516  62.962  1.00  0.00     0.037 A 
HETATM   27  C   UNL     1      40.120  40.828  63.980  1.00  0.00     0.068 A 
HETATM   28  C   UNL     1      40.746  41.549  64.995  1.00  0.00     0.037 A 
HETATM   29  C   UNL     1      40.718  42.950  64.987  1.00  0.00     0.012 A 
BRANCH  27  30
HETATM   30  O   UNL     1      40.076  39.466  63.868  1.00  0.00    -0.356 OA
HETATM   31  C   UNL     1      41.064  38.732  64.579  1.00  0.00     0.210 C 
ENDBRANCH  27  30
ENDBRANCH   2  24
TORSDOF 4
ENDMDL
MODEL 8
REMARK VINA RESULT:      -7.3     17.514     20.922
REMARK  4 active torsions:
REMARK  status: ('A' for Active; 'I' for Inactive)
REMARK    1  A    between atoms: C_3  and  N_4 
REMARK       I    between atoms: N_4  and  C_5 
REMARK    2  A    between atoms: C_5  and  C_6 
REMARK    3  A    between atoms: C_7  and  C_8 
REMARK    4  A    between atoms: C_11  and  O_12 
ROOT
HETATM    1  C   UNL     1      38.278  44.483  65.154  1.00  0.00     0.062 A 
HETATM    2  C   UNL     1      39.393  43.454  65.284  1.00  0.00     0.202 A 
HETATM    3  N   UNL     1      39.207  42.342  64.343  1.00  0.00    -0.083 N 
HETATM    4  C   UNL     1      38.130  42.218  63.507  1.00  0.00     0.726 A 
HETATM    5  N   UNL     1      37.174  43.165  63.516  1.00  0.00    -0.192 N 
HETATM    6  N   UNL     1      40.010  41.258  64.269  1.00  0.00    -0.141 NA
HETATM    7  C   UNL     1      39.409  40.567  63.289  1.00  0.00     0.162 A 
HETATM    8  C   UNL     1      39.960  39.308  62.748  1.00  0.00     0.096 C 
HETATM    9  N   UNL     1      38.242  41.117  62.811  1.00  0.00    -0.046 NA
HETATM   10  C   UNL     1      37.239  44.310  64.300  1.00  0.00     0.037 A 
HETATM   11  C   UNL     1      36.102  45.288  64.130  1.00  0.00     0.070 C 
HETATM   12  H   UNL     1      36.402  43.085  62.859  1.00  0.00     0.184 HD
ENDROOT
BRANCH   1  13
HETATM   13  C   UNL     1      38.429  45.756  65.908  1.00  0.00     0.256 C 
HETATM   14  N   UNL     1      38.535  46.859  65.088  1.00  0.00    -0.323 N 
HETATM   15  H   UNL     1      38.587  46.692  64.095  1.00  0.00     0.169 HD
HETATM   16  O   UNL     1      38.464  45.721  67.132  1.00  0.00    -0.267 OA
BRANCH  14  17
HETATM   17  C   UNL     1      38.613  48.218  65.487  1.00  0.00     0.041 A 
HETATM   18  C   UNL     1      39.874  48.758  65.829  1.00  0.00    -0.035 A 
HETATM   19  C   UNL     1      41.141  47.948  65.785  1.00  0.00     0.050 C 
HETATM   20  C   UNL     1      39.966  50.109  66.214  1.00  0.00     0.009 A 
HETATM   21  C   UNL     1      38.833  50.919  66.264  1.00  0.00     0.001 A 
HETATM   22  C   UNL     1      37.596  50.389  65.925  1.00  0.00     0.002 A 
HETATM   23  C   UNL     1      37.488  49.051  65.539  1.00  0.00     0.030 A 
ENDBRANCH  14  17
ENDBRANCH   1  13
BRANCH   2  24
HETATM   24  C   UNL     1      40.793  44.042  65.153  1.00  0.00    -0.028 A 
HETATM   25  C   UNL     1      41.215  44.570  63.924  1.00  0.00     0.012 A 
HETATM   26  C   UNL     1      42.497  45.106  63.785  1.00  0.00     0.037 A 
HETATM   27  C   UNL     1      43.379  45.133  64.865  1.00  0.00     0.068 A 
HETATM   28  C   UNL     1      42.971  44.606  66.090  1.00  0.00     0.037 A 
HETATM   29  C   UNL     1      41.687  44.065  66.234  1.00  0.00     0.012 A 
BRANCH  27  30
HETATM   30  O   UNL     1      44.597  45.691  64.593  1.00  0.00    -0.356 OA
HETATM   31  C   UNL     1      44.803  47.026  65.035  1.00  0.00     0.210 C 
ENDBRANCH  27  30
ENDBRANCH   2  24
TORSDOF 4
ENDMDL
MODEL 9
REMARK VINA RESULT:      -7.3     17.913     19.800
REMARK  4 active torsions:
REMARK  status: ('A' for Active; 'I' for Inactive)
REMARK    1  A    between atoms: C_3  and  N_4 
REMARK       I    between atoms: N_4  and  C_5 
REMARK    2  A    between atoms: C_5  and  C_6 
REMARK    3  A    between atoms: C_7  and  C_8 
REMARK    4  A    between atoms: C_11  and  O_12 
ROOT
HETATM    1  C   UNL     1      40.439  45.497  65.660  1.00  0.00     0.062 A 
HETATM    2  C   UNL     1      39.272  46.179  66.362  1.00  0.00     0.202 A 
HETATM    3  N   UNL     1      39.182  47.599  65.994  1.00  0.00    -0.083 N 
HETATM    4  C   UNL     1      40.077  48.236  65.179  1.00  0.00     0.726 A 
HETATM    5  N   UNL     1      41.105  47.543  64.656  1.00  0.00    -0.192 N 
HETATM    6  N   UNL     1      38.280  48.466  66.502  1.00  0.00    -0.141 NA
HETATM    7  C   UNL     1      38.629  49.594  65.866  1.00  0.00     0.162 A 
HETATM    8  C   UNL     1      37.874  50.855  66.006  1.00  0.00     0.096 C 
HETATM    9  N   UNL     1      39.740  49.494  65.060  1.00  0.00    -0.046 NA
HETATM   10  C   UNL     1      41.289  46.181  64.854  1.00  0.00     0.037 A 
HETATM   11  C   UNL     1      42.465  45.565  64.137  1.00  0.00     0.070 C 
HETATM   12  H   UNL     1      41.737  48.017  64.017  1.00  0.00     0.184 HD
ENDROOT
BRANCH   1  13
HETATM   13  C   UNL     1      40.545  44.019  65.786  1.00  0.00     0.256 C 
HETATM   14  N   UNL     1      40.145  43.351  64.648  1.00  0.00    -0.323 N 
HETATM   15  H   UNL     1      39.752  43.904  63.903  1.00  0.00     0.169 HD
HETATM   16  O   UNL     1      40.940  43.540  66.842  1.00  0.00    -0.267 OA
BRANCH  14  17
HETATM   17  C   UNL     1      40.195  41.953  64.414  1.00  0.00     0.041 A 
HETATM   18  C   UNL     1      39.227  41.368  63.566  1.00  0.00    -0.035 A 
HETATM   19  C   UNL     1      38.145  42.171  62.896  1.00  0.00     0.050 C 
HETATM   20  C   UNL     1      39.274  39.984  63.316  1.00  0.00     0.009 A 
HETATM   21  C   UNL     1      40.257  39.183  63.894  1.00  0.00     0.001 A 
HETATM   22  C   UNL     1      41.208  39.758  64.726  1.00  0.00     0.002 A 
HETATM   23  C   UNL     1      41.177  41.132  64.982  1.00  0.00     0.030 A 
ENDBRANCH  14  17
ENDBRANCH   1  13
BRANCH   2  24
HETATM   24  C   UNL     1      37.933  45.482  66.150  1.00  0.00    -0.028 A 
HETATM   25  C   UNL     1      37.307  44.832  67.225  1.00  0.00     0.012 A 
HETATM   26  C   UNL     1      36.084  44.184  67.047  1.00  0.00     0.037 A 
HETATM   27  C   UNL     1      35.458  44.175  65.800  1.00  0.00     0.068 A 
HETATM   28  C   UNL     1      36.072  44.813  64.724  1.00  0.00     0.037 A 
HETATM   29  C   UNL     1      37.301  45.463  64.897  1.00  0.00     0.012 A 
BRANCH  27  30
HETATM   30  O   UNL     1      34.263  43.510  65.768  1.00  0.00    -0.356 OA
HETATM   31  C   UNL     1      34.319  42.090  65.770  1.00  0.00     0.210 C 
ENDBRANCH  27  30
ENDBRANCH   2  24
TORSDOF 4
ENDMDL
MODEL 10
REMARK VINA RESULT:      -7.1      6.668      9.843
REMARK  4 active torsions:
REMARK  status: ('A' for Active; 'I' for Inactive)
REMARK    1  A    between atoms: C_3  and  N_4 
REMARK       I    between atoms: N_4  and  C_5 
REMARK    2  A    between atoms: C_5  and  C_6 
REMARK    3  A    between atoms: C_7  and  C_8 
REMARK    4  A    between atoms: C_11  and  O_12 
ROOT
HETATM    1  C   UNL     1      19.379  50.148  48.208  1.00  0.00     0.062 A 
HETATM    2  C   UNL     1      20.500  49.364  47.541  1.00  0.00     0.202 A 
HETATM    3  N   UNL     1      21.802  49.666  48.152  1.00  0.00    -0.083 N 
HETATM    4  C   UNL     1      21.985  50.588  49.147  1.00  0.00     0.726 A 
HETATM    5  N   UNL     1      20.924  51.263  49.625  1.00  0.00    -0.192 N 
HETATM    6  N   UNL     1      22.981  49.159  47.733  1.00  0.00    -0.141 NA
HETATM    7  C   UNL     1      23.827  49.745  48.593  1.00  0.00     0.162 A 
HETATM    8  C   UNL     1      25.273  49.446  48.618  1.00  0.00     0.096 C 
HETATM    9  N   UNL     1      23.252  50.643  49.463  1.00  0.00    -0.046 NA
HETATM   10  C   UNL     1      19.621  51.043  49.198  1.00  0.00     0.037 A 
HETATM   11  C   UNL     1      18.556  51.855  49.893  1.00  0.00     0.070 C 
HETATM   12  H   UNL     1      21.066  51.913  50.394  1.00  0.00     0.184 HD
ENDROOT
BRANCH   1  13
HETATM   13  C   UNL     1      17.983  49.809  47.825  1.00  0.00     0.256 C 
HETATM   14  N   UNL     1      17.630  50.297  46.584  1.00  0.00    -0.323 N 
HETATM   15  H   UNL     1      18.299  50.888  46.115  1.00  0.00     0.169 HD
HETATM   16  O   UNL     1      17.289  49.173  48.609  1.00  0.00    -0.267 OA
BRANCH  14  17
HETATM   17  C   UNL     1      16.408  50.086  45.897  1.00  0.00     0.041 A 
HETATM   18  C   UNL     1      15.436  51.112  45.901  1.00  0.00    -0.035 A 
HETATM   19  C   UNL     1      15.648  52.425  46.606  1.00  0.00     0.050 C 
HETATM   20  C   UNL     1      14.224  50.920  45.212  1.00  0.00     0.009 A 
HETATM   21  C   UNL     1      13.969  49.733  44.529  1.00  0.00     0.001 A 
HETATM   22  C   UNL     1      14.925  48.726  44.522  1.00  0.00     0.002 A 
HETATM   23  C   UNL     1      16.134  48.903  45.199  1.00  0.00     0.030 A 
ENDBRANCH  14  17
ENDBRANCH   1  13
BRANCH   2  24
HETATM   24  C   UNL     1      20.261  47.859  47.501  1.00  0.00    -0.028 A 
HETATM   25  C   UNL     1      19.996  47.227  46.276  1.00  0.00     0.012 A 
HETATM   26  C   UNL     1      19.768  45.851  46.223  1.00  0.00     0.037 A 
HETATM   27  C   UNL     1      19.805  45.077  47.383  1.00  0.00     0.068 A 
HETATM   28  C   UNL     1      20.062  45.695  48.606  1.00  0.00     0.037 A 
HETATM   29  C   UNL     1      20.289  47.076  48.665  1.00  0.00     0.012 A 
BRANCH  27  30
HETATM   30  O   UNL     1      19.571  43.744  47.186  1.00  0.00    -0.356 OA
HETATM   31  C   UNL     1      19.848  43.230  45.890  1.00  0.00     0.210 C 
ENDBRANCH  27  30
ENDBRANCH   2  24
TORSDOF 4
ENDMDL
