MODEL 1
REMARK VINA RESULT:     -10.3      0.000      0.000
REMARK  7 active torsions:
REMARK  status: ('A' for Active; 'I' for Inactive)
REMARK    1  A    between atoms: C_7  and  C_8 
REMARK    2  A    between atoms: C_8  and  C_9 
REMARK       I    between atoms: C_9  and  N_10 
REMARK    3  A    between atoms: N_10  and  N_11 
REMARK       I    between atoms: N_11  and  C_12 
REMARK    4  A    between atoms: C_12  and  C_13 
REMARK    5  A    between atoms: C_23  and  O_24 
REMARK    6  A    between atoms: O_24  and  C_25 
REMARK    7  A    between atoms: C_25  and  C_26 
ROOT
HETATM    1  C   UNL     1      23.312  45.365  48.798  1.00  0.00     0.068 C 
HETATM    2  C   UNL     1      24.108  45.578  50.035  1.00  0.00     0.013 A 
HETATM    3  N   UNL     1      24.101  44.663  51.058  1.00  0.00    -0.359 N 
HETATM    4  H   UNL     1      23.576  43.800  51.064  1.00  0.00     0.166 HD
HETATM    5  C   UNL     1      24.921  45.076  52.081  1.00  0.00     0.043 A 
HETATM    6  C   UNL     1      25.464  46.301  51.703  1.00  0.00     0.002 A 
HETATM    7  C   UNL     1      24.938  46.624  50.409  1.00  0.00    -0.015 A 
HETATM    8  C   UNL     1      25.220  44.461  53.301  1.00  0.00     0.033 A 
HETATM    9  C   UNL     1      26.112  45.113  54.162  1.00  0.00     0.039 A 
HETATM   10  C   UNL     1      26.683  46.336  53.815  1.00  0.00     0.070 A 
HETATM   11  C   UNL     1      26.356  46.939  52.592  1.00  0.00     0.051 A 
ENDROOT
BRANCH   7  12
HETATM   12  C   UNL     1      25.239  47.857  49.611  1.00  0.00     0.146 C 
BRANCH  12  13
HETATM   13  C   UNL     1      24.003  48.582  49.110  1.00  0.00     0.240 C 
HETATM   14  N   UNL     1      22.954  48.684  50.004  1.00  0.00    -0.267 N 
HETATM   15  H   UNL     1      22.854  48.029  50.783  1.00  0.00     0.190 HD
HETATM   16  O   UNL     1      23.964  49.127  48.004  1.00  0.00    -0.272 OA
BRANCH  14  17
HETATM   17  N   UNL     1      21.763  49.258  49.528  1.00  0.00    -0.263 N 
HETATM   18  C   UNL     1      21.463  50.547  49.923  1.00  0.00     0.270 C 
HETATM   19  O   UNL     1      22.240  51.239  50.576  1.00  0.00    -0.266 OA
HETATM   20  H   UNL     1      21.050  48.588  49.247  1.00  0.00     0.190 HD
BRANCH  18  21
HETATM   21  C   UNL     1      20.123  51.070  49.539  1.00  0.00     0.036 A 
HETATM   22  C   UNL     1      19.005  50.562  50.203  1.00  0.00     0.036 A 
HETATM   23  C   UNL     1      17.760  51.048  49.852  1.00  0.00     0.117 A 
HETATM   24  N   UNL     1      17.565  51.992  48.907  1.00  0.00    -0.273 NA
HETATM   25  C   UNL     1      18.662  52.479  48.292  1.00  0.00     0.117 A 
HETATM   26  C   UNL     1      19.952  52.060  48.569  1.00  0.00     0.036 A 
ENDBRANCH  18  21
ENDBRANCH  14  17
ENDBRANCH  12  13
ENDBRANCH   7  12
BRANCH  10  27
HETATM   27  O   UNL     1      27.574  47.051  54.571  1.00  0.00    -0.347 OA
BRANCH  27  28
HETATM   28  C   UNL     1      27.531  46.859  55.986  1.00  0.00     0.214 C 
BRANCH  28  29
HETATM   29  C   UNL     1      28.729  46.065  56.465  1.00  0.00    -0.034 A 
HETATM   30  C   UNL     1      29.509  45.294  55.591  1.00  0.00     0.009 A 
HETATM   31  C   UNL     1      30.626  44.598  56.060  1.00  0.00     0.001 A 
HETATM   32  C   UNL     1      30.984  44.675  57.403  1.00  0.00     0.000 A 
HETATM   33  C   UNL     1      30.228  45.449  58.280  1.00  0.00     0.001 A 
HETATM   34  C   UNL     1      29.110  46.143  57.814  1.00  0.00     0.009 A 
ENDBRANCH  28  29
ENDBRANCH  27  28
ENDBRANCH  10  27
TORSDOF 7
ENDMDL
MODEL 2
REMARK VINA RESULT:      -9.8      1.737      2.308
REMARK  7 active torsions:
REMARK  status: ('A' for Active; 'I' for Inactive)
REMARK    1  A    between atoms: C_7  and  C_8 
REMARK    2  A    between atoms: C_8  and  C_9 
REMARK       I    between atoms: C_9  and  N_10 
REMARK    3  A    between atoms: N_10  and  N_11 
REMARK       I    between atoms: N_11  and  C_12 
REMARK    4  A    between atoms: C_12  and  C_13 
REMARK    5  A    between atoms: C_23  and  O_24 
REMARK    6  A    between atoms: O_24  and  C_25 
REMARK    7  A    between atoms: C_25  and  C_26 
ROOT
HETATM    1  C   UNL     1      24.847  43.675  49.178  1.00  0.00     0.068 C 
HETATM    2  C   UNL     1      25.336  44.089  50.519  1.00  0.00     0.013 A 
HETATM    3  N   UNL     1      25.137  43.307  51.628  1.00  0.00    -0.359 N 
HETATM    4  H   UNL     1      24.659  42.416  51.635  1.00  0.00     0.166 HD
HETATM    5  C   UNL     1      25.689  43.896  52.741  1.00  0.00     0.043 A 
HETATM    6  C   UNL     1      26.253  45.100  52.330  1.00  0.00     0.002 A 
HETATM    7  C   UNL     1      26.019  45.228  50.922  1.00  0.00    -0.015 A 
HETATM    8  C   UNL     1      25.732  43.454  54.067  1.00  0.00     0.033 A 
HETATM    9  C   UNL     1      26.381  44.265  55.007  1.00  0.00     0.039 A 
HETATM   10  C   UNL     1      26.966  45.474  54.633  1.00  0.00     0.070 A 
HETATM   11  C   UNL     1      26.897  45.900  53.299  1.00  0.00     0.051 A 
ENDROOT
BRANCH   7  12
HETATM   12  C   UNL     1      26.441  46.372  50.051  1.00  0.00     0.146 C 
BRANCH  12  13
HETATM   13  C   UNL     1      25.394  47.464  49.920  1.00  0.00     0.240 C 
HETATM   14  N   UNL     1      24.083  47.077  50.123  1.00  0.00    -0.267 N 
HETATM   15  H   UNL     1      23.791  46.104  50.004  1.00  0.00     0.190 HD
HETATM   16  O   UNL     1      25.697  48.646  49.733  1.00  0.00    -0.272 OA
BRANCH  14  17
HETATM   17  N   UNL     1      23.090  48.047  49.905  1.00  0.00    -0.263 N 
HETATM   18  C   UNL     1      22.460  48.063  48.676  1.00  0.00     0.270 C 
HETATM   19  O   UNL     1      22.655  47.207  47.818  1.00  0.00    -0.266 OA
HETATM   20  H   UNL     1      23.162  48.872  50.498  1.00  0.00     0.190 HD
BRANCH  18  21
HETATM   21  C   UNL     1      21.532  49.198  48.416  1.00  0.00     0.036 A 
HETATM   22  C   UNL     1      20.544  49.029  47.444  1.00  0.00     0.036 A 
HETATM   23  C   UNL     1      19.678  50.078  47.203  1.00  0.00     0.117 A 
HETATM   24  N   UNL     1      19.730  51.257  47.859  1.00  0.00    -0.273 NA
HETATM   25  C   UNL     1      20.683  51.389  48.806  1.00  0.00     0.117 A 
HETATM   26  C   UNL     1      21.597  50.400  49.123  1.00  0.00     0.036 A 
ENDBRANCH  18  21
ENDBRANCH  14  17
ENDBRANCH  12  13
ENDBRANCH   7  12
BRANCH  10  27
HETATM   27  O   UNL     1      27.635  46.333  55.463  1.00  0.00    -0.347 OA
BRANCH  27  28
HETATM   28  C   UNL     1      29.029  46.528  55.213  1.00  0.00     0.214 C 
BRANCH  28  29
HETATM   29  C   UNL     1      29.865  45.536  55.995  1.00  0.00    -0.034 A 
HETATM   30  C   UNL     1      30.221  45.755  57.334  1.00  0.00     0.009 A 
HETATM   31  C   UNL     1      30.968  44.806  58.036  1.00  0.00     0.001 A 
HETATM   32  C   UNL     1      31.356  43.623  57.413  1.00  0.00     0.000 A 
HETATM   33  C   UNL     1      30.998  43.384  56.089  1.00  0.00     0.001 A 
HETATM   34  C   UNL     1      30.253  44.333  55.385  1.00  0.00     0.009 A 
ENDBRANCH  28  29
ENDBRANCH  27  28
ENDBRANCH  10  27
TORSDOF 7
ENDMDL
MODEL 3
REMARK VINA RESULT:      -9.8      3.004      4.381
REMARK  7 active torsions:
REMARK  status: ('A' for Active; 'I' for Inactive)
REMARK    1  A    between atoms: C_7  and  C_8 
REMARK    2  A    between atoms: C_8  and  C_9 
REMARK       I    between atoms: C_9  and  N_10 
REMARK    3  A    between atoms: N_10  and  N_11 
REMARK       I    between atoms: N_11  and  C_12 
REMARK    4  A    between atoms: C_12  and  C_13 
REMARK    5  A    between atoms: C_23  and  O_24 
REMARK    6  A    between atoms: O_24  and  C_25 
REMARK    7  A    between atoms: C_25  and  C_26 
ROOT
HETATM    1  C   UNL     1      26.105  40.307  48.651  1.00  0.00     0.068 C 
HETATM    2  C   UNL     1      26.578  40.965  49.898  1.00  0.00     0.013 A 
HETATM    3  N   UNL     1      27.744  40.583  50.511  1.00  0.00    -0.359 N 
HETATM    4  H   UNL     1      28.361  39.851  50.187  1.00  0.00     0.166 HD
HETATM    5  C   UNL     1      27.971  41.344  51.633  1.00  0.00     0.043 A 
HETATM    6  C   UNL     1      26.909  42.237  51.746  1.00  0.00     0.002 A 
HETATM    7  C   UNL     1      26.019  41.987  50.651  1.00  0.00    -0.015 A 
HETATM    8  C   UNL     1      29.030  41.308  52.547  1.00  0.00     0.033 A 
HETATM    9  C   UNL     1      29.009  42.222  53.609  1.00  0.00     0.039 A 
HETATM   10  C   UNL     1      27.968  43.138  53.750  1.00  0.00     0.070 A 
HETATM   11  C   UNL     1      26.912  43.143  52.828  1.00  0.00     0.051 A 
ENDROOT
BRANCH   7  12
HETATM   12  C   UNL     1      24.734  42.705  50.369  1.00  0.00     0.146 C 
BRANCH  12  13
HETATM   13  C   UNL     1      24.913  44.169  50.010  1.00  0.00     0.240 C 
HETATM   14  N   UNL     1      23.993  45.046  50.553  1.00  0.00    -0.267 N 
HETATM   15  H   UNL     1      23.070  44.727  50.857  1.00  0.00     0.190 HD
HETATM   16  O   UNL     1      25.873  44.570  49.346  1.00  0.00    -0.272 OA
BRANCH  14  17
HETATM   17  N   UNL     1      24.077  46.390  50.152  1.00  0.00    -0.263 N 
HETATM   18  C   UNL     1      23.207  46.828  49.172  1.00  0.00     0.270 C 
HETATM   19  O   UNL     1      22.304  46.126  48.723  1.00  0.00    -0.266 OA
HETATM   20  H   UNL     1      24.977  46.831  50.326  1.00  0.00     0.190 HD
BRANCH  18  21
HETATM   21  C   UNL     1      23.425  48.206  48.652  1.00  0.00     0.036 A 
HETATM   22  C   UNL     1      24.708  48.748  48.746  1.00  0.00     0.036 A 
HETATM   23  C   UNL     1      24.916  50.024  48.260  1.00  0.00     0.117 A 
HETATM   24  N   UNL     1      23.948  50.775  47.693  1.00  0.00    -0.273 NA
HETATM   25  C   UNL     1      22.720  50.222  47.598  1.00  0.00     0.117 A 
HETATM   26  C   UNL     1      22.409  48.953  48.054  1.00  0.00     0.036 A 
ENDBRANCH  18  21
ENDBRANCH  14  17
ENDBRANCH  12  13
ENDBRANCH   7  12
BRANCH  10  27
HETATM   27  O   UNL     1      27.855  44.081  54.737  1.00  0.00    -0.347 OA
BRANCH  27  28
HETATM   28  C   UNL     1      28.858  45.097  54.785  1.00  0.00     0.214 C 
BRANCH  28  29
HETATM   29  C   UNL     1      29.734  44.940  56.010  1.00  0.00    -0.034 A 
HETATM   30  C   UNL     1      30.750  43.976  56.081  1.00  0.00     0.009 A 
HETATM   31  C   UNL     1      31.560  43.877  57.215  1.00  0.00     0.001 A 
HETATM   32  C   UNL     1      31.374  44.748  58.285  1.00  0.00     0.000 A 
HETATM   33  C   UNL     1      30.379  45.721  58.224  1.00  0.00     0.001 A 
HETATM   34  C   UNL     1      29.567  45.819  57.092  1.00  0.00     0.009 A 
ENDBRANCH  28  29
ENDBRANCH  27  28
ENDBRANCH  10  27
TORSDOF 7
ENDMDL
MODEL 4
REMARK VINA RESULT:      -9.7      4.419      7.284
REMARK  7 active torsions:
REMARK  status: ('A' for Active; 'I' for Inactive)
REMARK    1  A    between atoms: C_7  and  C_8 
REMARK    2  A    between atoms: C_8  and  C_9 
REMARK       I    between atoms: C_9  and  N_10 
REMARK    3  A    between atoms: N_10  and  N_11 
REMARK       I    between atoms: N_11  and  C_12 
REMARK    4  A    between atoms: C_12  and  C_13 
REMARK    5  A    between atoms: C_23  and  O_24 
REMARK    6  A    between atoms: O_24  and  C_25 
REMARK    7  A    between atoms: C_25  and  C_26 
ROOT
HETATM    1  C   UNL     1      28.446  46.390  57.228  1.00  0.00     0.068 C 
HETATM    2  C   UNL     1      28.531  45.502  56.039  1.00  0.00     0.013 A 
HETATM    3  N   UNL     1      29.693  44.846  55.717  1.00  0.00    -0.359 N 
HETATM    4  H   UNL     1      30.559  44.906  56.234  1.00  0.00     0.166 HD
HETATM    5  C   UNL     1      29.518  44.081  54.589  1.00  0.00     0.043 A 
HETATM    6  C   UNL     1      28.202  44.260  54.171  1.00  0.00     0.002 A 
HETATM    7  C   UNL     1      27.580  45.171  55.085  1.00  0.00    -0.015 A 
HETATM    8  C   UNL     1      30.419  43.250  53.915  1.00  0.00     0.033 A 
HETATM    9  C   UNL     1      29.959  42.570  52.780  1.00  0.00     0.039 A 
HETATM   10  C   UNL     1      28.646  42.716  52.335  1.00  0.00     0.070 A 
HETATM   11  C   UNL     1      27.767  43.566  53.021  1.00  0.00     0.051 A 
ENDROOT
BRANCH   7  12
HETATM   12  C   UNL     1      26.166  45.664  55.025  1.00  0.00     0.146 C 
BRANCH  12  13
HETATM   13  C   UNL     1      25.941  46.763  54.003  1.00  0.00     0.240 C 
HETATM   14  N   UNL     1      25.473  46.359  52.767  1.00  0.00    -0.267 N 
HETATM   15  H   UNL     1      25.613  45.402  52.433  1.00  0.00     0.190 HD
HETATM   16  O   UNL     1      26.080  47.958  54.281  1.00  0.00    -0.272 OA
BRANCH  14  17
HETATM   17  N   UNL     1      25.357  47.345  51.774  1.00  0.00    -0.263 N 
HETATM   18  C   UNL     1      25.921  47.090  50.539  1.00  0.00     0.270 C 
HETATM   19  O   UNL     1      26.418  46.006  50.247  1.00  0.00    -0.266 OA
HETATM   20  H   UNL     1      25.205  48.289  52.125  1.00  0.00     0.190 HD
BRANCH  18  21
HETATM   21  C   UNL     1      25.925  48.213  49.561  1.00  0.00     0.036 A 
HETATM   22  C   UNL     1      24.704  48.616  49.018  1.00  0.00     0.036 A 
HETATM   23  C   UNL     1      24.703  49.661  48.114  1.00  0.00     0.117 A 
HETATM   24  N   UNL     1      25.818  50.319  47.731  1.00  0.00    -0.273 NA
HETATM   25  C   UNL     1      26.984  49.923  48.284  1.00  0.00     0.117 A 
HETATM   26  C   UNL     1      27.091  48.888  49.197  1.00  0.00     0.036 A 
ENDBRANCH  18  21
ENDBRANCH  14  17
ENDBRANCH  12  13
ENDBRANCH   7  12
BRANCH  10  27
HETATM   27  O   UNL     1      28.090  42.090  51.252  1.00  0.00    -0.347 OA
BRANCH  27  28
HETATM   28  C   UNL     1      27.668  40.736  51.426  1.00  0.00     0.214 C 
BRANCH  28  29
HETATM   29  C   UNL     1      28.342  39.823  50.423  1.00  0.00    -0.034 A 
HETATM   30  C   UNL     1      29.221  38.803  50.818  1.00  0.00     0.009 A 
HETATM   31  C   UNL     1      29.802  37.959  49.869  1.00  0.00     0.001 A 
HETATM   32  C   UNL     1      29.504  38.115  48.518  1.00  0.00     0.000 A 
HETATM   33  C   UNL     1      28.622  39.113  48.111  1.00  0.00     0.001 A 
HETATM   34  C   UNL     1      28.042  39.960  49.059  1.00  0.00     0.009 A 
ENDBRANCH  28  29
ENDBRANCH  27  28
ENDBRANCH  10  27
TORSDOF 7
ENDMDL
MODEL 5
REMARK VINA RESULT:      -9.6      2.523      3.308
REMARK  7 active torsions:
REMARK  status: ('A' for Active; 'I' for Inactive)
REMARK    1  A    between atoms: C_7  and  C_8 
REMARK    2  A    between atoms: C_8  and  C_9 
REMARK       I    between atoms: C_9  and  N_10 
REMARK    3  A    between atoms: N_10  and  N_11 
REMARK       I    between atoms: N_11  and  C_12 
REMARK    4  A    between atoms: C_12  and  C_13 
REMARK    5  A    between atoms: C_23  and  O_24 
REMARK    6  A    between atoms: O_24  and  C_25 
REMARK    7  A    between atoms: C_25  and  C_26 
ROOT
HETATM    1  C   UNL     1      24.226  42.773  49.208  1.00  0.00     0.068 C 
HETATM    2  C   UNL     1      25.390  42.810  50.132  1.00  0.00     0.013 A 
HETATM    3  N   UNL     1      25.766  41.707  50.856  1.00  0.00    -0.359 N 
HETATM    4  H   UNL     1      25.305  40.808  50.830  1.00  0.00     0.166 HD
HETATM    5  C   UNL     1      26.871  41.987  51.624  1.00  0.00     0.043 A 
HETATM    6  C   UNL     1      27.209  43.317  51.389  1.00  0.00     0.002 A 
HETATM    7  C   UNL     1      26.261  43.842  50.450  1.00  0.00    -0.015 A 
HETATM    8  C   UNL     1      27.591  41.167  52.500  1.00  0.00     0.033 A 
HETATM    9  C   UNL     1      28.700  41.721  53.152  1.00  0.00     0.039 A 
HETATM   10  C   UNL     1      29.075  43.046  52.935  1.00  0.00     0.070 A 
HETATM   11  C   UNL     1      28.328  43.850  52.062  1.00  0.00     0.051 A 
ENDROOT
BRANCH   7  12
HETATM   12  C   UNL     1      26.227  45.240  49.910  1.00  0.00     0.146 C 
BRANCH  12  13
HETATM   13  C   UNL     1      25.016  46.041  50.354  1.00  0.00     0.240 C 
HETATM   14  N   UNL     1      24.246  46.588  49.345  1.00  0.00    -0.267 N 
HETATM   15  H   UNL     1      24.635  46.765  48.416  1.00  0.00     0.190 HD
HETATM   16  O   UNL     1      24.684  46.127  51.539  1.00  0.00    -0.272 OA
BRANCH  14  17
HETATM   17  N   UNL     1      23.182  47.419  49.733  1.00  0.00    -0.263 N 
HETATM   18  C   UNL     1      22.345  47.902  48.746  1.00  0.00     0.270 C 
HETATM   19  O   UNL     1      22.429  47.551  47.573  1.00  0.00    -0.266 OA
HETATM   20  H   UNL     1      23.316  47.895  50.624  1.00  0.00     0.190 HD
BRANCH  18  21
HETATM   21  C   UNL     1      21.329  48.907  49.165  1.00  0.00     0.036 A 
HETATM   22  C   UNL     1      21.737  50.235  49.307  1.00  0.00     0.036 A 
HETATM   23  C   UNL     1      20.796  51.171  49.690  1.00  0.00     0.117 A 
HETATM   24  N   UNL     1      19.501  50.875  49.928  1.00  0.00    -0.273 NA
HETATM   25  C   UNL     1      19.127  49.588  49.768  1.00  0.00     0.117 A 
HETATM   26  C   UNL     1      19.991  48.576  49.387  1.00  0.00     0.036 A 
ENDBRANCH  18  21
ENDBRANCH  14  17
ENDBRANCH  12  13
ENDBRANCH   7  12
BRANCH  10  27
HETATM   27  O   UNL     1      30.146  43.682  53.505  1.00  0.00    -0.347 OA
BRANCH  27  28
HETATM   28  C   UNL     1      30.707  43.090  54.678  1.00  0.00     0.214 C 
BRANCH  28  29
HETATM   29  C   UNL     1      30.594  44.024  55.866  1.00  0.00    -0.034 A 
HETATM   30  C   UNL     1      29.718  45.119  55.872  1.00  0.00     0.009 A 
HETATM   31  C   UNL     1      29.616  45.943  56.995  1.00  0.00     0.001 A 
HETATM   32  C   UNL     1      30.379  45.676  58.129  1.00  0.00     0.000 A 
HETATM   33  C   UNL     1      31.243  44.584  58.144  1.00  0.00     0.001 A 
HETATM   34  C   UNL     1      31.347  43.761  57.021  1.00  0.00     0.009 A 
ENDBRANCH  28  29
ENDBRANCH  27  28
ENDBRANCH  10  27
TORSDOF 7
ENDMDL
MODEL 6
REMARK VINA RESULT:      -9.1      1.618      2.298
REMARK  7 active torsions:
REMARK  status: ('A' for Active; 'I' for Inactive)
REMARK    1  A    between atoms: C_7  and  C_8 
REMARK    2  A    between atoms: C_8  and  C_9 
REMARK       I    between atoms: C_9  and  N_10 
REMARK    3  A    between atoms: N_10  and  N_11 
REMARK       I    between atoms: N_11  and  C_12 
REMARK    4  A    between atoms: C_12  and  C_13 
REMARK    5  A    between atoms: C_23  and  O_24 
REMARK    6  A    between atoms: O_24  and  C_25 
REMARK    7  A    between atoms: C_25  and  C_26 
ROOT
HETATM    1  C   UNL     1      21.925  47.001  47.738  1.00  0.00     0.068 C 
HETATM    2  C   UNL     1      22.849  46.462  48.770  1.00  0.00     0.013 A 
HETATM    3  N   UNL     1      22.757  45.164  49.207  1.00  0.00    -0.359 N 
HETATM    4  H   UNL     1      22.081  44.487  48.883  1.00  0.00     0.166 HD
HETATM    5  C   UNL     1      23.724  44.901  50.147  1.00  0.00     0.043 A 
HETATM    6  C   UNL     1      24.454  46.073  50.324  1.00  0.00     0.002 A 
HETATM    7  C   UNL     1      23.891  47.066  49.458  1.00  0.00    -0.015 A 
HETATM    8  C   UNL     1      24.005  43.723  50.847  1.00  0.00     0.033 A 
HETATM    9  C   UNL     1      25.074  43.738  51.752  1.00  0.00     0.039 A 
HETATM   10  C   UNL     1      25.834  44.889  51.950  1.00  0.00     0.070 A 
HETATM   11  C   UNL     1      25.523  46.061  51.246  1.00  0.00     0.051 A 
ENDROOT
BRANCH   7  12
HETATM   12  C   UNL     1      24.349  48.487  49.318  1.00  0.00     0.146 C 
BRANCH  12  13
HETATM   13  C   UNL     1      23.228  49.470  49.036  1.00  0.00     0.240 C 
HETATM   14  N   UNL     1      22.317  49.662  50.058  1.00  0.00    -0.267 N 
HETATM   15  H   UNL     1      22.177  48.956  50.785  1.00  0.00     0.190 HD
HETATM   16  O   UNL     1      23.177  50.129  47.994  1.00  0.00    -0.272 OA
BRANCH  14  17
HETATM   17  N   UNL     1      21.213  50.487  49.783  1.00  0.00    -0.263 N 
HETATM   18  C   UNL     1      19.965  49.900  49.724  1.00  0.00     0.270 C 
HETATM   19  O   UNL     1      19.771  48.720  50.004  1.00  0.00    -0.266 OA
HETATM   20  H   UNL     1      21.439  51.352  49.296  1.00  0.00     0.190 HD
BRANCH  18  21
HETATM   21  C   UNL     1      18.840  50.764  49.272  1.00  0.00     0.036 A 
HETATM   22  C   UNL     1      18.124  50.373  48.139  1.00  0.00     0.036 A 
HETATM   23  C   UNL     1      17.077  51.170  47.720  1.00  0.00     0.117 A 
HETATM   24  N   UNL     1      16.702  52.304  48.348  1.00  0.00    -0.273 NA
HETATM   25  C   UNL     1      17.399  52.653  49.451  1.00  0.00     0.117 A 
HETATM   26  C   UNL     1      18.463  51.923  49.952  1.00  0.00     0.036 A 
ENDBRANCH  18  21
ENDBRANCH  14  17
ENDBRANCH  12  13
ENDBRANCH   7  12
BRANCH  10  27
HETATM   27  O   UNL     1      26.905  45.010  52.795  1.00  0.00    -0.347 OA
BRANCH  27  28
HETATM   28  C   UNL     1      27.119  43.953  53.732  1.00  0.00     0.214 C 
BRANCH  28  29
HETATM   29  C   UNL     1      28.418  44.150  54.487  1.00  0.00    -0.034 A 
HETATM   30  C   UNL     1      28.654  45.283  55.279  1.00  0.00     0.009 A 
HETATM   31  C   UNL     1      29.851  45.419  55.986  1.00  0.00     0.001 A 
HETATM   32  C   UNL     1      30.819  44.421  55.921  1.00  0.00     0.000 A 
HETATM   33  C   UNL     1      30.593  43.283  55.151  1.00  0.00     0.001 A 
HETATM   34  C   UNL     1      29.398  43.146  54.441  1.00  0.00     0.009 A 
ENDBRANCH  28  29
ENDBRANCH  27  28
ENDBRANCH  10  27
TORSDOF 7
ENDMDL
MODEL 7
REMARK VINA RESULT:      -8.9      4.345      8.369
REMARK  7 active torsions:
REMARK  status: ('A' for Active; 'I' for Inactive)
REMARK    1  A    between atoms: C_7  and  C_8 
REMARK    2  A    between atoms: C_8  and  C_9 
REMARK       I    between atoms: C_9  and  N_10 
REMARK    3  A    between atoms: N_10  and  N_11 
REMARK       I    between atoms: N_11  and  C_12 
REMARK    4  A    between atoms: C_12  and  C_13 
REMARK    5  A    between atoms: C_23  and  O_24 
REMARK    6  A    between atoms: O_24  and  C_25 
REMARK    7  A    between atoms: C_25  and  C_26 
ROOT
HETATM    1  C   UNL     1      22.446  45.693  47.988  1.00  0.00     0.068 C 
HETATM    2  C   UNL     1      23.352  45.737  49.165  1.00  0.00     0.013 A 
HETATM    3  N   UNL     1      24.136  46.832  49.425  1.00  0.00    -0.359 N 
HETATM    4  H   UNL     1      24.170  47.672  48.863  1.00  0.00     0.166 HD
HETATM    5  C   UNL     1      24.873  46.639  50.570  1.00  0.00     0.043 A 
HETATM    6  C   UNL     1      24.554  45.373  51.053  1.00  0.00     0.002 A 
HETATM    7  C   UNL     1      23.598  44.797  50.155  1.00  0.00    -0.015 A 
HETATM    8  C   UNL     1      25.787  47.484  51.207  1.00  0.00     0.033 A 
HETATM    9  C   UNL     1      26.391  47.025  52.384  1.00  0.00     0.039 A 
HETATM   10  C   UNL     1      26.092  45.768  52.905  1.00  0.00     0.070 A 
HETATM   11  C   UNL     1      25.181  44.934  52.239  1.00  0.00     0.051 A 
ENDROOT
BRANCH   7  12
HETATM   12  C   UNL     1      22.976  43.438  50.271  1.00  0.00     0.146 C 
BRANCH  12  13
HETATM   13  C   UNL     1      23.762  42.340  49.578  1.00  0.00     0.240 C 
HETATM   14  N   UNL     1      24.778  41.762  50.314  1.00  0.00    -0.267 N 
HETATM   15  H   UNL     1      25.214  42.255  51.097  1.00  0.00     0.190 HD
HETATM   16  O   UNL     1      23.459  41.923  48.456  1.00  0.00    -0.272 OA
BRANCH  14  17
HETATM   17  N   UNL     1      25.585  40.818  49.657  1.00  0.00    -0.263 N 
HETATM   18  C   UNL     1      26.756  40.425  50.276  1.00  0.00     0.270 C 
HETATM   19  O   UNL     1      27.061  40.783  51.411  1.00  0.00    -0.266 OA
HETATM   20  H   UNL     1      25.453  40.772  48.649  1.00  0.00     0.190 HD
BRANCH  18  21
HETATM   21  C   UNL     1      27.668  39.552  49.488  1.00  0.00     0.036 A 
HETATM   22  C   UNL     1      27.354  39.311  48.149  1.00  0.00     0.036 A 
HETATM   23  C   UNL     1      28.201  38.505  47.413  1.00  0.00     0.117 A 
HETATM   24  N   UNL     1      29.320  37.941  47.914  1.00  0.00    -0.273 NA
HETATM   25  C   UNL     1      29.611  38.202  49.206  1.00  0.00     0.117 A 
HETATM   26  C   UNL     1      28.830  38.996  50.028  1.00  0.00     0.036 A 
ENDBRANCH  18  21
ENDBRANCH  14  17
ENDBRANCH  12  13
ENDBRANCH   7  12
BRANCH  10  27
HETATM   27  O   UNL     1      26.610  45.228  54.052  1.00  0.00    -0.347 OA
BRANCH  27  28
HETATM   28  C   UNL     1      27.624  45.976  54.725  1.00  0.00     0.214 C 
BRANCH  28  29
HETATM   29  C   UNL     1      28.796  45.091  55.097  1.00  0.00    -0.034 A 
HETATM   30  C   UNL     1      29.122  43.940  54.366  1.00  0.00     0.009 A 
HETATM   31  C   UNL     1      30.228  43.162  54.719  1.00  0.00     0.001 A 
HETATM   32  C   UNL     1      31.028  43.533  55.796  1.00  0.00     0.000 A 
HETATM   33  C   UNL     1      30.726  44.682  56.523  1.00  0.00     0.001 A 
HETATM   34  C   UNL     1      29.619  45.459  56.173  1.00  0.00     0.009 A 
ENDBRANCH  28  29
ENDBRANCH  27  28
ENDBRANCH  10  27
TORSDOF 7
ENDMDL
MODEL 8
REMARK VINA RESULT:      -8.9     18.588     21.248
REMARK  7 active torsions:
REMARK  status: ('A' for Active; 'I' for Inactive)
REMARK    1  A    between atoms: C_7  and  C_8 
REMARK    2  A    between atoms: C_8  and  C_9 
REMARK       I    between atoms: C_9  and  N_10 
REMARK    3  A    between atoms: N_10  and  N_11 
REMARK       I    between atoms: N_11  and  C_12 
REMARK    4  A    between atoms: C_12  and  C_13 
REMARK    5  A    between atoms: C_23  and  O_24 
REMARK    6  A    between atoms: O_24  and  C_25 
REMARK    7  A    between atoms: C_25  and  C_26 
ROOT
HETATM    1  C   UNL     1      35.172  47.975  67.766  1.00  0.00     0.068 C 
HETATM    2  C   UNL     1      35.616  46.884  66.860  1.00  0.00     0.013 A 
HETATM    3  N   UNL     1      35.254  45.579  67.079  1.00  0.00    -0.359 N 
HETATM    4  H   UNL     1      34.679  45.254  67.845  1.00  0.00     0.166 HD
HETATM    5  C   UNL     1      35.774  44.763  66.103  1.00  0.00     0.043 A 
HETATM    6  C   UNL     1      36.501  45.573  65.235  1.00  0.00     0.002 A 
HETATM    7  C   UNL     1      36.410  46.917  65.723  1.00  0.00    -0.015 A 
HETATM    8  C   UNL     1      35.655  43.380  65.926  1.00  0.00     0.033 A 
HETATM    9  C   UNL     1      36.292  42.805  64.819  1.00  0.00     0.039 A 
HETATM   10  C   UNL     1      37.021  43.584  63.922  1.00  0.00     0.070 A 
HETATM   11  C   UNL     1      37.136  44.966  64.131  1.00  0.00     0.051 A 
ENDROOT
BRANCH   7  12
HETATM   12  C   UNL     1      37.045  48.129  65.111  1.00  0.00     0.146 C 
BRANCH  12  13
HETATM   13  C   UNL     1      38.518  48.285  65.443  1.00  0.00     0.240 C 
HETATM   14  N   UNL     1      39.407  47.756  64.526  1.00  0.00    -0.267 N 
HETATM   15  H   UNL     1      39.127  47.012  63.883  1.00  0.00     0.190 HD
HETATM   16  O   UNL     1      38.907  48.923  66.425  1.00  0.00    -0.272 OA
BRANCH  14  17
HETATM   17  N   UNL     1      40.770  47.796  64.863  1.00  0.00    -0.263 N 
HETATM   18  C   UNL     1      41.566  46.738  64.469  1.00  0.00     0.270 C 
HETATM   19  O   UNL     1      41.155  45.828  63.753  1.00  0.00    -0.266 OA
HETATM   20  H   UNL     1      40.996  48.387  65.661  1.00  0.00     0.190 HD
BRANCH  18  21
HETATM   21  C   UNL     1      42.965  46.727  64.977  1.00  0.00     0.036 A 
HETATM   22  C   UNL     1      43.951  46.147  64.177  1.00  0.00     0.036 A 
HETATM   23  C   UNL     1      45.251  46.140  64.643  1.00  0.00     0.117 A 
HETATM   24  N   UNL     1      45.624  46.670  65.827  1.00  0.00    -0.273 NA
HETATM   25  C   UNL     1      44.656  47.241  66.575  1.00  0.00     0.117 A 
HETATM   26  C   UNL     1      43.325  47.299  66.199  1.00  0.00     0.036 A 
ENDBRANCH  18  21
ENDBRANCH  14  17
ENDBRANCH  12  13
ENDBRANCH   7  12
BRANCH  10  27
HETATM   27  O   UNL     1      37.667  43.129  62.804  1.00  0.00    -0.347 OA
BRANCH  27  28
HETATM   28  C   UNL     1      39.087  42.994  62.881  1.00  0.00     0.214 C 
BRANCH  28  29
HETATM   29  C   UNL     1      39.479  41.588  63.287  1.00  0.00    -0.034 A 
HETATM   30  C   UNL     1      39.267  40.485  62.447  1.00  0.00     0.009 A 
HETATM   31  C   UNL     1      39.668  39.205  62.839  1.00  0.00     0.001 A 
HETATM   32  C   UNL     1      40.294  39.014  64.067  1.00  0.00     0.000 A 
HETATM   33  C   UNL     1      40.525  40.102  64.906  1.00  0.00     0.001 A 
HETATM   34  C   UNL     1      40.123  41.382  64.517  1.00  0.00     0.009 A 
ENDBRANCH  28  29
ENDBRANCH  27  28
ENDBRANCH  10  27
TORSDOF 7
ENDMDL
MODEL 9
REMARK VINA RESULT:      -8.9      2.514     10.834
REMARK  7 active torsions:
REMARK  status: ('A' for Active; 'I' for Inactive)
REMARK    1  A    between atoms: C_7  and  C_8 
REMARK    2  A    between atoms: C_8  and  C_9 
REMARK       I    between atoms: C_9  and  N_10 
REMARK    3  A    between atoms: N_10  and  N_11 
REMARK       I    between atoms: N_11  and  C_12 
REMARK    4  A    between atoms: C_12  and  C_13 
REMARK    5  A    between atoms: C_23  and  O_24 
REMARK    6  A    between atoms: O_24  and  C_25 
REMARK    7  A    between atoms: C_25  and  C_26 
ROOT
HETATM    1  C   UNL     1      27.089  48.347  49.243  1.00  0.00     0.068 C 
HETATM    2  C   UNL     1      25.640  48.663  49.144  1.00  0.00     0.013 A 
HETATM    3  N   UNL     1      25.203  49.908  48.766  1.00  0.00    -0.359 N 
HETATM    4  H   UNL     1      25.800  50.689  48.533  1.00  0.00     0.166 HD
HETATM    5  C   UNL     1      23.829  49.949  48.737  1.00  0.00     0.043 A 
HETATM    6  C   UNL     1      23.372  48.690  49.118  1.00  0.00     0.002 A 
HETATM    7  C   UNL     1      24.523  47.878  49.387  1.00  0.00    -0.015 A 
HETATM    8  C   UNL     1      22.966  50.998  48.404  1.00  0.00     0.033 A 
HETATM    9  C   UNL     1      21.587  50.751  48.451  1.00  0.00     0.039 A 
HETATM   10  C   UNL     1      21.092  49.501  48.819  1.00  0.00     0.070 A 
HETATM   11  C   UNL     1      21.979  48.471  49.161  1.00  0.00     0.051 A 
ENDROOT
BRANCH   7  12
HETATM   12  C   UNL     1      24.515  46.448  49.837  1.00  0.00     0.146 C 
BRANCH  12  13
HETATM   13  C   UNL     1      25.752  46.043  50.617  1.00  0.00     0.240 C 
HETATM   14  N   UNL     1      25.775  46.405  51.951  1.00  0.00    -0.267 N 
HETATM   15  H   UNL     1      25.210  47.181  52.301  1.00  0.00     0.190 HD
HETATM   16  O   UNL     1      26.647  45.354  50.120  1.00  0.00    -0.272 OA
BRANCH  14  17
HETATM   17  N   UNL     1      26.953  46.132  52.666  1.00  0.00    -0.263 N 
HETATM   18  C   UNL     1      26.934  45.090  53.572  1.00  0.00     0.270 C 
HETATM   19  O   UNL     1      25.973  44.335  53.696  1.00  0.00    -0.266 OA
HETATM   20  H   UNL     1      27.596  46.918  52.745  1.00  0.00     0.190 HD
BRANCH  18  21
HETATM   21  C   UNL     1      28.140  44.927  54.431  1.00  0.00     0.036 A 
HETATM   22  C   UNL     1      28.910  43.774  54.271  1.00  0.00     0.036 A 
HETATM   23  C   UNL     1      30.032  43.622  55.063  1.00  0.00     0.117 A 
HETATM   24  N   UNL     1      30.430  44.531  55.978  1.00  0.00    -0.273 NA
HETATM   25  C   UNL     1      29.679  45.646  56.101  1.00  0.00     0.117 A 
HETATM   26  C   UNL     1      28.538  45.893  55.357  1.00  0.00     0.036 A 
ENDBRANCH  18  21
ENDBRANCH  14  17
ENDBRANCH  12  13
ENDBRANCH   7  12
BRANCH  10  27
HETATM   27  O   UNL     1      19.770  49.148  48.884  1.00  0.00    -0.347 OA
BRANCH  27  28
HETATM   28  C   UNL     1      19.017  49.640  49.993  1.00  0.00     0.214 C 
BRANCH  28  29
HETATM   29  C   UNL     1      17.963  50.629  49.539  1.00  0.00    -0.034 A 
HETATM   30  C   UNL     1      16.853  50.236  48.776  1.00  0.00     0.009 A 
HETATM   31  C   UNL     1      15.883  51.168  48.400  1.00  0.00     0.001 A 
HETATM   32  C   UNL     1      16.003  52.499  48.791  1.00  0.00     0.000 A 
HETATM   33  C   UNL     1      17.091  52.902  49.561  1.00  0.00     0.001 A 
HETATM   34  C   UNL     1      18.063  51.971  49.936  1.00  0.00     0.009 A 
ENDBRANCH  28  29
ENDBRANCH  27  28
ENDBRANCH  10  27
TORSDOF 7
ENDMDL
MODEL 10
REMARK VINA RESULT:      -8.9      3.489      4.851
REMARK  7 active torsions:
REMARK  status: ('A' for Active; 'I' for Inactive)
REMARK    1  A    between atoms: C_7  and  C_8 
REMARK    2  A    between atoms: C_8  and  C_9 
REMARK       I    between atoms: C_9  and  N_10 
REMARK    3  A    between atoms: N_10  and  N_11 
REMARK       I    between atoms: N_11  and  C_12 
REMARK    4  A    between atoms: C_12  and  C_13 
REMARK    5  A    between atoms: C_23  and  O_24 
REMARK    6  A    between atoms: O_24  and  C_25 
REMARK    7  A    between atoms: C_25  and  C_26 
ROOT
HETATM    1  C   UNL     1      23.430  41.638  46.133  1.00  0.00     0.068 C 
HETATM    2  C   UNL     1      24.372  41.600  47.282  1.00  0.00     0.013 A 
HETATM    3  N   UNL     1      25.686  41.238  47.120  1.00  0.00    -0.359 N 
HETATM    4  H   UNL     1      26.114  40.974  46.243  1.00  0.00     0.166 HD
HETATM    5  C   UNL     1      26.353  41.293  48.320  1.00  0.00     0.043 A 
HETATM    6  C   UNL     1      25.433  41.694  49.284  1.00  0.00     0.002 A 
HETATM    7  C   UNL     1      24.173  41.878  48.626  1.00  0.00    -0.015 A 
HETATM    8  C   UNL     1      27.692  41.019  48.620  1.00  0.00     0.033 A 
HETATM    9  C   UNL     1      28.109  41.170  49.949  1.00  0.00     0.039 A 
HETATM   10  C   UNL     1      27.219  41.580  50.941  1.00  0.00     0.070 A 
HETATM   11  C   UNL     1      25.879  41.834  50.616  1.00  0.00     0.051 A 
ENDROOT
BRANCH   7  12
HETATM   12  C   UNL     1      22.887  42.300  49.271  1.00  0.00     0.146 C 
BRANCH  12  13
HETATM   13  C   UNL     1      22.875  43.746  49.730  1.00  0.00     0.240 C 
HETATM   14  N   UNL     1      22.367  44.666  48.832  1.00  0.00    -0.267 N 
HETATM   15  H   UNL     1      22.345  44.472  47.828  1.00  0.00     0.190 HD
HETATM   16  O   UNL     1      23.215  44.077  50.870  1.00  0.00    -0.272 OA
BRANCH  14  17
HETATM   17  N   UNL     1      22.443  46.021  49.194  1.00  0.00    -0.263 N 
HETATM   18  C   UNL     1      22.413  46.964  48.185  1.00  0.00     0.270 C 
HETATM   19  O   UNL     1      22.217  46.671  47.009  1.00  0.00    -0.266 OA
HETATM   20  H   UNL     1      22.874  46.197  50.100  1.00  0.00     0.190 HD
BRANCH  18  21
HETATM   21  C   UNL     1      22.658  48.377  48.583  1.00  0.00     0.036 A 
HETATM   22  C   UNL     1      21.605  49.089  49.162  1.00  0.00     0.036 A 
HETATM   23  C   UNL     1      21.830  50.400  49.537  1.00  0.00     0.117 A 
HETATM   24  N   UNL     1      23.014  51.029  49.381  1.00  0.00    -0.273 NA
HETATM   25  C   UNL     1      24.021  50.315  48.835  1.00  0.00     0.117 A 
HETATM   26  C   UNL     1      23.898  48.998  48.427  1.00  0.00     0.036 A 
ENDBRANCH  18  21
ENDBRANCH  14  17
ENDBRANCH  12  13
ENDBRANCH   7  12
BRANCH  10  27
HETATM   27  O   UNL     1      27.521  41.773  52.263  1.00  0.00    -0.347 OA
BRANCH  27  28
HETATM   28  C   UNL     1      27.227  43.056  52.818  1.00  0.00     0.214 C 
BRANCH  28  29
HETATM   29  C   UNL     1      28.322  43.504  53.764  1.00  0.00    -0.034 A 
HETATM   30  C   UNL     1      28.195  44.651  54.561  1.00  0.00     0.009 A 
HETATM   31  C   UNL     1      29.212  45.019  55.445  1.00  0.00     0.001 A 
HETATM   32  C   UNL     1      30.360  44.239  55.554  1.00  0.00     0.000 A 
HETATM   33  C   UNL     1      30.494  43.088  54.781  1.00  0.00     0.001 A 
HETATM   34  C   UNL     1      29.480  42.720  53.895  1.00  0.00     0.009 A 
ENDBRANCH  28  29
ENDBRANCH  27  28
ENDBRANCH  10  27
TORSDOF 7
ENDMDL
