MODEL 1
REMARK VINA RESULT:     -11.7      0.000      0.000
REMARK  4 active torsions:
REMARK  status: ('A' for Active; 'I' for Inactive)
REMARK    1  A    between atoms: C_2  and  C_3 
REMARK    2  A    between atoms: N_16  and  C_17 
REMARK    3  A    between atoms: C_17  and  C_18 
REMARK       I    between atoms: C_18  and  N_19 
REMARK    4  A    between atoms: N_19  and  C_20 
ROOT
HETATM    1  C   UNL     1      27.349  41.900  51.043  1.00  0.00     0.054 C 
HETATM    2  C   UNL     1      26.630  43.160  51.533  1.00  0.00     0.140 A 
HETATM    3  N   UNL     1      25.249  42.836  51.824  1.00  0.00    -0.321 N 
HETATM    4  C   UNL     1      24.362  43.470  50.992  1.00  0.00     0.326 A 
HETATM    5  O   UNL     1      23.154  43.318  51.051  1.00  0.00    -0.247 OA
HETATM    6  N   UNL     1      25.058  44.247  50.123  1.00  0.00    -0.259 N 
HETATM    7  C   UNL     1      26.399  44.129  50.346  1.00  0.00     0.261 A 
HETATM    8  O   UNL     1      27.268  44.698  49.697  1.00  0.00    -0.270 OA
HETATM    9  H   UNL     1      24.931  42.187  52.530  1.00  0.00     0.165 HD
ENDROOT
BRANCH   6  10
HETATM   10  C   UNL     1      24.442  45.055  49.090  1.00  0.00     0.240 C 
BRANCH  10  11
HETATM   11  C   UNL     1      24.198  46.488  49.562  1.00  0.00     0.240 C 
HETATM   12  N   UNL     1      23.362  47.220  48.745  1.00  0.00    -0.324 N 
HETATM   13  H   UNL     1      22.833  46.734  48.018  1.00  0.00     0.169 HD
HETATM   14  O   UNL     1      24.620  46.860  50.656  1.00  0.00    -0.271 OA
BRANCH  12  15
HETATM   15  C   UNL     1      23.010  48.587  48.856  1.00  0.00     0.064 A 
HETATM   16  C   UNL     1      21.651  48.857  49.085  1.00  0.00     0.093 A 
HETATM   17  C   UNL     1      21.242  50.205  49.193  1.00  0.00    -0.005 A 
HETATM   18  N   UNL     1      20.772  47.834  49.199  1.00  0.00    -0.258 NA
HETATM   19  C   UNL     1      19.887  50.468  49.432  1.00  0.00     0.015 A 
HETATM   20  C   UNL     1      22.178  51.243  49.063  1.00  0.00     0.014 A 
HETATM   21  C   UNL     1      18.988  49.417  49.552  1.00  0.00     0.020 A 
HETATM   22  C   UNL     1      19.474  48.130  49.426  1.00  0.00     0.117 A 
HETATM   23  C   UNL     1      23.519  50.954  48.824  1.00  0.00     0.003 A 
HETATM   24  C   UNL     1      23.935  49.628  48.721  1.00  0.00     0.032 A 
ENDBRANCH  12  15
ENDBRANCH  10  11
ENDBRANCH   6  10
BRANCH   2  25
HETATM   25  C   UNL     1      27.350  43.840  52.693  1.00  0.00    -0.020 A 
HETATM   26  C   UNL     1      28.500  43.292  53.293  1.00  0.00     0.022 A 
HETATM   27  C   UNL     1      29.160  43.937  54.356  1.00  0.00    -0.025 A 
HETATM   28  C   UNL     1      28.661  45.163  54.842  1.00  0.00    -0.026 A 
HETATM   29  C   UNL     1      30.311  43.385  54.945  1.00  0.00     0.012 A 
HETATM   30  C   UNL     1      27.513  45.709  54.257  1.00  0.00     0.013 A 
HETATM   31  C   UNL     1      29.322  45.806  55.901  1.00  0.00     0.012 A 
HETATM   32  C   UNL     1      26.868  45.057  53.202  1.00  0.00     0.011 A 
HETATM   33  C   UNL     1      30.464  45.247  56.473  1.00  0.00     0.001 A 
HETATM   34  C   UNL     1      30.959  44.036  55.996  1.00  0.00     0.001 A 
ENDBRANCH   2  25
TORSDOF 4
ENDMDL
MODEL 2
REMARK VINA RESULT:     -11.0      1.770      3.467
REMARK  4 active torsions:
REMARK  status: ('A' for Active; 'I' for Inactive)
REMARK    1  A    between atoms: C_2  and  C_3 
REMARK    2  A    between atoms: N_16  and  C_17 
REMARK    3  A    between atoms: C_17  and  C_18 
REMARK       I    between atoms: C_18  and  N_19 
REMARK    4  A    between atoms: N_19  and  C_20 
ROOT
HETATM    1  C   UNL     1      26.328  46.590  53.095  1.00  0.00     0.054 C 
HETATM    2  C   UNL     1      26.877  45.215  52.705  1.00  0.00     0.140 A 
HETATM    3  N   UNL     1      27.269  45.238  51.311  1.00  0.00    -0.321 N 
HETATM    4  C   UNL     1      26.509  44.409  50.526  1.00  0.00     0.326 A 
HETATM    5  O   UNL     1      26.658  44.297  49.322  1.00  0.00    -0.247 OA
HETATM    6  N   UNL     1      25.595  43.783  51.310  1.00  0.00    -0.259 N 
HETATM    7  C   UNL     1      25.716  44.193  52.606  1.00  0.00     0.261 A 
HETATM    8  O   UNL     1      25.007  43.812  53.529  1.00  0.00    -0.270 OA
HETATM    9  H   UNL     1      27.994  45.818  50.912  1.00  0.00     0.165 HD
ENDROOT
BRANCH   6  10
HETATM   10  C   UNL     1      24.616  42.839  50.812  1.00  0.00     0.240 C 
BRANCH  10  11
HETATM   11  C   UNL     1      23.384  43.545  50.247  1.00  0.00     0.240 C 
HETATM   12  N   UNL     1      23.618  44.252  49.086  1.00  0.00    -0.324 N 
HETATM   13  H   UNL     1      24.503  44.116  48.595  1.00  0.00     0.169 HD
HETATM   14  O   UNL     1      22.276  43.351  50.744  1.00  0.00    -0.271 OA
BRANCH  12  15
HETATM   15  C   UNL     1      22.716  45.075  48.369  1.00  0.00     0.064 A 
HETATM   16  C   UNL     1      22.869  46.460  48.548  1.00  0.00     0.093 A 
HETATM   17  C   UNL     1      21.988  47.328  47.866  1.00  0.00    -0.005 A 
HETATM   18  N   UNL     1      23.846  46.929  49.359  1.00  0.00    -0.258 NA
HETATM   19  C   UNL     1      22.153  48.709  48.039  1.00  0.00     0.015 A 
HETATM   20  C   UNL     1      20.980  46.809  47.037  1.00  0.00     0.014 A 
HETATM   21  C   UNL     1      23.158  49.188  48.869  1.00  0.00     0.020 A 
HETATM   22  C   UNL     1      23.969  48.266  49.503  1.00  0.00     0.117 A 
HETATM   23  C   UNL     1      20.838  45.433  46.883  1.00  0.00     0.003 A 
HETATM   24  C   UNL     1      21.704  44.567  47.547  1.00  0.00     0.032 A 
ENDBRANCH  12  15
ENDBRANCH  10  11
ENDBRANCH   6  10
BRANCH   2  25
HETATM   25  C   UNL     1      27.983  44.732  53.638  1.00  0.00    -0.020 A 
HETATM   26  C   UNL     1      28.335  45.423  54.813  1.00  0.00     0.022 A 
HETATM   27  C   UNL     1      29.352  44.959  55.670  1.00  0.00    -0.025 A 
HETATM   28  C   UNL     1      30.045  43.773  55.346  1.00  0.00    -0.026 A 
HETATM   29  C   UNL     1      29.692  45.652  56.844  1.00  0.00     0.012 A 
HETATM   30  C   UNL     1      29.708  43.087  54.175  1.00  0.00     0.013 A 
HETATM   31  C   UNL     1      31.057  43.311  56.203  1.00  0.00     0.012 A 
HETATM   32  C   UNL     1      28.696  43.560  53.334  1.00  0.00     0.011 A 
HETATM   33  C   UNL     1      31.380  44.009  57.366  1.00  0.00     0.001 A 
HETATM   34  C   UNL     1      30.699  45.179  57.687  1.00  0.00     0.001 A 
ENDBRANCH   2  25
TORSDOF 4
ENDMDL
MODEL 3
REMARK VINA RESULT:     -10.6      1.674      8.598
REMARK  4 active torsions:
REMARK  status: ('A' for Active; 'I' for Inactive)
REMARK    1  A    between atoms: C_2  and  C_3 
REMARK    2  A    between atoms: N_16  and  C_17 
REMARK    3  A    between atoms: C_17  and  C_18 
REMARK       I    between atoms: C_18  and  N_19 
REMARK    4  A    between atoms: N_19  and  C_20 
ROOT
HETATM    1  C   UNL     1      22.892  43.615  47.509  1.00  0.00     0.054 C 
HETATM    2  C   UNL     1      23.466  44.535  48.590  1.00  0.00     0.140 A 
HETATM    3  N   UNL     1      24.896  44.659  48.399  1.00  0.00    -0.321 N 
HETATM    4  C   UNL     1      25.624  44.116  49.427  1.00  0.00     0.326 A 
HETATM    5  O   UNL     1      26.842  44.093  49.453  1.00  0.00    -0.247 OA
HETATM    6  N   UNL     1      24.766  43.620  50.354  1.00  0.00    -0.259 N 
HETATM    7  C   UNL     1      23.473  43.803  49.955  1.00  0.00     0.261 A 
HETATM    8  O   UNL     1      22.489  43.433  50.583  1.00  0.00    -0.270 OA
HETATM    9  H   UNL     1      25.350  45.060  47.590  1.00  0.00     0.165 HD
ENDROOT
BRANCH   6  10
HETATM   10  C   UNL     1      25.187  42.962  51.574  1.00  0.00     0.240 C 
BRANCH  10  11
HETATM   11  C   UNL     1      25.478  43.966  52.688  1.00  0.00     0.240 C 
HETATM   12  N   UNL     1      26.792  44.382  52.748  1.00  0.00    -0.324 N 
HETATM   13  H   UNL     1      27.417  44.156  51.973  1.00  0.00     0.169 HD
HETATM   14  O   UNL     1      24.557  44.438  53.354  1.00  0.00    -0.271 OA
BRANCH  12  15
HETATM   15  C   UNL     1      27.395  45.232  53.708  1.00  0.00     0.064 A 
HETATM   16  C   UNL     1      28.508  44.706  54.384  1.00  0.00     0.093 A 
HETATM   17  C   UNL     1      29.142  45.505  55.360  1.00  0.00    -0.005 A 
HETATM   18  N   UNL     1      28.947  43.459  54.088  1.00  0.00    -0.258 NA
HETATM   19  C   UNL     1      30.259  44.980  56.023  1.00  0.00     0.015 A 
HETATM   20  C   UNL     1      28.657  46.792  55.648  1.00  0.00     0.014 A 
HETATM   21  C   UNL     1      30.709  43.703  55.716  1.00  0.00     0.020 A 
HETATM   22  C   UNL     1      30.024  42.988  54.753  1.00  0.00     0.117 A 
HETATM   23  C   UNL     1      27.545  47.289  54.975  1.00  0.00     0.003 A 
HETATM   24  C   UNL     1      26.915  46.511  54.006  1.00  0.00     0.032 A 
ENDBRANCH  12  15
ENDBRANCH  10  11
ENDBRANCH   6  10
BRANCH   2  25
HETATM   25  C   UNL     1      22.747  45.878  48.667  1.00  0.00    -0.020 A 
HETATM   26  C   UNL     1      23.427  47.086  48.911  1.00  0.00     0.022 A 
HETATM   27  C   UNL     1      22.751  48.320  48.969  1.00  0.00    -0.025 A 
HETATM   28  C   UNL     1      21.352  48.355  48.782  1.00  0.00    -0.026 A 
HETATM   29  C   UNL     1      23.439  49.522  49.207  1.00  0.00     0.012 A 
HETATM   30  C   UNL     1      20.668  47.157  48.548  1.00  0.00     0.013 A 
HETATM   31  C   UNL     1      20.680  49.586  48.836  1.00  0.00     0.012 A 
HETATM   32  C   UNL     1      21.354  45.940  48.494  1.00  0.00     0.011 A 
HETATM   33  C   UNL     1      21.378  50.770  49.072  1.00  0.00     0.001 A 
HETATM   34  C   UNL     1      22.757  50.738  49.257  1.00  0.00     0.001 A 
ENDBRANCH   2  25
TORSDOF 4
ENDMDL
MODEL 4
REMARK VINA RESULT:     -10.5      1.628      3.046
REMARK  4 active torsions:
REMARK  status: ('A' for Active; 'I' for Inactive)
REMARK    1  A    between atoms: C_2  and  C_3 
REMARK    2  A    between atoms: N_16  and  C_17 
REMARK    3  A    between atoms: C_17  and  C_18 
REMARK       I    between atoms: C_18  and  N_19 
REMARK    4  A    between atoms: N_19  and  C_20 
ROOT
HETATM    1  C   UNL     1      25.145  44.367  54.345  1.00  0.00     0.054 C 
HETATM    2  C   UNL     1      26.397  44.840  53.602  1.00  0.00     0.140 A 
HETATM    3  N   UNL     1      26.281  46.258  53.331  1.00  0.00    -0.321 N 
HETATM    4  C   UNL     1      26.200  46.544  51.992  1.00  0.00     0.326 A 
HETATM    5  O   UNL     1      26.075  47.672  51.549  1.00  0.00    -0.247 OA
HETATM    6  N   UNL     1      26.267  45.382  51.293  1.00  0.00    -0.259 N 
HETATM    7  C   UNL     1      26.371  44.319  52.143  1.00  0.00     0.261 A 
HETATM    8  O   UNL     1      26.425  43.147  51.793  1.00  0.00    -0.270 OA
HETATM    9  H   UNL     1      26.223  46.989  54.027  1.00  0.00     0.165 HD
ENDROOT
BRANCH   6  10
HETATM   10  C   UNL     1      26.201  45.304  49.849  1.00  0.00     0.240 C 
BRANCH  10  11
HETATM   11  C   UNL     1      24.760  45.357  49.343  1.00  0.00     0.240 C 
HETATM   12  N   UNL     1      24.271  46.633  49.155  1.00  0.00    -0.324 N 
HETATM   13  H   UNL     1      24.922  47.419  49.180  1.00  0.00     0.169 HD
HETATM   14  O   UNL     1      24.180  44.323  49.013  1.00  0.00    -0.271 OA
BRANCH  12  15
HETATM   15  C   UNL     1      22.961  47.019  48.781  1.00  0.00     0.064 A 
HETATM   16  C   UNL     1      22.699  48.399  48.786  1.00  0.00     0.093 A 
HETATM   17  C   UNL     1      21.405  48.840  48.434  1.00  0.00    -0.005 A 
HETATM   18  N   UNL     1      23.682  49.268  49.122  1.00  0.00    -0.258 NA
HETATM   19  C   UNL     1      21.153  50.218  48.429  1.00  0.00     0.015 A 
HETATM   20  C   UNL     1      20.406  47.912  48.097  1.00  0.00     0.014 A 
HETATM   21  C   UNL     1      22.163  51.108  48.771  1.00  0.00     0.020 A 
HETATM   22  C   UNL     1      23.398  50.588  49.109  1.00  0.00     0.117 A 
HETATM   23  C   UNL     1      20.683  46.548  48.110  1.00  0.00     0.003 A 
HETATM   24  C   UNL     1      21.958  46.101  48.452  1.00  0.00     0.032 A 
ENDBRANCH  12  15
ENDBRANCH  10  11
ENDBRANCH   6  10
BRANCH   2  25
HETATM   25  C   UNL     1      27.689  44.464  54.320  1.00  0.00    -0.020 A 
HETATM   26  C   UNL     1      28.199  45.212  55.397  1.00  0.00     0.022 A 
HETATM   27  C   UNL     1      29.388  44.846  56.057  1.00  0.00    -0.025 A 
HETATM   28  C   UNL     1      30.096  43.702  55.630  1.00  0.00    -0.026 A 
HETATM   29  C   UNL     1      29.887  45.595  57.137  1.00  0.00     0.012 A 
HETATM   30  C   UNL     1      29.600  42.959  54.553  1.00  0.00     0.013 A 
HETATM   31  C   UNL     1      31.280  43.337  56.290  1.00  0.00     0.012 A 
HETATM   32  C   UNL     1      28.418  43.336  53.908  1.00  0.00     0.011 A 
HETATM   33  C   UNL     1      31.760  44.090  57.362  1.00  0.00     0.001 A 
HETATM   34  C   UNL     1      31.065  45.220  57.785  1.00  0.00     0.001 A 
ENDBRANCH   2  25
TORSDOF 4
ENDMDL
MODEL 5
REMARK VINA RESULT:     -10.5      3.682      5.102
REMARK  4 active torsions:
REMARK  status: ('A' for Active; 'I' for Inactive)
REMARK    1  A    between atoms: C_2  and  C_3 
REMARK    2  A    between atoms: N_16  and  C_17 
REMARK    3  A    between atoms: C_17  and  C_18 
REMARK       I    between atoms: C_18  and  N_19 
REMARK    4  A    between atoms: N_19  and  C_20 
ROOT
HETATM    1  C   UNL     1      25.567  46.935  52.583  1.00  0.00     0.054 C 
HETATM    2  C   UNL     1      26.375  45.636  52.542  1.00  0.00     0.140 A 
HETATM    3  N   UNL     1      26.952  45.476  51.223  1.00  0.00    -0.321 N 
HETATM    4  C   UNL     1      26.451  44.395  50.545  1.00  0.00     0.326 A 
HETATM    5  O   UNL     1      26.784  44.095  49.412  1.00  0.00    -0.247 OA
HETATM    6  N   UNL     1      25.545  43.765  51.336  1.00  0.00    -0.259 N 
HETATM    7  C   UNL     1      25.415  44.419  52.528  1.00  0.00     0.261 A 
HETATM    8  O   UNL     1      24.652  44.090  53.426  1.00  0.00    -0.270 OA
HETATM    9  H   UNL     1      27.625  46.096  50.795  1.00  0.00     0.165 HD
ENDROOT
BRANCH   6  10
HETATM   10  C   UNL     1      24.807  42.585  50.938  1.00  0.00     0.240 C 
BRANCH  10  11
HETATM   11  C   UNL     1      23.631  42.932  50.026  1.00  0.00     0.240 C 
HETATM   12  N   UNL     1      23.876  42.737  48.683  1.00  0.00    -0.324 N 
HETATM   13  H   UNL     1      24.713  42.222  48.405  1.00  0.00     0.169 HD
HETATM   14  O   UNL     1      22.537  43.220  50.509  1.00  0.00    -0.271 OA
BRANCH  12  15
HETATM   15  C   UNL     1      23.032  43.043  47.588  1.00  0.00     0.064 A 
HETATM   16  C   UNL     1      22.230  41.991  47.116  1.00  0.00     0.093 A 
HETATM   17  C   UNL     1      21.377  42.236  46.017  1.00  0.00    -0.005 A 
HETATM   18  N   UNL     1      22.288  40.778  47.716  1.00  0.00    -0.258 NA
HETATM   19  C   UNL     1      20.571  41.186  45.557  1.00  0.00     0.015 A 
HETATM   20  C   UNL     1      21.346  43.503  45.412  1.00  0.00     0.014 A 
HETATM   21  C   UNL     1      20.630  39.945  46.176  1.00  0.00     0.020 A 
HETATM   22  C   UNL     1      21.499  39.792  47.240  1.00  0.00     0.117 A 
HETATM   23  C   UNL     1      22.157  44.528  45.889  1.00  0.00     0.003 A 
HETATM   24  C   UNL     1      22.999  44.299  46.975  1.00  0.00     0.032 A 
ENDBRANCH  12  15
ENDBRANCH  10  11
ENDBRANCH   6  10
BRANCH   2  25
HETATM   25  C   UNL     1      27.401  45.540  53.667  1.00  0.00    -0.020 A 
HETATM   26  C   UNL     1      28.271  44.443  53.804  1.00  0.00     0.022 A 
HETATM   27  C   UNL     1      29.220  44.374  54.842  1.00  0.00    -0.025 A 
HETATM   28  C   UNL     1      29.304  45.427  55.777  1.00  0.00    -0.026 A 
HETATM   29  C   UNL     1      30.090  43.277  54.968  1.00  0.00     0.012 A 
HETATM   30  C   UNL     1      28.436  46.517  55.653  1.00  0.00     0.013 A 
HETATM   31  C   UNL     1      30.253  45.359  56.810  1.00  0.00     0.012 A 
HETATM   32  C   UNL     1      27.498  46.571  54.617  1.00  0.00     0.011 A 
HETATM   33  C   UNL     1      31.110  44.264  56.919  1.00  0.00     0.001 A 
HETATM   34  C   UNL     1      31.029  43.223  55.999  1.00  0.00     0.001 A 
ENDBRANCH   2  25
TORSDOF 4
ENDMDL
MODEL 6
REMARK VINA RESULT:     -10.4      1.598      2.748
REMARK  4 active torsions:
REMARK  status: ('A' for Active; 'I' for Inactive)
REMARK    1  A    between atoms: C_2  and  C_3 
REMARK    2  A    between atoms: N_16  and  C_17 
REMARK    3  A    between atoms: C_17  and  C_18 
REMARK       I    between atoms: C_18  and  N_19 
REMARK    4  A    between atoms: N_19  and  C_20 
ROOT
HETATM    1  C   UNL     1      27.125  41.894  50.181  1.00  0.00     0.054 C 
HETATM    2  C   UNL     1      26.850  43.069  51.124  1.00  0.00     0.140 A 
HETATM    3  N   UNL     1      25.488  42.982  51.606  1.00  0.00    -0.321 N 
HETATM    4  C   UNL     1      24.699  44.019  51.177  1.00  0.00     0.326 A 
HETATM    5  O   UNL     1      23.516  44.125  51.449  1.00  0.00    -0.247 OA
HETATM    6  N   UNL     1      25.452  44.853  50.415  1.00  0.00    -0.259 N 
HETATM    7  C   UNL     1      26.729  44.381  50.309  1.00  0.00     0.261 A 
HETATM    8  O   UNL     1      27.620  44.916  49.662  1.00  0.00    -0.270 OA
HETATM    9  H   UNL     1      25.108  42.234  52.169  1.00  0.00     0.165 HD
ENDROOT
BRANCH   6  10
HETATM   10  C   UNL     1      24.941  46.052  49.784  1.00  0.00     0.240 C 
BRANCH  10  11
HETATM   11  C   UNL     1      23.711  45.761  48.925  1.00  0.00     0.240 C 
HETATM   12  N   UNL     1      22.620  46.556  49.207  1.00  0.00    -0.324 N 
HETATM   13  H   UNL     1      22.747  47.373  49.807  1.00  0.00     0.169 HD
HETATM   14  O   UNL     1      23.787  44.975  47.982  1.00  0.00    -0.271 OA
BRANCH  12  15
HETATM   15  C   UNL     1      21.319  46.480  48.654  1.00  0.00     0.064 A 
HETATM   16  C   UNL     1      20.784  47.684  48.167  1.00  0.00     0.093 A 
HETATM   17  C   UNL     1      19.484  47.668  47.616  1.00  0.00    -0.005 A 
HETATM   18  N   UNL     1      21.517  48.821  48.233  1.00  0.00    -0.258 NA
HETATM   19  C   UNL     1      18.960  48.870  47.121  1.00  0.00     0.015 A 
HETATM   20  C   UNL     1      18.747  46.474  47.569  1.00  0.00     0.014 A 
HETATM   21  C   UNL     1      19.715  50.034  47.187  1.00  0.00     0.020 A 
HETATM   22  C   UNL     1      20.974  49.959  47.750  1.00  0.00     0.117 A 
HETATM   23  C   UNL     1      19.291  45.294  48.068  1.00  0.00     0.003 A 
HETATM   24  C   UNL     1      20.575  45.296  48.610  1.00  0.00     0.032 A 
ENDBRANCH  12  15
ENDBRANCH  10  11
ENDBRANCH   6  10
BRANCH   2  25
HETATM   25  C   UNL     1      27.882  43.185  52.241  1.00  0.00    -0.020 A 
HETATM   26  C   UNL     1      27.842  44.212  53.203  1.00  0.00     0.022 A 
HETATM   27  C   UNL     1      28.796  44.299  54.235  1.00  0.00    -0.025 A 
HETATM   28  C   UNL     1      29.826  43.338  54.312  1.00  0.00    -0.026 A 
HETATM   29  C   UNL     1      28.744  45.324  55.195  1.00  0.00     0.012 A 
HETATM   30  C   UNL     1      29.879  42.320  53.353  1.00  0.00     0.013 A 
HETATM   31  C   UNL     1      30.775  43.425  55.343  1.00  0.00     0.012 A 
HETATM   32  C   UNL     1      28.924  42.247  52.334  1.00  0.00     0.011 A 
HETATM   33  C   UNL     1      30.708  44.447  56.290  1.00  0.00     0.001 A 
HETATM   34  C   UNL     1      29.693  45.397  56.216  1.00  0.00     0.001 A 
ENDBRANCH   2  25
TORSDOF 4
ENDMDL
MODEL 7
REMARK VINA RESULT:     -10.3      3.029      4.549
REMARK  4 active torsions:
REMARK  status: ('A' for Active; 'I' for Inactive)
REMARK    1  A    between atoms: C_2  and  C_3 
REMARK    2  A    between atoms: N_16  and  C_17 
REMARK    3  A    between atoms: C_17  and  C_18 
REMARK       I    between atoms: C_18  and  N_19 
REMARK    4  A    between atoms: N_19  and  C_20 
ROOT
HETATM    1  C   UNL     1      26.338  46.505  53.041  1.00  0.00     0.054 C 
HETATM    2  C   UNL     1      26.901  45.128  52.679  1.00  0.00     0.140 A 
HETATM    3  N   UNL     1      27.294  45.127  51.285  1.00  0.00    -0.321 N 
HETATM    4  C   UNL     1      26.543  44.274  50.517  1.00  0.00     0.326 A 
HETATM    5  O   UNL     1      26.694  44.139  49.315  1.00  0.00    -0.247 OA
HETATM    6  N   UNL     1      25.635  43.655  51.313  1.00  0.00    -0.259 N 
HETATM    7  C   UNL     1      25.751  44.093  52.601  1.00  0.00     0.261 A 
HETATM    8  O   UNL     1      25.045  43.724  53.530  1.00  0.00    -0.270 OA
HETATM    9  H   UNL     1      28.013  45.706  50.874  1.00  0.00     0.165 HD
ENDROOT
BRANCH   6  10
HETATM   10  C   UNL     1      24.666  42.691  50.834  1.00  0.00     0.240 C 
BRANCH  10  11
HETATM   11  C   UNL     1      23.480  43.371  50.151  1.00  0.00     0.240 C 
HETATM   12  N   UNL     1      23.577  43.436  48.777  1.00  0.00    -0.324 N 
HETATM   13  H   UNL     1      24.301  42.890  48.307  1.00  0.00     0.169 HD
HETATM   14  O   UNL     1      22.486  43.687  50.804  1.00  0.00    -0.271 OA
BRANCH  12  15
HETATM   15  C   UNL     1      22.696  44.072  47.869  1.00  0.00     0.064 A 
HETATM   16  C   UNL     1      21.918  43.221  47.066  1.00  0.00     0.093 A 
HETATM   17  C   UNL     1      21.031  43.802  46.133  1.00  0.00    -0.005 A 
HETATM   18  N   UNL     1      22.032  41.879  47.201  1.00  0.00    -0.258 NA
HETATM   19  C   UNL     1      20.249  42.949  45.343  1.00  0.00     0.015 A 
HETATM   20  C   UNL     1      20.942  45.198  46.013  1.00  0.00     0.014 A 
HETATM   21  C   UNL     1      20.365  41.573  45.486  1.00  0.00     0.020 A 
HETATM   22  C   UNL     1      21.264  41.091  46.418  1.00  0.00     0.117 A 
HETATM   23  C   UNL     1      21.730  46.023  46.809  1.00  0.00     0.003 A 
HETATM   24  C   UNL     1      22.606  45.462  47.736  1.00  0.00     0.032 A 
ENDBRANCH  12  15
ENDBRANCH  10  11
ENDBRANCH   6  10
BRANCH   2  25
HETATM   25  C   UNL     1      28.012  44.676  53.622  1.00  0.00    -0.020 A 
HETATM   26  C   UNL     1      28.323  45.367  54.808  1.00  0.00     0.022 A 
HETATM   27  C   UNL     1      29.345  44.931  55.674  1.00  0.00    -0.025 A 
HETATM   28  C   UNL     1      30.085  43.775  55.349  1.00  0.00    -0.026 A 
HETATM   29  C   UNL     1      29.644  45.623  56.860  1.00  0.00     0.012 A 
HETATM   30  C   UNL     1      29.788  43.088  54.166  1.00  0.00     0.013 A 
HETATM   31  C   UNL     1      31.101  43.340  56.214  1.00  0.00     0.012 A 
HETATM   32  C   UNL     1      28.770  43.534  53.316  1.00  0.00     0.011 A 
HETATM   33  C   UNL     1      31.384  44.037  57.389  1.00  0.00     0.001 A 
HETATM   34  C   UNL     1      30.656  45.179  57.712  1.00  0.00     0.001 A 
ENDBRANCH   2  25
TORSDOF 4
ENDMDL
MODEL 8
REMARK VINA RESULT:     -10.3      3.827      7.657
REMARK  4 active torsions:
REMARK  status: ('A' for Active; 'I' for Inactive)
REMARK    1  A    between atoms: C_2  and  C_3 
REMARK    2  A    between atoms: N_16  and  C_17 
REMARK    3  A    between atoms: C_17  and  C_18 
REMARK       I    between atoms: C_18  and  N_19 
REMARK    4  A    between atoms: N_19  and  C_20 
ROOT
HETATM    1  C   UNL     1      25.391  46.731  52.399  1.00  0.00     0.054 C 
HETATM    2  C   UNL     1      26.311  45.509  52.354  1.00  0.00     0.140 A 
HETATM    3  N   UNL     1      26.930  45.427  51.047  1.00  0.00    -0.321 N 
HETATM    4  C   UNL     1      26.542  44.319  50.338  1.00  0.00     0.326 A 
HETATM    5  O   UNL     1      26.925  44.071  49.209  1.00  0.00    -0.247 OA
HETATM    6  N   UNL     1      25.677  43.597  51.096  1.00  0.00    -0.259 N 
HETATM    7  C   UNL     1      25.463  44.213  52.295  1.00  0.00     0.261 A 
HETATM    8  O   UNL     1      24.711  43.800  53.169  1.00  0.00    -0.270 OA
HETATM    9  H   UNL     1      27.555  46.112  50.647  1.00  0.00     0.165 HD
ENDROOT
BRANCH   6  10
HETATM   10  C   UNL     1      25.055  42.364  50.659  1.00  0.00     0.240 C 
BRANCH  10  11
HETATM   11  C   UNL     1      26.067  41.222  50.562  1.00  0.00     0.240 C 
HETATM   12  N   UNL     1      26.478  40.936  49.277  1.00  0.00    -0.324 N 
HETATM   13  H   UNL     1      26.243  41.588  48.527  1.00  0.00     0.169 HD
HETATM   14  O   UNL     1      26.547  40.731  51.582  1.00  0.00    -0.271 OA
BRANCH  12  15
HETATM   15  C   UNL     1      27.331  39.891  48.846  1.00  0.00     0.064 A 
HETATM   16  C   UNL     1      26.785  38.993  47.915  1.00  0.00     0.093 A 
HETATM   17  C   UNL     1      27.589  37.924  47.460  1.00  0.00    -0.005 A 
HETATM   18  N   UNL     1      25.516  39.167  47.476  1.00  0.00    -0.258 NA
HETATM   19  C   UNL     1      27.043  37.037  46.523  1.00  0.00     0.015 A 
HETATM   20  C   UNL     1      28.899  37.767  47.940  1.00  0.00     0.014 A 
HETATM   21  C   UNL     1      25.742  37.220  46.072  1.00  0.00     0.020 A 
HETATM   22  C   UNL     1      25.025  38.288  46.576  1.00  0.00     0.117 A 
HETATM   23  C   UNL     1      29.417  38.662  48.872  1.00  0.00     0.003 A 
HETATM   24  C   UNL     1      28.635  39.723  49.324  1.00  0.00     0.032 A 
ENDBRANCH  12  15
ENDBRANCH  10  11
ENDBRANCH   6  10
BRANCH   2  25
HETATM   25  C   UNL     1      27.316  45.482  53.502  1.00  0.00    -0.020 A 
HETATM   26  C   UNL     1      28.237  44.431  53.674  1.00  0.00     0.022 A 
HETATM   27  C   UNL     1      29.166  44.426  54.733  1.00  0.00    -0.025 A 
HETATM   28  C   UNL     1      29.176  45.496  55.653  1.00  0.00    -0.026 A 
HETATM   29  C   UNL     1      30.086  43.376  54.894  1.00  0.00     0.012 A 
HETATM   30  C   UNL     1      28.256  46.538  55.494  1.00  0.00     0.013 A 
HETATM   31  C   UNL     1      30.104  45.490  56.707  1.00  0.00     0.012 A 
HETATM   32  C   UNL     1      27.341  46.529  54.437  1.00  0.00     0.011 A 
HETATM   33  C   UNL     1      31.013  44.442  56.851  1.00  0.00     0.001 A 
HETATM   34  C   UNL     1      31.004  43.385  55.945  1.00  0.00     0.001 A 
ENDBRANCH   2  25
TORSDOF 4
ENDMDL
MODEL 9
REMARK VINA RESULT:     -10.2      2.186      7.757
REMARK  4 active torsions:
REMARK  status: ('A' for Active; 'I' for Inactive)
REMARK    1  A    between atoms: C_2  and  C_3 
REMARK    2  A    between atoms: N_16  and  C_17 
REMARK    3  A    between atoms: C_17  and  C_18 
REMARK       I    between atoms: C_18  and  N_19 
REMARK    4  A    between atoms: N_19  and  C_20 
ROOT
HETATM    1  C   UNL     1      22.998  42.790  48.981  1.00  0.00     0.054 C 
HETATM    2  C   UNL     1      24.304  43.500  49.350  1.00  0.00     0.140 A 
HETATM    3  N   UNL     1      25.361  43.030  48.479  1.00  0.00    -0.321 N 
HETATM    4  C   UNL     1      26.338  42.336  49.146  1.00  0.00     0.326 A 
HETATM    5  O   UNL     1      27.305  41.836  48.599  1.00  0.00    -0.247 OA
HETATM    6  N   UNL     1      26.025  42.303  50.466  1.00  0.00    -0.259 N 
HETATM    7  C   UNL     1      24.842  42.947  50.693  1.00  0.00     0.261 A 
HETATM    8  O   UNL     1      24.303  43.053  51.787  1.00  0.00    -0.270 OA
HETATM    9  H   UNL     1      25.394  43.147  47.475  1.00  0.00     0.165 HD
ENDROOT
BRANCH   6  10
HETATM   10  C   UNL     1      26.831  41.642  51.472  1.00  0.00     0.240 C 
BRANCH  10  11
HETATM   11  C   UNL     1      27.832  42.601  52.115  1.00  0.00     0.240 C 
HETATM   12  N   UNL     1      27.456  43.066  53.357  1.00  0.00    -0.324 N 
HETATM   13  H   UNL     1      26.667  42.623  53.832  1.00  0.00     0.169 HD
HETATM   14  O   UNL     1      28.929  42.794  51.592  1.00  0.00    -0.271 OA
BRANCH  12  15
HETATM   15  C   UNL     1      28.115  44.022  54.168  1.00  0.00     0.064 A 
HETATM   16  C   UNL     1      27.499  45.281  54.261  1.00  0.00     0.093 A 
HETATM   17  C   UNL     1      28.119  46.277  55.047  1.00  0.00    -0.005 A 
HETATM   18  N   UNL     1      26.336  45.511  53.606  1.00  0.00    -0.258 NA
HETATM   19  C   UNL     1      27.494  47.527  55.145  1.00  0.00     0.015 A 
HETATM   20  C   UNL     1      29.328  46.008  55.708  1.00  0.00     0.014 A 
HETATM   21  C   UNL     1      26.301  47.760  54.475  1.00  0.00     0.020 A 
HETATM   22  C   UNL     1      25.768  46.731  53.723  1.00  0.00     0.117 A 
HETATM   23  C   UNL     1      29.928  44.758  55.593  1.00  0.00     0.003 A 
HETATM   24  C   UNL     1      29.323  43.766  54.824  1.00  0.00     0.032 A 
ENDBRANCH  12  15
ENDBRANCH  10  11
ENDBRANCH   6  10
BRANCH   2  25
HETATM   25  C   UNL     1      24.166  45.019  49.372  1.00  0.00    -0.020 A 
HETATM   26  C   UNL     1      23.074  45.687  48.787  1.00  0.00     0.022 A 
HETATM   27  C   UNL     1      22.955  47.089  48.825  1.00  0.00    -0.025 A 
HETATM   28  C   UNL     1      23.957  47.854  49.460  1.00  0.00    -0.026 A 
HETATM   29  C   UNL     1      21.858  47.747  48.244  1.00  0.00     0.012 A 
HETATM   30  C   UNL     1      25.051  47.197  50.035  1.00  0.00     0.013 A 
HETATM   31  C   UNL     1      23.837  49.252  49.499  1.00  0.00     0.012 A 
HETATM   32  C   UNL     1      25.154  45.804  49.989  1.00  0.00     0.011 A 
HETATM   33  C   UNL     1      22.740  49.890  48.920  1.00  0.00     0.001 A 
HETATM   34  C   UNL     1      21.751  49.138  48.292  1.00  0.00     0.001 A 
ENDBRANCH   2  25
TORSDOF 4
ENDMDL
MODEL 10
REMARK VINA RESULT:     -10.1      3.657      7.122
REMARK  4 active torsions:
REMARK  status: ('A' for Active; 'I' for Inactive)
REMARK    1  A    between atoms: C_2  and  C_3 
REMARK    2  A    between atoms: N_16  and  C_17 
REMARK    3  A    between atoms: C_17  and  C_18 
REMARK       I    between atoms: C_18  and  N_19 
REMARK    4  A    between atoms: N_19  and  C_20 
ROOT
HETATM    1  C   UNL     1      25.313  47.649  53.443  1.00  0.00     0.054 C 
HETATM    2  C   UNL     1      26.201  46.547  52.859  1.00  0.00     0.140 A 
HETATM    3  N   UNL     1      26.707  46.976  51.572  1.00  0.00    -0.321 N 
HETATM    4  C   UNL     1      26.238  46.216  50.531  1.00  0.00     0.326 A 
HETATM    5  O   UNL     1      26.521  46.422  49.364  1.00  0.00    -0.247 OA
HETATM    6  N   UNL     1      25.425  45.249  51.028  1.00  0.00    -0.259 N 
HETATM    7  C   UNL     1      25.325  45.361  52.385  1.00  0.00     0.261 A 
HETATM    8  O   UNL     1      24.640  44.637  53.096  1.00  0.00    -0.270 OA
HETATM    9  H   UNL     1      27.311  47.770  51.410  1.00  0.00     0.165 HD
ENDROOT
BRANCH   6  10
HETATM   10  C   UNL     1      24.744  44.268  50.209  1.00  0.00     0.240 C 
BRANCH  10  11
HETATM   11  C   UNL     1      25.304  42.862  50.425  1.00  0.00     0.240 C 
HETATM   12  N   UNL     1      26.681  42.801  50.469  1.00  0.00    -0.324 N 
HETATM   13  H   UNL     1      27.212  43.670  50.541  1.00  0.00     0.169 HD
HETATM   14  O   UNL     1      24.547  41.925  50.675  1.00  0.00    -0.271 OA
BRANCH  12  15
HETATM   15  C   UNL     1      27.501  41.650  50.568  1.00  0.00     0.064 A 
HETATM   16  C   UNL     1      27.690  40.923  49.382  1.00  0.00     0.093 A 
HETATM   17  C   UNL     1      28.488  39.759  49.426  1.00  0.00    -0.005 A 
HETATM   18  N   UNL     1      27.112  41.348  48.233  1.00  0.00    -0.258 NA
HETATM   19  C   UNL     1      28.683  39.044  48.236  1.00  0.00     0.015 A 
HETATM   20  C   UNL     1      29.068  39.342  50.634  1.00  0.00     0.014 A 
HETATM   21  C   UNL     1      28.092  39.484  47.059  1.00  0.00     0.020 A 
HETATM   22  C   UNL     1      27.320  40.629  47.110  1.00  0.00     0.117 A 
HETATM   23  C   UNL     1      28.858  40.070  51.802  1.00  0.00     0.003 A 
HETATM   24  C   UNL     1      28.076  41.223  51.770  1.00  0.00     0.032 A 
ENDBRANCH  12  15
ENDBRANCH  10  11
ENDBRANCH   6  10
BRANCH   2  25
HETATM   25  C   UNL     1      27.297  46.098  53.821  1.00  0.00    -0.020 A 
HETATM   26  C   UNL     1      28.003  44.892  53.651  1.00  0.00     0.022 A 
HETATM   27  C   UNL     1      29.020  44.496  54.541  1.00  0.00    -0.025 A 
HETATM   28  C   UNL     1      29.342  45.322  55.639  1.00  0.00    -0.026 A 
HETATM   29  C   UNL     1      29.725  43.294  54.359  1.00  0.00     0.012 A 
HETATM   30  C   UNL     1      28.637  46.517  55.820  1.00  0.00     0.013 A 
HETATM   31  C   UNL     1      30.357  44.927  56.524  1.00  0.00     0.012 A 
HETATM   32  C   UNL     1      27.630  46.896  54.927  1.00  0.00     0.011 A 
HETATM   33  C   UNL     1      31.049  43.732  56.329  1.00  0.00     0.001 A 
HETATM   34  C   UNL     1      30.733  42.915  55.247  1.00  0.00     0.001 A 
ENDBRANCH   2  25
TORSDOF 4
ENDMDL
