MODEL 1
REMARK VINA RESULT:      -8.7      0.000      0.000
REMARK  5 active torsions:
REMARK  status: ('A' for Active; 'I' for Inactive)
REMARK    1  A    between atoms: C_2  and  N_3 
REMARK    2  A    between atoms: C_6  and  N_7 
REMARK       I    between atoms: N_7  and  C_8 
REMARK       I    between atoms: C_8  and  N_9 
REMARK    3  A    between atoms: N_9  and  C_10 
REMARK    4  A    between atoms: C_10  and  C_11 
REMARK    5  A    between atoms: C_12  and  C_13 
ROOT
HETATM    1  N   UNL     1      24.919  45.376  51.346  1.00  0.00    -0.306 N 
HETATM    2  C   UNL     1      25.237  45.019  52.616  1.00  0.00     0.321 C 
HETATM    3  N   UNL     1      26.301  45.622  53.214  1.00  0.00    -0.339 N 
HETATM    4  O   UNL     1      24.562  44.152  53.169  1.00  0.00    -0.247 OA
HETATM    5  H   UNL     1      24.169  44.807  50.972  1.00  0.00     0.171 HD
HETATM    6  H   UNL     1      27.049  45.869  52.583  1.00  0.00     0.164 HD
ENDROOT
BRANCH   3   7
HETATM    7  C   UNL     1      26.724  45.181  54.530  1.00  0.00     0.163 C 
BRANCH   7   8
HETATM    8  C   UNL     1      27.918  44.244  54.529  1.00  0.00    -0.022 A 
HETATM    9  C   UNL     1      29.152  44.659  55.102  1.00  0.00     0.056 A 
HETATM   10  C   UNL     1      30.272  43.805  55.037  1.00  0.00     0.020 A 
HETATM   11  C   UNL     1      30.185  42.560  54.418  1.00  0.00     0.043 A 
HETATM   12  C   UNL     1      28.982  42.164  53.855  1.00  0.00     0.117 A 
HETATM   13  F   UNL     1      28.901  40.973  53.248  1.00  0.00    -0.206 F 
HETATM   14  C   UNL     1      27.861  42.987  53.899  1.00  0.00     0.052 A 
BRANCH   9  15
HETATM   15  C   UNL     1      29.307  46.022  55.753  1.00  0.00     0.418 C 
HETATM   16  F   UNL     1      30.577  46.255  56.185  1.00  0.00    -0.166 F 
HETATM   17  F   UNL     1      29.005  47.060  54.924  1.00  0.00    -0.166 F 
HETATM   18  F   UNL     1      28.504  46.170  56.842  1.00  0.00    -0.166 F 
ENDBRANCH   9  15
ENDBRANCH   7   8
ENDBRANCH   3   7
BRANCH   1  19
HETATM   19  C   UNL     1      25.382  46.386  50.529  1.00  0.00     0.072 A 
HETATM   20  C   UNL     1      26.592  46.612  49.843  1.00  0.00     0.169 A 
HETATM   21  N   UNL     1      26.581  47.752  49.143  1.00  0.00    -0.183 NA
HETATM   22  N   UNL     1      25.371  48.279  49.406  1.00  0.00    -0.275 N 
HETATM   23  C   UNL     1      24.625  47.501  50.248  1.00  0.00     0.143 A 
BRANCH  22  24
HETATM   24  C   UNL     1      24.993  49.558  48.815  1.00  0.00     0.101 C 
HETATM   25  C   UNL     1      23.624  49.473  48.142  1.00  0.00     0.034 C 
HETATM   26  C   UNL     1      26.057  50.071  47.843  1.00  0.00     0.034 C 
ENDBRANCH  22  24
ENDBRANCH   1  19
TORSDOF 5
ENDMDL
MODEL 2
REMARK VINA RESULT:      -8.5      1.482      3.186
REMARK  5 active torsions:
REMARK  status: ('A' for Active; 'I' for Inactive)
REMARK    1  A    between atoms: C_2  and  N_3 
REMARK    2  A    between atoms: C_6  and  N_7 
REMARK       I    between atoms: N_7  and  C_8 
REMARK       I    between atoms: C_8  and  N_9 
REMARK    3  A    between atoms: N_9  and  C_10 
REMARK    4  A    between atoms: C_10  and  C_11 
REMARK    5  A    between atoms: C_12  and  C_13 
ROOT
HETATM    1  N   UNL     1      26.178  44.605  50.215  1.00  0.00    -0.306 N 
HETATM    2  C   UNL     1      26.453  43.833  51.297  1.00  0.00     0.321 C 
HETATM    3  N   UNL     1      26.534  44.429  52.518  1.00  0.00    -0.339 N 
HETATM    4  O   UNL     1      26.634  42.628  51.127  1.00  0.00    -0.247 OA
HETATM    5  H   UNL     1      26.226  44.076  49.353  1.00  0.00     0.171 HD
HETATM    6  H   UNL     1      26.892  45.372  52.498  1.00  0.00     0.164 HD
ENDROOT
BRANCH   3   7
HETATM    7  C   UNL     1      26.931  43.643  53.670  1.00  0.00     0.163 C 
BRANCH   7   8
HETATM    8  C   UNL     1      28.025  44.268  54.517  1.00  0.00    -0.022 A 
HETATM    9  C   UNL     1      29.361  43.788  54.423  1.00  0.00     0.056 A 
HETATM   10  C   UNL     1      30.356  44.332  55.261  1.00  0.00     0.020 A 
HETATM   11  C   UNL     1      30.046  45.331  56.181  1.00  0.00     0.043 A 
HETATM   12  C   UNL     1      28.742  45.789  56.273  1.00  0.00     0.117 A 
HETATM   13  F   UNL     1      28.439  46.740  57.166  1.00  0.00    -0.206 F 
HETATM   14  C   UNL     1      27.737  45.268  55.463  1.00  0.00     0.052 A 
BRANCH   9  15
HETATM   15  C   UNL     1      29.740  42.675  53.463  1.00  0.00     0.418 C 
HETATM   16  F   UNL     1      31.049  42.315  53.569  1.00  0.00    -0.166 F 
HETATM   17  F   UNL     1      29.029  41.527  53.651  1.00  0.00    -0.166 F 
HETATM   18  F   UNL     1      29.547  43.023  52.162  1.00  0.00    -0.166 F 
ENDBRANCH   9  15
ENDBRANCH   7   8
ENDBRANCH   3   7
BRANCH   1  19
HETATM   19  C   UNL     1      25.797  45.925  50.098  1.00  0.00     0.072 A 
HETATM   20  C   UNL     1      24.604  46.626  50.363  1.00  0.00     0.169 A 
HETATM   21  N   UNL     1      24.707  47.935  50.105  1.00  0.00    -0.183 NA
HETATM   22  N   UNL     1      25.963  48.072  49.639  1.00  0.00    -0.275 N 
HETATM   23  C   UNL     1      26.647  46.888  49.601  1.00  0.00     0.143 A 
BRANCH  22  24
HETATM   24  C   UNL     1      26.446  49.387  49.232  1.00  0.00     0.101 C 
HETATM   25  C   UNL     1      25.762  49.852  47.946  1.00  0.00     0.034 C 
HETATM   26  C   UNL     1      27.968  49.416  49.091  1.00  0.00     0.034 C 
ENDBRANCH  22  24
ENDBRANCH   1  19
TORSDOF 5
ENDMDL
MODEL 3
REMARK VINA RESULT:      -8.4      2.307      3.307
REMARK  5 active torsions:
REMARK  status: ('A' for Active; 'I' for Inactive)
REMARK    1  A    between atoms: C_2  and  N_3 
REMARK    2  A    between atoms: C_6  and  N_7 
REMARK       I    between atoms: N_7  and  C_8 
REMARK       I    between atoms: C_8  and  N_9 
REMARK    3  A    between atoms: N_9  and  C_10 
REMARK    4  A    between atoms: C_10  and  C_11 
REMARK    5  A    between atoms: C_12  and  C_13 
ROOT
HETATM    1  N   UNL     1      25.541  47.404  53.489  1.00  0.00    -0.306 N 
HETATM    2  C   UNL     1      26.360  47.365  54.570  1.00  0.00     0.321 C 
HETATM    3  N   UNL     1      27.437  46.532  54.541  1.00  0.00    -0.339 N 
HETATM    4  O   UNL     1      26.088  48.072  55.539  1.00  0.00    -0.247 OA
HETATM    5  H   UNL     1      24.731  47.989  53.651  1.00  0.00     0.171 HD
HETATM    6  H   UNL     1      27.291  45.681  54.019  1.00  0.00     0.164 HD
ENDROOT
BRANCH   3   7
HETATM    7  C   UNL     1      28.265  46.395  55.724  1.00  0.00     0.163 C 
BRANCH   7   8
HETATM    8  C   UNL     1      29.219  45.216  55.696  1.00  0.00    -0.022 A 
HETATM    9  C   UNL     1      30.074  44.962  56.804  1.00  0.00     0.056 A 
HETATM   10  C   UNL     1      31.003  43.903  56.739  1.00  0.00     0.020 A 
HETATM   11  C   UNL     1      31.094  43.103  55.603  1.00  0.00     0.043 A 
HETATM   12  C   UNL     1      30.264  43.359  54.523  1.00  0.00     0.117 A 
HETATM   13  F   UNL     1      30.359  42.599  53.424  1.00  0.00    -0.206 F 
HETATM   14  C   UNL     1      29.341  44.401  54.556  1.00  0.00     0.052 A 
BRANCH   9  15
HETATM   15  C   UNL     1      30.039  45.830  58.049  1.00  0.00     0.418 C 
HETATM   16  F   UNL     1      30.337  45.135  59.181  1.00  0.00    -0.166 F 
HETATM   17  F   UNL     1      30.920  46.869  58.015  1.00  0.00    -0.166 F 
HETATM   18  F   UNL     1      28.815  46.387  58.259  1.00  0.00    -0.166 F 
ENDBRANCH   9  15
ENDBRANCH   7   8
ENDBRANCH   3   7
BRANCH   1  19
HETATM   19  C   UNL     1      25.650  46.853  52.229  1.00  0.00     0.072 A 
HETATM   20  C   UNL     1      26.040  47.357  50.972  1.00  0.00     0.169 A 
HETATM   21  N   UNL     1      26.004  46.426  50.012  1.00  0.00    -0.183 NA
HETATM   22  N   UNL     1      25.558  45.326  50.647  1.00  0.00    -0.275 N 
HETATM   23  C   UNL     1      25.316  45.542  51.975  1.00  0.00     0.143 A 
BRANCH  22  24
HETATM   24  C   UNL     1      25.373  44.084  49.903  1.00  0.00     0.101 C 
HETATM   25  C   UNL     1      24.338  43.185  50.578  1.00  0.00     0.034 C 
HETATM   26  C   UNL     1      26.696  43.346  49.694  1.00  0.00     0.034 C 
ENDBRANCH  22  24
ENDBRANCH   1  19
TORSDOF 5
ENDMDL
MODEL 4
REMARK VINA RESULT:      -8.3      1.739      3.216
REMARK  5 active torsions:
REMARK  status: ('A' for Active; 'I' for Inactive)
REMARK    1  A    between atoms: C_2  and  N_3 
REMARK    2  A    between atoms: C_6  and  N_7 
REMARK       I    between atoms: N_7  and  C_8 
REMARK       I    between atoms: C_8  and  N_9 
REMARK    3  A    between atoms: N_9  and  C_10 
REMARK    4  A    between atoms: C_10  and  C_11 
REMARK    5  A    between atoms: C_12  and  C_13 
ROOT
HETATM    1  N   UNL     1      26.608  45.150  49.696  1.00  0.00    -0.306 N 
HETATM    2  C   UNL     1      26.902  44.321  50.729  1.00  0.00     0.321 C 
HETATM    3  N   UNL     1      26.789  44.798  52.000  1.00  0.00    -0.339 N 
HETATM    4  O   UNL     1      27.274  43.176  50.476  1.00  0.00    -0.247 OA
HETATM    5  H   UNL     1      26.807  44.721  48.801  1.00  0.00     0.171 HD
HETATM    6  H   UNL     1      27.003  45.780  52.095  1.00  0.00     0.164 HD
ENDROOT
BRANCH   3   7
HETATM    7  C   UNL     1      27.199  43.965  53.113  1.00  0.00     0.163 C 
BRANCH   7   8
HETATM    8  C   UNL     1      27.953  44.698  54.208  1.00  0.00    -0.022 A 
HETATM    9  C   UNL     1      29.221  44.224  54.642  1.00  0.00     0.056 A 
HETATM   10  C   UNL     1      29.882  44.874  55.705  1.00  0.00     0.020 A 
HETATM   11  C   UNL     1      29.306  45.975  56.335  1.00  0.00     0.043 A 
HETATM   12  C   UNL     1      28.066  46.429  55.913  1.00  0.00     0.117 A 
HETATM   13  F   UNL     1      27.505  47.479  56.527  1.00  0.00    -0.206 F 
HETATM   14  C   UNL     1      27.388  45.803  54.871  1.00  0.00     0.052 A 
BRANCH   9  15
HETATM   15  C   UNL     1      29.872  43.005  54.013  1.00  0.00     0.418 C 
HETATM   16  F   UNL     1      30.065  43.148  52.672  1.00  0.00    -0.166 F 
HETATM   17  F   UNL     1      31.098  42.713  54.530  1.00  0.00    -0.166 F 
HETATM   18  F   UNL     1      29.125  41.879  54.170  1.00  0.00    -0.166 F 
ENDBRANCH   9  15
ENDBRANCH   7   8
ENDBRANCH   3   7
BRANCH   1  19
HETATM   19  C   UNL     1      26.046  46.408  49.655  1.00  0.00     0.072 A 
HETATM   20  C   UNL     1      26.568  47.715  49.728  1.00  0.00     0.169 A 
HETATM   21  N   UNL     1      25.620  48.654  49.627  1.00  0.00    -0.183 NA
HETATM   22  N   UNL     1      24.479  47.948  49.522  1.00  0.00    -0.275 N 
HETATM   23  C   UNL     1      24.686  46.597  49.552  1.00  0.00     0.143 A 
BRANCH  22  24
HETATM   24  C   UNL     1      23.203  48.647  49.404  1.00  0.00     0.101 C 
HETATM   25  C   UNL     1      22.214  47.850  48.554  1.00  0.00     0.034 C 
HETATM   26  C   UNL     1      23.380  50.066  48.863  1.00  0.00     0.034 C 
ENDBRANCH  22  24
ENDBRANCH   1  19
TORSDOF 5
ENDMDL
MODEL 5
REMARK VINA RESULT:      -8.3      3.774      7.849
REMARK  5 active torsions:
REMARK  status: ('A' for Active; 'I' for Inactive)
REMARK    1  A    between atoms: C_2  and  N_3 
REMARK    2  A    between atoms: C_6  and  N_7 
REMARK       I    between atoms: N_7  and  C_8 
REMARK       I    between atoms: C_8  and  N_9 
REMARK    3  A    between atoms: N_9  and  C_10 
REMARK    4  A    between atoms: C_10  and  C_11 
REMARK    5  A    between atoms: C_12  and  C_13 
ROOT
HETATM    1  N   UNL     1      25.105  44.027  52.558  1.00  0.00    -0.306 N 
HETATM    2  C   UNL     1      24.518  44.705  51.539  1.00  0.00     0.321 C 
HETATM    3  N   UNL     1      25.034  45.913  51.180  1.00  0.00    -0.339 N 
HETATM    4  O   UNL     1      23.534  44.209  50.993  1.00  0.00    -0.247 OA
HETATM    5  H   UNL     1      24.592  43.187  52.795  1.00  0.00     0.171 HD
HETATM    6  H   UNL     1      25.429  46.441  51.944  1.00  0.00     0.164 HD
ENDROOT
BRANCH   3   7
HETATM    7  C   UNL     1      24.360  46.703  50.167  1.00  0.00     0.163 C 
BRANCH   7   8
HETATM    8  C   UNL     1      25.179  47.855  49.614  1.00  0.00    -0.022 A 
HETATM    9  C   UNL     1      24.565  48.834  48.785  1.00  0.00     0.056 A 
HETATM   10  C   UNL     1      25.349  49.863  48.224  1.00  0.00     0.020 A 
HETATM   11  C   UNL     1      26.718  49.931  48.471  1.00  0.00     0.043 A 
HETATM   12  C   UNL     1      27.313  48.970  49.274  1.00  0.00     0.117 A 
HETATM   13  F   UNL     1      28.631  49.027  49.502  1.00  0.00    -0.206 F 
HETATM   14  C   UNL     1      26.565  47.940  49.837  1.00  0.00     0.052 A 
BRANCH   9  15
HETATM   15  C   UNL     1      23.084  48.780  48.456  1.00  0.00     0.418 C 
HETATM   16  F   UNL     1      22.296  48.915  49.558  1.00  0.00    -0.166 F 
HETATM   17  F   UNL     1      22.680  49.758  47.597  1.00  0.00    -0.166 F 
HETATM   18  F   UNL     1      22.724  47.604  47.875  1.00  0.00    -0.166 F 
ENDBRANCH   9  15
ENDBRANCH   7   8
ENDBRANCH   3   7
BRANCH   1  19
HETATM   19  C   UNL     1      26.273  44.244  53.258  1.00  0.00     0.072 A 
HETATM   20  C   UNL     1      26.787  45.334  53.988  1.00  0.00     0.169 A 
HETATM   21  N   UNL     1      27.986  45.076  54.522  1.00  0.00    -0.183 NA
HETATM   22  N   UNL     1      28.261  43.826  54.105  1.00  0.00    -0.275 N 
HETATM   23  C   UNL     1      27.268  43.295  53.329  1.00  0.00     0.143 A 
BRANCH  22  24
HETATM   24  C   UNL     1      29.521  43.195  54.486  1.00  0.00     0.101 C 
HETATM   25  C   UNL     1      30.326  44.094  55.423  1.00  0.00     0.034 C 
HETATM   26  C   UNL     1      30.345  42.788  53.264  1.00  0.00     0.034 C 
ENDBRANCH  22  24
ENDBRANCH   1  19
TORSDOF 5
ENDMDL
MODEL 6
REMARK VINA RESULT:      -8.0      3.880      6.109
REMARK  5 active torsions:
REMARK  status: ('A' for Active; 'I' for Inactive)
REMARK    1  A    between atoms: C_2  and  N_3 
REMARK    2  A    between atoms: C_6  and  N_7 
REMARK       I    between atoms: N_7  and  C_8 
REMARK       I    between atoms: C_8  and  N_9 
REMARK    3  A    between atoms: N_9  and  C_10 
REMARK    4  A    between atoms: C_10  and  C_11 
REMARK    5  A    between atoms: C_12  and  C_13 
ROOT
HETATM    1  N   UNL     1      27.145  42.772  49.446  1.00  0.00    -0.306 N 
HETATM    2  C   UNL     1      27.120  43.818  50.311  1.00  0.00     0.321 C 
HETATM    3  N   UNL     1      26.859  43.570  51.625  1.00  0.00    -0.339 N 
HETATM    4  O   UNL     1      27.317  44.949  49.871  1.00  0.00    -0.247 OA
HETATM    5  H   UNL     1      27.262  43.079  48.489  1.00  0.00     0.171 HD
HETATM    6  H   UNL     1      26.229  42.798  51.786  1.00  0.00     0.164 HD
ENDROOT
BRANCH   3   7
HETATM    7  C   UNL     1      26.723  44.681  52.547  1.00  0.00     0.163 C 
BRANCH   7   8
HETATM    8  C   UNL     1      27.765  44.719  53.650  1.00  0.00    -0.022 A 
HETATM    9  C   UNL     1      27.848  45.846  54.514  1.00  0.00     0.056 A 
HETATM   10  C   UNL     1      28.862  45.900  55.492  1.00  0.00     0.020 A 
HETATM   11  C   UNL     1      29.784  44.863  55.622  1.00  0.00     0.043 A 
HETATM   12  C   UNL     1      29.702  43.771  54.772  1.00  0.00     0.117 A 
HETATM   13  F   UNL     1      30.596  42.780  54.887  1.00  0.00    -0.206 F 
HETATM   14  C   UNL     1      28.716  43.693  53.793  1.00  0.00     0.052 A 
BRANCH   9  15
HETATM   15  C   UNL     1      26.891  47.017  54.387  1.00  0.00     0.418 C 
HETATM   16  F   UNL     1      27.156  48.011  55.279  1.00  0.00    -0.166 F 
HETATM   17  F   UNL     1      26.915  47.611  53.160  1.00  0.00    -0.166 F 
HETATM   18  F   UNL     1      25.597  46.654  54.598  1.00  0.00    -0.166 F 
ENDBRANCH   9  15
ENDBRANCH   7   8
ENDBRANCH   3   7
BRANCH   1  19
HETATM   19  C   UNL     1      27.102  41.409  49.647  1.00  0.00     0.072 A 
HETATM   20  C   UNL     1      26.102  40.514  50.075  1.00  0.00     0.169 A 
HETATM   21  N   UNL     1      26.524  39.245  50.104  1.00  0.00    -0.183 NA
HETATM   22  N   UNL     1      27.813  39.327  49.725  1.00  0.00    -0.275 N 
HETATM   23  C   UNL     1      28.207  40.609  49.458  1.00  0.00     0.143 A 
BRANCH  22  24
HETATM   24  C   UNL     1      28.625  38.117  49.649  1.00  0.00     0.101 C 
HETATM   25  C   UNL     1      29.740  38.134  50.694  1.00  0.00     0.034 C 
HETATM   26  C   UNL     1      29.186  37.896  48.244  1.00  0.00     0.034 C 
ENDBRANCH  22  24
ENDBRANCH   1  19
TORSDOF 5
ENDMDL
MODEL 7
REMARK VINA RESULT:      -7.6      2.648      4.273
REMARK  5 active torsions:
REMARK  status: ('A' for Active; 'I' for Inactive)
REMARK    1  A    between atoms: C_2  and  N_3 
REMARK    2  A    between atoms: C_6  and  N_7 
REMARK       I    between atoms: N_7  and  C_8 
REMARK       I    between atoms: C_8  and  N_9 
REMARK    3  A    between atoms: N_9  and  C_10 
REMARK    4  A    between atoms: C_10  and  C_11 
REMARK    5  A    between atoms: C_12  and  C_13 
ROOT
HETATM    1  N   UNL     1      27.082  42.120  52.080  1.00  0.00    -0.306 N 
HETATM    2  C   UNL     1      28.112  42.170  52.962  1.00  0.00     0.321 C 
HETATM    3  N   UNL     1      28.453  43.376  53.497  1.00  0.00    -0.339 N 
HETATM    4  O   UNL     1      28.706  41.127  53.230  1.00  0.00    -0.247 OA
HETATM    5  H   UNL     1      26.971  41.196  51.683  1.00  0.00     0.171 HD
HETATM    6  H   UNL     1      28.312  44.160  52.878  1.00  0.00     0.164 HD
ENDROOT
BRANCH   3   7
HETATM    7  C   UNL     1      29.616  43.470  54.358  1.00  0.00     0.163 C 
BRANCH   7   8
HETATM    8  C   UNL     1      29.508  44.513  55.456  1.00  0.00    -0.022 A 
HETATM    9  C   UNL     1      30.354  44.440  56.596  1.00  0.00     0.056 A 
HETATM   10  C   UNL     1      30.200  45.376  57.639  1.00  0.00     0.020 A 
HETATM   11  C   UNL     1      29.227  46.371  57.567  1.00  0.00     0.043 A 
HETATM   12  C   UNL     1      28.400  46.433  56.456  1.00  0.00     0.117 A 
HETATM   13  F   UNL     1      27.456  47.380  56.391  1.00  0.00    -0.206 F 
HETATM   14  C   UNL     1      28.526  45.519  55.414  1.00  0.00     0.052 A 
BRANCH   9  15
HETATM   15  C   UNL     1      31.403  43.351  56.738  1.00  0.00     0.418 C 
HETATM   16  F   UNL     1      30.892  42.193  57.239  1.00  0.00    -0.166 F 
HETATM   17  F   UNL     1      31.999  43.010  55.561  1.00  0.00    -0.166 F 
HETATM   18  F   UNL     1      32.413  43.711  57.575  1.00  0.00    -0.166 F 
ENDBRANCH   9  15
ENDBRANCH   7   8
ENDBRANCH   3   7
BRANCH   1  19
HETATM   19  C   UNL     1      26.154  43.064  51.692  1.00  0.00     0.072 A 
HETATM   20  C   UNL     1      25.118  43.748  52.358  1.00  0.00     0.169 A 
HETATM   21  N   UNL     1      24.471  44.605  51.560  1.00  0.00    -0.183 NA
HETATM   22  N   UNL     1      25.073  44.448  50.366  1.00  0.00    -0.275 N 
HETATM   23  C   UNL     1      26.076  43.520  50.395  1.00  0.00     0.143 A 
BRANCH  22  24
HETATM   24  C   UNL     1      24.618  45.226  49.218  1.00  0.00     0.101 C 
HETATM   25  C   UNL     1      24.071  46.585  49.653  1.00  0.00     0.034 C 
HETATM   26  C   UNL     1      23.594  44.459  48.381  1.00  0.00     0.034 C 
ENDBRANCH  22  24
ENDBRANCH   1  19
TORSDOF 5
ENDMDL
MODEL 8
REMARK VINA RESULT:      -7.5      3.591      7.807
REMARK  5 active torsions:
REMARK  status: ('A' for Active; 'I' for Inactive)
REMARK    1  A    between atoms: C_2  and  N_3 
REMARK    2  A    between atoms: C_6  and  N_7 
REMARK       I    between atoms: N_7  and  C_8 
REMARK       I    between atoms: C_8  and  N_9 
REMARK    3  A    between atoms: N_9  and  C_10 
REMARK    4  A    between atoms: C_10  and  C_11 
REMARK    5  A    between atoms: C_12  and  C_13 
ROOT
HETATM    1  N   UNL     1      27.519  43.005  53.146  1.00  0.00    -0.306 N 
HETATM    2  C   UNL     1      27.228  43.220  51.838  1.00  0.00     0.321 C 
HETATM    3  N   UNL     1      27.327  44.487  51.349  1.00  0.00    -0.339 N 
HETATM    4  O   UNL     1      26.872  42.264  51.151  1.00  0.00    -0.247 OA
HETATM    5  H   UNL     1      27.332  42.049  53.421  1.00  0.00     0.171 HD
HETATM    6  H   UNL     1      27.100  45.209  52.017  1.00  0.00     0.164 HD
ENDROOT
BRANCH   3   7
HETATM    7  C   UNL     1      26.919  44.758  49.984  1.00  0.00     0.163 C 
BRANCH   7   8
HETATM    8  C   UNL     1      26.086  46.015  49.810  1.00  0.00    -0.022 A 
HETATM    9  C   UNL     1      24.667  45.930  49.768  1.00  0.00     0.056 A 
HETATM   10  C   UNL     1      23.906  47.096  49.540  1.00  0.00     0.020 A 
HETATM   11  C   UNL     1      24.528  48.328  49.355  1.00  0.00     0.043 A 
HETATM   12  C   UNL     1      25.911  48.404  49.390  1.00  0.00     0.117 A 
HETATM   13  F   UNL     1      26.511  49.586  49.199  1.00  0.00    -0.206 F 
HETATM   14  C   UNL     1      26.689  47.270  49.607  1.00  0.00     0.052 A 
BRANCH   9  15
HETATM   15  C   UNL     1      23.945  44.604  49.926  1.00  0.00     0.418 C 
HETATM   16  F   UNL     1      22.613  44.697  49.659  1.00  0.00    -0.166 F 
HETATM   17  F   UNL     1      24.415  43.625  49.102  1.00  0.00    -0.166 F 
HETATM   18  F   UNL     1      24.044  44.107  51.188  1.00  0.00    -0.166 F 
ENDBRANCH   9  15
ENDBRANCH   7   8
ENDBRANCH   3   7
BRANCH   1  19
HETATM   19  C   UNL     1      28.066  43.819  54.115  1.00  0.00     0.072 A 
HETATM   20  C   UNL     1      27.612  44.962  54.802  1.00  0.00     0.169 A 
HETATM   21  N   UNL     1      28.503  45.419  55.689  1.00  0.00    -0.183 NA
HETATM   22  N   UNL     1      29.551  44.585  55.548  1.00  0.00    -0.275 N 
HETATM   23  C   UNL     1      29.339  43.621  54.601  1.00  0.00     0.143 A 
BRANCH  22  24
HETATM   24  C   UNL     1      30.748  44.781  56.359  1.00  0.00     0.101 C 
HETATM   25  C   UNL     1      31.375  43.444  56.751  1.00  0.00     0.034 C 
HETATM   26  C   UNL     1      30.464  45.642  57.591  1.00  0.00     0.034 C 
ENDBRANCH  22  24
ENDBRANCH   1  19
TORSDOF 5
ENDMDL
MODEL 9
REMARK VINA RESULT:      -7.5      2.005      3.714
REMARK  5 active torsions:
REMARK  status: ('A' for Active; 'I' for Inactive)
REMARK    1  A    between atoms: C_2  and  N_3 
REMARK    2  A    between atoms: C_6  and  N_7 
REMARK       I    between atoms: N_7  and  C_8 
REMARK       I    between atoms: C_8  and  N_9 
REMARK    3  A    between atoms: N_9  and  C_10 
REMARK    4  A    between atoms: C_10  and  C_11 
REMARK    5  A    between atoms: C_12  and  C_13 
ROOT
HETATM    1  N   UNL     1      25.442  47.074  52.628  1.00  0.00    -0.306 N 
HETATM    2  C   UNL     1      25.908  46.523  53.778  1.00  0.00     0.321 C 
HETATM    3  N   UNL     1      26.352  45.236  53.750  1.00  0.00    -0.339 N 
HETATM    4  O   UNL     1      25.896  47.205  54.802  1.00  0.00    -0.247 OA
HETATM    5  H   UNL     1      25.062  47.999  52.781  1.00  0.00     0.171 HD
HETATM    6  H   UNL     1      25.864  44.642  53.097  1.00  0.00     0.164 HD
ENDROOT
BRANCH   3   7
HETATM    7  C   UNL     1      26.755  44.594  54.987  1.00  0.00     0.163 C 
BRANCH   7   8
HETATM    8  C   UNL     1      28.254  44.561  55.224  1.00  0.00    -0.022 A 
HETATM    9  C   UNL     1      29.044  43.528  54.649  1.00  0.00     0.056 A 
HETATM   10  C   UNL     1      30.425  43.469  54.930  1.00  0.00     0.020 A 
HETATM   11  C   UNL     1      31.023  44.411  55.764  1.00  0.00     0.043 A 
HETATM   12  C   UNL     1      30.247  45.411  56.327  1.00  0.00     0.117 A 
HETATM   13  F   UNL     1      30.818  46.310  57.139  1.00  0.00    -0.206 F 
HETATM   14  C   UNL     1      28.881  45.491  56.072  1.00  0.00     0.052 A 
BRANCH   9  15
HETATM   15  C   UNL     1      28.431  42.457  53.765  1.00  0.00     0.418 C 
HETATM   16  F   UNL     1      27.280  41.944  54.283  1.00  0.00    -0.166 F 
HETATM   17  F   UNL     1      28.105  42.899  52.518  1.00  0.00    -0.166 F 
HETATM   18  F   UNL     1      29.265  41.399  53.578  1.00  0.00    -0.166 F 
ENDBRANCH   9  15
ENDBRANCH   7   8
ENDBRANCH   3   7
BRANCH   1  19
HETATM   19  C   UNL     1      25.454  46.630  51.323  1.00  0.00     0.072 A 
HETATM   20  C   UNL     1      26.244  46.930  50.195  1.00  0.00     0.169 A 
HETATM   21  N   UNL     1      25.890  46.222  49.116  1.00  0.00    -0.183 NA
HETATM   22  N   UNL     1      24.847  45.486  49.543  1.00  0.00    -0.275 N 
HETATM   23  C   UNL     1      24.540  45.713  50.856  1.00  0.00     0.143 A 
BRANCH  22  24
HETATM   24  C   UNL     1      24.174  44.579  48.619  1.00  0.00     0.101 C 
HETATM   25  C   UNL     1      22.937  45.234  48.006  1.00  0.00     0.034 C 
HETATM   26  C   UNL     1      23.823  43.247  49.284  1.00  0.00     0.034 C 
ENDBRANCH  22  24
ENDBRANCH   1  19
TORSDOF 5
ENDMDL
MODEL 10
REMARK VINA RESULT:      -7.4      2.461      4.184
REMARK  5 active torsions:
REMARK  status: ('A' for Active; 'I' for Inactive)
REMARK    1  A    between atoms: C_2  and  N_3 
REMARK    2  A    between atoms: C_6  and  N_7 
REMARK       I    between atoms: N_7  and  C_8 
REMARK       I    between atoms: C_8  and  N_9 
REMARK    3  A    between atoms: N_9  and  C_10 
REMARK    4  A    between atoms: C_10  and  C_11 
REMARK    5  A    between atoms: C_12  and  C_13 
ROOT
HETATM    1  N   UNL     1      25.015  47.177  49.432  1.00  0.00    -0.306 N 
HETATM    2  C   UNL     1      25.587  46.341  50.335  1.00  0.00     0.321 C 
HETATM    3  N   UNL     1      24.812  45.829  51.331  1.00  0.00    -0.339 N 
HETATM    4  O   UNL     1      26.787  46.092  50.227  1.00  0.00    -0.247 OA
HETATM    5  H   UNL     1      25.697  47.562  48.791  1.00  0.00     0.171 HD
HETATM    6  H   UNL     1      24.078  46.446  51.645  1.00  0.00     0.164 HD
ENDROOT
BRANCH   3   7
HETATM    7  C   UNL     1      25.424  45.020  52.367  1.00  0.00     0.163 C 
BRANCH   7   8
HETATM    8  C   UNL     1      26.260  45.799  53.367  1.00  0.00    -0.022 A 
HETATM    9  C   UNL     1      27.489  45.262  53.840  1.00  0.00     0.056 A 
HETATM   10  C   UNL     1      28.225  45.964  54.818  1.00  0.00     0.020 A 
HETATM   11  C   UNL     1      27.761  47.175  55.326  1.00  0.00     0.043 A 
HETATM   12  C   UNL     1      26.559  47.689  54.866  1.00  0.00     0.117 A 
HETATM   13  F   UNL     1      26.106  48.847  55.364  1.00  0.00    -0.206 F 
HETATM   14  C   UNL     1      25.809  47.017  53.906  1.00  0.00     0.052 A 
BRANCH   9  15
HETATM   15  C   UNL     1      28.017  43.927  53.345  1.00  0.00     0.418 C 
HETATM   16  F   UNL     1      27.150  42.903  53.575  1.00  0.00    -0.166 F 
HETATM   17  F   UNL     1      28.266  43.902  52.005  1.00  0.00    -0.166 F 
HETATM   18  F   UNL     1      29.185  43.577  53.946  1.00  0.00    -0.166 F 
ENDBRANCH   9  15
ENDBRANCH   7   8
ENDBRANCH   3   7
BRANCH   1  19
HETATM   19  C   UNL     1      23.701  47.530  49.206  1.00  0.00     0.072 A 
HETATM   20  C   UNL     1      22.567  46.833  48.745  1.00  0.00     0.169 A 
HETATM   21  N   UNL     1      21.473  47.602  48.699  1.00  0.00    -0.183 NA
HETATM   22  N   UNL     1      21.913  48.809  49.102  1.00  0.00    -0.275 N 
HETATM   23  C   UNL     1      23.248  48.815  49.399  1.00  0.00     0.143 A 
BRANCH  22  24
HETATM   24  C   UNL     1      20.985  49.933  49.170  1.00  0.00     0.101 C 
HETATM   25  C   UNL     1      20.807  50.585  47.799  1.00  0.00     0.034 C 
HETATM   26  C   UNL     1      21.411  50.960  50.221  1.00  0.00     0.034 C 
ENDBRANCH  22  24
ENDBRANCH   1  19
TORSDOF 5
ENDMDL
