MODEL 1
REMARK VINA RESULT:      -8.3      0.000      0.000
REMARK  5 active torsions:
REMARK  status: ('A' for Active; 'I' for Inactive)
REMARK    1  A    between atoms: C_4  and  O_5 
REMARK    2  A    between atoms: C_6  and  C_7 
REMARK       I    between atoms: C_7  and  N_8 
REMARK    3  A    between atoms: N_8  and  C_9 
REMARK    4  A    between atoms: C_9  and  C_10 
REMARK    5  A    between atoms: C_10  and  C_11 
ROOT
HETATM    1  C   UNL     1      26.661  46.226  53.887  1.00  0.00     0.254 C 
HETATM    2  N   UNL     1      26.532  46.147  52.519  1.00  0.00    -0.356 N 
HETATM    3  O   UNL     1      25.861  46.838  54.590  1.00  0.00    -0.268 OA
HETATM    4  H   UNL     1      27.302  45.713  52.016  1.00  0.00     0.162 HD
ENDROOT
BRANCH   2   5
HETATM    5  C   UNL     1      25.523  46.910  51.811  1.00  0.00     0.136 C 
BRANCH   5   6
HETATM    6  C   UNL     1      25.465  46.658  50.275  1.00  0.00    -0.004 C 
HETATM    7  C   UNL     1      26.426  45.515  49.873  1.00  0.00     0.021 C 
HETATM    8  C   UNL     1      24.034  46.204  49.897  1.00  0.00     0.021 C 
BRANCH   6   9
HETATM    9  C   UNL     1      25.898  47.950  49.549  1.00  0.00    -0.046 A 
HETATM   10  C   UNL     1      24.944  48.750  48.894  1.00  0.00     0.027 A 
HETATM   11  C   UNL     1      25.348  49.908  48.242  1.00  0.00     0.116 A 
HETATM   12  N   UNL     1      26.624  50.333  48.192  1.00  0.00    -0.273 NA
HETATM   13  C   UNL     1      27.534  49.561  48.816  1.00  0.00     0.116 A 
HETATM   14  C   UNL     1      27.228  48.386  49.493  1.00  0.00     0.027 A 
ENDBRANCH   6   9
ENDBRANCH   5   6
ENDBRANCH   2   5
BRANCH   1  15
HETATM   15  C   UNL     1      27.847  45.547  54.503  1.00  0.00     0.065 A 
HETATM   16  C   UNL     1      28.366  44.311  54.088  1.00  0.00     0.081 A 
HETATM   17  C   UNL     1      29.493  43.763  54.716  1.00  0.00     0.044 A 
HETATM   18  C   UNL     1      30.115  44.437  55.775  1.00  0.00    -0.059 A 
HETATM   19  C   UNL     1      31.342  43.876  56.433  1.00  0.00     0.048 C 
HETATM   20  C   UNL     1      29.606  45.671  56.187  1.00  0.00     0.008 A 
HETATM   21  C   UNL     1      28.482  46.217  55.561  1.00  0.00     0.020 A 
BRANCH  16  22
HETATM   22  O   UNL     1      27.795  43.614  53.052  1.00  0.00    -0.360 OA
HETATM   23  H   UNL     1      26.860  43.450  53.266  1.00  0.00     0.217 HD
ENDBRANCH  16  22
ENDBRANCH   1  15
TORSDOF 5
ENDMDL
MODEL 2
REMARK VINA RESULT:      -8.1      1.509      2.042
REMARK  5 active torsions:
REMARK  status: ('A' for Active; 'I' for Inactive)
REMARK    1  A    between atoms: C_4  and  O_5 
REMARK    2  A    between atoms: C_6  and  C_7 
REMARK       I    between atoms: C_7  and  N_8 
REMARK    3  A    between atoms: N_8  and  C_9 
REMARK    4  A    between atoms: C_9  and  C_10 
REMARK    5  A    between atoms: C_10  and  C_11 
ROOT
HETATM    1  C   UNL     1      27.490  43.916  51.761  1.00  0.00     0.254 C 
HETATM    2  N   UNL     1      27.412  45.152  51.160  1.00  0.00    -0.356 N 
HETATM    3  O   UNL     1      26.815  42.960  51.389  1.00  0.00    -0.268 OA
HETATM    4  H   UNL     1      27.927  45.906  51.609  1.00  0.00     0.162 HD
ENDROOT
BRANCH   2   5
HETATM    5  C   UNL     1      26.416  45.438  50.147  1.00  0.00     0.136 C 
BRANCH   5   6
HETATM    6  C   UNL     1      25.453  46.616  50.483  1.00  0.00    -0.004 C 
HETATM    7  C   UNL     1      24.001  46.265  50.080  1.00  0.00     0.021 C 
HETATM    8  C   UNL     1      25.459  46.844  52.014  1.00  0.00     0.021 C 
BRANCH   6   9
HETATM    9  C   UNL     1      25.903  47.859  49.687  1.00  0.00    -0.046 A 
HETATM   10  C   UNL     1      24.951  48.684  49.061  1.00  0.00     0.027 A 
HETATM   11  C   UNL     1      25.370  49.798  48.346  1.00  0.00     0.116 A 
HETATM   12  N   UNL     1      26.660  50.157  48.205  1.00  0.00    -0.273 NA
HETATM   13  C   UNL     1      27.568  49.361  48.802  1.00  0.00     0.116 A 
HETATM   14  C   UNL     1      27.247  48.226  49.537  1.00  0.00     0.027 A 
ENDBRANCH   6   9
ENDBRANCH   5   6
ENDBRANCH   2   5
BRANCH   1  15
HETATM   15  C   UNL     1      28.427  43.777  52.922  1.00  0.00     0.065 A 
HETATM   16  C   UNL     1      29.380  42.756  53.064  1.00  0.00     0.081 A 
HETATM   17  C   UNL     1      30.227  42.720  54.180  1.00  0.00     0.044 A 
HETATM   18  C   UNL     1      30.130  43.699  55.178  1.00  0.00    -0.059 A 
HETATM   19  C   UNL     1      31.054  43.690  56.361  1.00  0.00     0.048 C 
HETATM   20  C   UNL     1      29.187  44.721  55.038  1.00  0.00     0.008 A 
HETATM   21  C   UNL     1      28.343  44.756  53.925  1.00  0.00     0.020 A 
BRANCH  16  22
HETATM   22  O   UNL     1      29.517  41.778  52.111  1.00  0.00    -0.360 OA
HETATM   23  H   UNL     1      29.286  42.154  51.243  1.00  0.00     0.217 HD
ENDBRANCH  16  22
ENDBRANCH   1  15
TORSDOF 5
ENDMDL
MODEL 3
REMARK VINA RESULT:      -8.0      1.478      2.236
REMARK  5 active torsions:
REMARK  status: ('A' for Active; 'I' for Inactive)
REMARK    1  A    between atoms: C_4  and  O_5 
REMARK    2  A    between atoms: C_6  and  C_7 
REMARK       I    between atoms: C_7  and  N_8 
REMARK    3  A    between atoms: N_8  and  C_9 
REMARK    4  A    between atoms: C_9  and  C_10 
REMARK    5  A    between atoms: C_10  and  C_11 
ROOT
HETATM    1  C   UNL     1      26.997  45.122  53.667  1.00  0.00     0.254 C 
HETATM    2  N   UNL     1      26.414  44.102  52.949  1.00  0.00    -0.356 N 
HETATM    3  O   UNL     1      26.553  46.268  53.663  1.00  0.00    -0.268 OA
HETATM    4  H   UNL     1      26.917  43.219  52.929  1.00  0.00     0.162 HD
ENDROOT
BRANCH   2   5
HETATM    5  C   UNL     1      25.327  44.356  52.023  1.00  0.00     0.136 C 
BRANCH   5   6
HETATM    6  C   UNL     1      25.757  44.544  50.539  1.00  0.00    -0.004 C 
HETATM    7  C   UNL     1      27.249  44.178  50.353  1.00  0.00     0.021 C 
HETATM    8  C   UNL     1      24.937  43.575  49.654  1.00  0.00     0.021 C 
BRANCH   6   9
HETATM    9  C   UNL     1      25.558  46.026  50.154  1.00  0.00    -0.046 A 
HETATM   10  C   UNL     1      24.261  46.556  50.021  1.00  0.00     0.027 A 
HETATM   11  C   UNL     1      24.096  47.890  49.672  1.00  0.00     0.116 A 
HETATM   12  N   UNL     1      25.117  48.738  49.446  1.00  0.00    -0.273 NA
HETATM   13  C   UNL     1      26.356  48.224  49.570  1.00  0.00     0.116 A 
HETATM   14  C   UNL     1      26.622  46.904  49.913  1.00  0.00     0.027 A 
ENDBRANCH   6   9
ENDBRANCH   5   6
ENDBRANCH   2   5
BRANCH   1  15
HETATM   15  C   UNL     1      28.229  44.789  54.453  1.00  0.00     0.065 A 
HETATM   16  C   UNL     1      28.806  45.618  55.427  1.00  0.00     0.081 A 
HETATM   17  C   UNL     1      29.951  45.210  56.124  1.00  0.00     0.044 A 
HETATM   18  C   UNL     1      30.544  43.971  55.854  1.00  0.00    -0.059 A 
HETATM   19  C   UNL     1      31.751  43.509  56.618  1.00  0.00     0.048 C 
HETATM   20  C   UNL     1      29.969  43.138  54.889  1.00  0.00     0.008 A 
HETATM   21  C   UNL     1      28.827  43.545  54.195  1.00  0.00     0.020 A 
BRANCH  16  22
HETATM   22  O   UNL     1      28.259  46.840  55.731  1.00  0.00    -0.360 OA
HETATM   23  H   UNL     1      28.604  47.500  55.104  1.00  0.00     0.217 HD
ENDBRANCH  16  22
ENDBRANCH   1  15
TORSDOF 5
ENDMDL
MODEL 4
REMARK VINA RESULT:      -7.9      2.186      7.549
REMARK  5 active torsions:
REMARK  status: ('A' for Active; 'I' for Inactive)
REMARK    1  A    between atoms: C_4  and  O_5 
REMARK    2  A    between atoms: C_6  and  C_7 
REMARK       I    between atoms: C_7  and  N_8 
REMARK    3  A    between atoms: N_8  and  C_9 
REMARK    4  A    between atoms: C_9  and  C_10 
REMARK    5  A    between atoms: C_10  and  C_11 
ROOT
HETATM    1  C   UNL     1      26.454  46.125  50.357  1.00  0.00     0.254 C 
HETATM    2  N   UNL     1      26.182  45.827  51.674  1.00  0.00    -0.356 N 
HETATM    3  O   UNL     1      27.309  45.527  49.710  1.00  0.00    -0.268 OA
HETATM    4  H   UNL     1      25.536  46.450  52.154  1.00  0.00     0.162 HD
ENDROOT
BRANCH   2   5
HETATM    5  C   UNL     1      26.996  44.888  52.419  1.00  0.00     0.136 C 
BRANCH   5   6
HETATM    6  C   UNL     1      26.892  45.011  53.968  1.00  0.00    -0.004 C 
HETATM    7  C   UNL     1      26.491  46.449  54.375  1.00  0.00     0.021 C 
HETATM    8  C   UNL     1      25.773  44.066  54.470  1.00  0.00     0.021 C 
BRANCH   6   9
HETATM    9  C   UNL     1      28.272  44.688  54.579  1.00  0.00    -0.046 A 
HETATM   10  C   UNL     1      28.948  43.507  54.222  1.00  0.00     0.027 A 
HETATM   11  C   UNL     1      30.188  43.228  54.781  1.00  0.00     0.116 A 
HETATM   12  N   UNL     1      30.809  44.030  55.667  1.00  0.00    -0.273 NA
HETATM   13  C   UNL     1      30.155  45.156  56.010  1.00  0.00     0.116 A 
HETATM   14  C   UNL     1      28.912  45.521  55.506  1.00  0.00     0.027 A 
ENDBRANCH   6   9
ENDBRANCH   5   6
ENDBRANCH   2   5
BRANCH   1  15
HETATM   15  C   UNL     1      25.673  47.242  49.733  1.00  0.00     0.065 A 
HETATM   16  C   UNL     1      24.280  47.248  49.564  1.00  0.00     0.081 A 
HETATM   17  C   UNL     1      23.636  48.349  48.983  1.00  0.00     0.044 A 
HETATM   18  C   UNL     1      24.373  49.459  48.554  1.00  0.00    -0.059 A 
HETATM   19  C   UNL     1      23.691  50.658  47.961  1.00  0.00     0.048 C 
HETATM   20  C   UNL     1      25.761  49.461  48.726  1.00  0.00     0.008 A 
HETATM   21  C   UNL     1      26.402  48.363  49.304  1.00  0.00     0.020 A 
BRANCH  16  22
HETATM   22  O   UNL     1      23.512  46.186  49.973  1.00  0.00    -0.360 OA
HETATM   23  H   UNL     1      23.899  45.817  50.786  1.00  0.00     0.217 HD
ENDBRANCH  16  22
ENDBRANCH   1  15
TORSDOF 5
ENDMDL
MODEL 5
REMARK VINA RESULT:      -7.6      3.229      4.351
REMARK  5 active torsions:
REMARK  status: ('A' for Active; 'I' for Inactive)
REMARK    1  A    between atoms: C_4  and  O_5 
REMARK    2  A    between atoms: C_6  and  C_7 
REMARK       I    between atoms: C_7  and  N_8 
REMARK    3  A    between atoms: N_8  and  C_9 
REMARK    4  A    between atoms: C_9  and  C_10 
REMARK    5  A    between atoms: C_10  and  C_11 
ROOT
HETATM    1  C   UNL     1      27.430  44.915  53.819  1.00  0.00     0.254 C 
HETATM    2  N   UNL     1      26.769  43.840  53.269  1.00  0.00    -0.356 N 
HETATM    3  O   UNL     1      27.086  46.076  53.611  1.00  0.00    -0.268 OA
HETATM    4  H   UNL     1      27.194  42.927  53.410  1.00  0.00     0.162 HD
ENDROOT
BRANCH   2   5
HETATM    5  C   UNL     1      25.716  44.021  52.290  1.00  0.00     0.136 C 
BRANCH   5   6
HETATM    6  C   UNL     1      26.066  43.541  50.850  1.00  0.00    -0.004 C 
HETATM    7  C   UNL     1      26.856  44.632  50.089  1.00  0.00     0.021 C 
HETATM    8  C   UNL     1      26.983  42.298  50.947  1.00  0.00     0.021 C 
BRANCH   6   9
HETATM    9  C   UNL     1      24.750  43.262  50.093  1.00  0.00    -0.046 A 
HETATM   10  C   UNL     1      23.759  44.255  50.002  1.00  0.00     0.027 A 
HETATM   11  C   UNL     1      22.579  43.990  49.320  1.00  0.00     0.116 A 
HETATM   12  N   UNL     1      22.307  42.815  48.721  1.00  0.00    -0.273 NA
HETATM   13  C   UNL     1      23.257  41.865  48.815  1.00  0.00     0.116 A 
HETATM   14  C   UNL     1      24.468  42.036  49.476  1.00  0.00     0.027 A 
ENDBRANCH   6   9
ENDBRANCH   5   6
ENDBRANCH   2   5
BRANCH   1  15
HETATM   15  C   UNL     1      28.622  44.620  54.678  1.00  0.00     0.065 A 
HETATM   16  C   UNL     1      29.105  45.460  55.693  1.00  0.00     0.081 A 
HETATM   17  C   UNL     1      30.219  45.087  56.457  1.00  0.00     0.044 A 
HETATM   18  C   UNL     1      30.875  43.874  56.215  1.00  0.00    -0.059 A 
HETATM   19  C   UNL     1      32.048  43.449  57.049  1.00  0.00     0.048 C 
HETATM   20  C   UNL     1      30.393  43.030  55.209  1.00  0.00     0.008 A 
HETATM   21  C   UNL     1      29.282  43.402  54.448  1.00  0.00     0.020 A 
BRANCH  16  22
HETATM   22  O   UNL     1      28.495  46.657  55.972  1.00  0.00    -0.360 OA
HETATM   23  H   UNL     1      29.180  47.313  56.187  1.00  0.00     0.217 HD
ENDBRANCH  16  22
ENDBRANCH   1  15
TORSDOF 5
ENDMDL
MODEL 6
REMARK VINA RESULT:      -7.6      6.037      8.727
REMARK  5 active torsions:
REMARK  status: ('A' for Active; 'I' for Inactive)
REMARK    1  A    between atoms: C_4  and  O_5 
REMARK    2  A    between atoms: C_6  and  C_7 
REMARK       I    between atoms: C_7  and  N_8 
REMARK    3  A    between atoms: N_8  and  C_9 
REMARK    4  A    between atoms: C_9  and  C_10 
REMARK    5  A    between atoms: C_10  and  C_11 
ROOT
HETATM    1  C   UNL     1      22.075  48.674  49.108  1.00  0.00     0.254 C 
HETATM    2  N   UNL     1      21.376  49.722  49.664  1.00  0.00    -0.356 N 
HETATM    3  O   UNL     1      21.523  47.654  48.705  1.00  0.00    -0.268 OA
HETATM    4  H   UNL     1      21.931  50.472  50.068  1.00  0.00     0.162 HD
ENDROOT
BRANCH   2   5
HETATM    5  C   UNL     1      19.957  49.619  49.944  1.00  0.00     0.136 C 
BRANCH   5   6
HETATM    6  C   UNL     1      19.042  50.494  49.037  1.00  0.00    -0.004 C 
HETATM    7  C   UNL     1      18.621  51.787  49.774  1.00  0.00     0.021 C 
HETATM    8  C   UNL     1      19.844  50.923  47.784  1.00  0.00     0.021 C 
BRANCH   6   9
HETATM    9  C   UNL     1      17.775  49.684  48.692  1.00  0.00    -0.046 A 
HETATM   10  C   UNL     1      16.645  50.328  48.156  1.00  0.00     0.027 A 
HETATM   11  C   UNL     1      15.510  49.587  47.852  1.00  0.00     0.116 A 
HETATM   12  N   UNL     1      15.410  48.258  48.040  1.00  0.00    -0.273 NA
HETATM   13  C   UNL     1      16.492  47.647  48.558  1.00  0.00     0.116 A 
HETATM   14  C   UNL     1      17.672  48.301  48.894  1.00  0.00     0.027 A 
ENDBRANCH   6   9
ENDBRANCH   5   6
ENDBRANCH   2   5
BRANCH   1  15
HETATM   15  C   UNL     1      23.566  48.810  49.030  1.00  0.00     0.065 A 
HETATM   16  C   UNL     1      24.242  49.759  48.248  1.00  0.00     0.081 A 
HETATM   17  C   UNL     1      25.642  49.821  48.254  1.00  0.00     0.044 A 
HETATM   18  C   UNL     1      26.390  48.931  49.035  1.00  0.00    -0.059 A 
HETATM   19  C   UNL     1      27.889  49.010  49.076  1.00  0.00     0.048 C 
HETATM   20  C   UNL     1      25.721  47.988  49.821  1.00  0.00     0.008 A 
HETATM   21  C   UNL     1      24.325  47.927  49.814  1.00  0.00     0.020 A 
BRANCH  16  22
HETATM   22  O   UNL     1      23.554  50.657  47.470  1.00  0.00    -0.360 OA
HETATM   23  H   UNL     1      23.520  50.316  46.559  1.00  0.00     0.217 HD
ENDBRANCH  16  22
ENDBRANCH   1  15
TORSDOF 5
ENDMDL
MODEL 7
REMARK VINA RESULT:      -7.6      2.900      7.634
REMARK  5 active torsions:
REMARK  status: ('A' for Active; 'I' for Inactive)
REMARK    1  A    between atoms: C_4  and  O_5 
REMARK    2  A    between atoms: C_6  and  C_7 
REMARK       I    between atoms: C_7  and  N_8 
REMARK    3  A    between atoms: N_8  and  C_9 
REMARK    4  A    between atoms: C_9  and  C_10 
REMARK    5  A    between atoms: C_10  and  C_11 
ROOT
HETATM    1  C   UNL     1      25.772  48.038  49.490  1.00  0.00     0.254 C 
HETATM    2  N   UNL     1      25.587  46.704  49.776  1.00  0.00    -0.356 N 
HETATM    3  O   UNL     1      26.858  48.596  49.624  1.00  0.00    -0.268 OA
HETATM    4  H   UNL     1      24.630  46.362  49.738  1.00  0.00     0.162 HD
ENDROOT
BRANCH   2   5
HETATM    5  C   UNL     1      26.630  45.914  50.399  1.00  0.00     0.136 C 
BRANCH   5   6
HETATM    6  C   UNL     1      26.167  45.046  51.606  1.00  0.00    -0.004 C 
HETATM    7  C   UNL     1      24.638  44.814  51.556  1.00  0.00     0.021 C 
HETATM    8  C   UNL     1      26.842  43.656  51.511  1.00  0.00     0.021 C 
BRANCH   6   9
HETATM    9  C   UNL     1      26.513  45.795  52.910  1.00  0.00    -0.046 A 
HETATM   10  C   UNL     1      25.851  46.993  53.238  1.00  0.00     0.027 A 
HETATM   11  C   UNL     1      26.174  47.658  54.414  1.00  0.00     0.116 A 
HETATM   12  N   UNL     1      27.102  47.227  55.288  1.00  0.00    -0.273 NA
HETATM   13  C   UNL     1      27.737  46.083  54.968  1.00  0.00     0.116 A 
HETATM   14  C   UNL     1      27.484  45.347  53.815  1.00  0.00     0.027 A 
ENDBRANCH   6   9
ENDBRANCH   5   6
ENDBRANCH   2   5
BRANCH   1  15
HETATM   15  C   UNL     1      24.576  48.810  49.019  1.00  0.00     0.065 A 
HETATM   16  C   UNL     1      24.614  49.848  48.077  1.00  0.00     0.081 A 
HETATM   17  C   UNL     1      23.436  50.500  47.686  1.00  0.00     0.044 A 
HETATM   18  C   UNL     1      22.202  50.131  48.236  1.00  0.00    -0.059 A 
HETATM   19  C   UNL     1      20.931  50.799  47.800  1.00  0.00     0.048 C 
HETATM   20  C   UNL     1      22.159  49.093  49.171  1.00  0.00     0.008 A 
HETATM   21  C   UNL     1      23.333  48.443  49.560  1.00  0.00     0.020 A 
BRANCH  16  22
HETATM   22  O   UNL     1      25.797  50.244  47.505  1.00  0.00    -0.360 OA
HETATM   23  H   UNL     1      25.931  51.190  47.688  1.00  0.00     0.217 HD
ENDBRANCH  16  22
ENDBRANCH   1  15
TORSDOF 5
ENDMDL
MODEL 8
REMARK VINA RESULT:      -7.5      1.788      2.955
REMARK  5 active torsions:
REMARK  status: ('A' for Active; 'I' for Inactive)
REMARK    1  A    between atoms: C_4  and  O_5 
REMARK    2  A    between atoms: C_6  and  C_7 
REMARK       I    between atoms: C_7  and  N_8 
REMARK    3  A    between atoms: N_8  and  C_9 
REMARK    4  A    between atoms: C_9  and  C_10 
REMARK    5  A    between atoms: C_10  and  C_11 
ROOT
HETATM    1  C   UNL     1      26.810  44.713  53.236  1.00  0.00     0.254 C 
HETATM    2  N   UNL     1      26.686  45.911  52.567  1.00  0.00    -0.356 N 
HETATM    3  O   UNL     1      25.967  43.825  53.157  1.00  0.00    -0.268 OA
HETATM    4  H   UNL     1      27.379  46.623  52.782  1.00  0.00     0.162 HD
ENDROOT
BRANCH   2   5
HETATM    5  C   UNL     1      25.475  46.251  51.846  1.00  0.00     0.136 C 
BRANCH   5   6
HETATM    6  C   UNL     1      25.679  46.594  50.341  1.00  0.00    -0.004 C 
HETATM    7  C   UNL     1      26.499  47.897  50.186  1.00  0.00     0.021 C 
HETATM    8  C   UNL     1      26.496  45.460  49.676  1.00  0.00     0.021 C 
BRANCH   6   9
HETATM    9  C   UNL     1      24.294  46.799  49.692  1.00  0.00    -0.046 A 
HETATM   10  C   UNL     1      23.585  45.702  49.170  1.00  0.00     0.027 A 
HETATM   11  C   UNL     1      22.341  45.901  48.587  1.00  0.00     0.116 A 
HETATM   12  N   UNL     1      21.745  47.104  48.483  1.00  0.00    -0.273 NA
HETATM   13  C   UNL     1      22.430  48.152  48.979  1.00  0.00     0.116 A 
HETATM   14  C   UNL     1      23.680  48.053  49.580  1.00  0.00     0.027 A 
ENDBRANCH   6   9
ENDBRANCH   5   6
ENDBRANCH   2   5
BRANCH   1  15
HETATM   15  C   UNL     1      28.021  44.535  54.100  1.00  0.00     0.065 A 
HETATM   16  C   UNL     1      28.483  45.474  55.035  1.00  0.00     0.081 A 
HETATM   17  C   UNL     1      29.618  45.208  55.813  1.00  0.00     0.044 A 
HETATM   18  C   UNL     1      30.317  44.004  55.663  1.00  0.00    -0.059 A 
HETATM   19  C   UNL     1      31.515  43.694  56.513  1.00  0.00     0.048 C 
HETATM   20  C   UNL     1      29.858  43.062  54.737  1.00  0.00     0.008 A 
HETATM   21  C   UNL     1      28.726  43.328  53.963  1.00  0.00     0.020 A 
BRANCH  16  22
HETATM   22  O   UNL     1      27.830  46.666  55.223  1.00  0.00    -0.360 OA
HETATM   23  H   UNL     1      28.380  47.237  55.788  1.00  0.00     0.217 HD
ENDBRANCH  16  22
ENDBRANCH   1  15
TORSDOF 5
ENDMDL
MODEL 9
REMARK VINA RESULT:      -7.4      1.837      3.310
REMARK  5 active torsions:
REMARK  status: ('A' for Active; 'I' for Inactive)
REMARK    1  A    between atoms: C_4  and  O_5 
REMARK    2  A    between atoms: C_6  and  C_7 
REMARK       I    between atoms: C_7  and  N_8 
REMARK    3  A    between atoms: N_8  and  C_9 
REMARK    4  A    between atoms: C_9  and  C_10 
REMARK    5  A    between atoms: C_10  and  C_11 
ROOT
HETATM    1  C   UNL     1      28.618  43.025  52.991  1.00  0.00     0.254 C 
HETATM    2  N   UNL     1      28.151  43.732  51.906  1.00  0.00    -0.356 N 
HETATM    3  O   UNL     1      28.656  41.797  53.010  1.00  0.00    -0.268 OA
HETATM    4  H   UNL     1      28.056  44.737  52.028  1.00  0.00     0.162 HD
ENDROOT
BRANCH   2   5
HETATM    5  C   UNL     1      27.534  43.063  50.777  1.00  0.00     0.136 C 
BRANCH   5   6
HETATM    6  C   UNL     1      26.063  43.483  50.487  1.00  0.00    -0.004 C 
HETATM    7  C   UNL     1      25.627  43.005  49.081  1.00  0.00     0.021 C 
HETATM    8  C   UNL     1      25.134  42.789  51.513  1.00  0.00     0.021 C 
BRANCH   6   9
HETATM    9  C   UNL     1      25.972  45.023  50.539  1.00  0.00    -0.046 A 
HETATM   10  C   UNL     1      26.733  45.808  49.654  1.00  0.00     0.027 A 
HETATM   11  C   UNL     1      26.644  47.193  49.713  1.00  0.00     0.116 A 
HETATM   12  N   UNL     1      25.859  47.857  50.581  1.00  0.00    -0.273 NA
HETATM   13  C   UNL     1      25.137  47.101  51.430  1.00  0.00     0.116 A 
HETATM   14  C   UNL     1      25.159  45.711  51.448  1.00  0.00     0.027 A 
ENDBRANCH   6   9
ENDBRANCH   5   6
ENDBRANCH   2   5
BRANCH   1  15
HETATM   15  C   UNL     1      29.067  43.816  54.182  1.00  0.00     0.065 A 
HETATM   16  C   UNL     1      28.406  44.945  54.688  1.00  0.00     0.081 A 
HETATM   17  C   UNL     1      28.894  45.610  55.821  1.00  0.00     0.044 A 
HETATM   18  C   UNL     1      30.056  45.162  56.463  1.00  0.00    -0.059 A 
HETATM   19  C   UNL     1      30.569  45.846  57.697  1.00  0.00     0.048 C 
HETATM   20  C   UNL     1      30.714  44.033  55.967  1.00  0.00     0.008 A 
HETATM   21  C   UNL     1      30.227  43.371  54.837  1.00  0.00     0.020 A 
BRANCH  16  22
HETATM   22  O   UNL     1      27.261  45.420  54.098  1.00  0.00    -0.360 OA
HETATM   23  H   UNL     1      27.490  45.787  53.226  1.00  0.00     0.217 HD
ENDBRANCH  16  22
ENDBRANCH   1  15
TORSDOF 5
ENDMDL
MODEL 10
REMARK VINA RESULT:      -7.3      2.650      7.373
REMARK  5 active torsions:
REMARK  status: ('A' for Active; 'I' for Inactive)
REMARK    1  A    between atoms: C_4  and  O_5 
REMARK    2  A    between atoms: C_6  and  C_7 
REMARK       I    between atoms: C_7  and  N_8 
REMARK    3  A    between atoms: N_8  and  C_9 
REMARK    4  A    between atoms: C_9  and  C_10 
REMARK    5  A    between atoms: C_10  and  C_11 
ROOT
HETATM    1  C   UNL     1      25.555  44.915  52.662  1.00  0.00     0.254 C 
HETATM    2  N   UNL     1      26.367  43.807  52.569  1.00  0.00    -0.356 N 
HETATM    3  O   UNL     1      25.448  45.568  53.696  1.00  0.00    -0.268 OA
HETATM    4  H   UNL     1      26.304  43.271  51.707  1.00  0.00     0.162 HD
ENDROOT
BRANCH   2   5
HETATM    5  C   UNL     1      27.030  43.257  53.735  1.00  0.00     0.136 C 
BRANCH   5   6
HETATM    6  C   UNL     1      28.567  43.053  53.584  1.00  0.00    -0.004 C 
HETATM    7  C   UNL     1      28.941  41.565  53.777  1.00  0.00     0.021 C 
HETATM    8  C   UNL     1      28.983  43.446  52.146  1.00  0.00     0.021 C 
BRANCH   6   9
HETATM    9  C   UNL     1      29.281  43.889  54.667  1.00  0.00    -0.046 A 
HETATM   10  C   UNL     1      30.434  43.393  55.301  1.00  0.00     0.027 A 
HETATM   11  C   UNL     1      31.066  44.154  56.276  1.00  0.00     0.116 A 
HETATM   12  N   UNL     1      30.641  45.370  56.669  1.00  0.00    -0.273 NA
HETATM   13  C   UNL     1      29.534  45.839  56.063  1.00  0.00     0.116 A 
HETATM   14  C   UNL     1      28.833  45.151  55.079  1.00  0.00     0.027 A 
ENDBRANCH   6   9
ENDBRANCH   5   6
ENDBRANCH   2   5
BRANCH   1  15
HETATM   15  C   UNL     1      24.772  45.293  51.442  1.00  0.00     0.065 A 
HETATM   16  C   UNL     1      23.937  44.423  50.724  1.00  0.00     0.081 A 
HETATM   17  C   UNL     1      23.229  44.875  49.603  1.00  0.00     0.044 A 
HETATM   18  C   UNL     1      23.349  46.203  49.173  1.00  0.00    -0.059 A 
HETATM   19  C   UNL     1      22.570  46.707  47.994  1.00  0.00     0.048 C 
HETATM   20  C   UNL     1      24.175  47.076  49.889  1.00  0.00     0.008 A 
HETATM   21  C   UNL     1      24.880  46.624  51.007  1.00  0.00     0.020 A 
BRANCH  16  22
HETATM   22  O   UNL     1      23.781  43.114  51.108  1.00  0.00    -0.360 OA
HETATM   23  H   UNL     1      22.881  42.826  50.875  1.00  0.00     0.217 HD
ENDBRANCH  16  22
ENDBRANCH   1  15
TORSDOF 5
ENDMDL
