MODEL 1
REMARK VINA RESULT:     -10.3      0.000      0.000
REMARK  5 active torsions:
REMARK  status: ('A' for Active; 'I' for Inactive)
REMARK    1  A    between atoms: C_7  and  C_8 
REMARK    2  A    between atoms: C_16  and  C_17 
REMARK    3  A    between atoms: C_19  and  O_20 
REMARK    4  A    between atoms: C_24  and  C_25 
REMARK       I    between atoms: C_25  and  N_26 
REMARK    5  A    between atoms: N_26  and  C_27 
ROOT
HETATM    1  C   UNL     1      25.497  40.927  49.239  1.00  0.00     0.070 C 
HETATM    2  C   UNL     1      25.856  42.037  50.197  1.00  0.00     0.037 C 
HETATM    3  N   UNL     1      27.096  41.917  50.823  1.00  0.00    -0.192 N 
HETATM    4  C   UNL     1      27.459  42.685  51.869  1.00  0.00     0.726 A 
HETATM    5  N   UNL     1      26.679  43.750  52.213  1.00  0.00    -0.083 N 
HETATM    6  N   UNL     1      27.148  44.382  53.304  1.00  0.00    -0.135 NA
HETATM    7  C   UNL     1      28.247  43.653  53.576  1.00  0.00     0.200 A 
HETATM    8  N   UNL     1      28.470  42.611  52.694  1.00  0.00    -0.041 NA
HETATM    9  C   UNL     1      25.499  44.177  51.458  1.00  0.00     0.202 C 
HETATM   10  C   UNL     1      25.055  43.098  50.474  1.00  0.00     0.062 C 
HETATM   11  H   UNL     1      27.608  41.050  50.672  1.00  0.00     0.184 HD
ENDROOT
BRANCH  10  12
HETATM   12  C   UNL     1      23.638  43.123  50.004  1.00  0.00     0.256 C 
HETATM   13  N   UNL     1      23.446  43.769  48.803  1.00  0.00    -0.323 N 
HETATM   14  H   UNL     1      24.253  44.138  48.318  1.00  0.00     0.169 HD
HETATM   15  O   UNL     1      22.770  42.620  50.708  1.00  0.00    -0.267 OA
BRANCH  13  16
HETATM   16  C   UNL     1      22.221  43.995  48.138  1.00  0.00     0.035 A 
HETATM   17  C   UNL     1      21.823  43.328  46.979  1.00  0.00     0.029 A 
HETATM   18  C   UNL     1      20.589  43.617  46.383  1.00  0.00     0.002 A 
HETATM   19  C   UNL     1      19.742  44.566  46.949  1.00  0.00     0.000 A 
HETATM   20  C   UNL     1      20.128  45.235  48.106  1.00  0.00     0.002 A 
HETATM   21  C   UNL     1      21.365  44.957  48.694  1.00  0.00     0.029 A 
ENDBRANCH  13  16
ENDBRANCH  10  12
BRANCH   9  22
HETATM   22  C   UNL     1      25.813  45.517  50.790  1.00  0.00    -0.025 A 
HETATM   23  C   UNL     1      26.964  45.696  49.999  1.00  0.00     0.046 A 
HETATM   24  C   UNL     1      27.207  46.925  49.392  1.00  0.00     0.066 A 
HETATM   25  C   UNL     1      26.333  47.990  49.563  1.00  0.00     0.036 A 
HETATM   26  C   UNL     1      25.202  47.834  50.361  1.00  0.00     0.003 A 
HETATM   27  C   UNL     1      24.942  46.606  50.972  1.00  0.00     0.010 A 
BRANCH  24  28
HETATM   28  O   UNL     1      28.304  47.127  48.609  1.00  0.00    -0.361 OA
HETATM   29  H   UNL     1      28.046  47.643  47.826  1.00  0.00     0.217 HD
ENDBRANCH  24  28
ENDBRANCH   9  22
BRANCH   7  30
HETATM   30  C   UNL     1      29.170  43.994  54.649  1.00  0.00     0.036 A 
HETATM   31  C   UNL     1      29.152  45.229  55.314  1.00  0.00     0.048 A 
HETATM   32 CL   UNL     1      28.076  46.517  54.886  1.00  0.00    -0.083 Cl
HETATM   33  C   UNL     1      30.063  45.486  56.347  1.00  0.00     0.025 A 
HETATM   34  C   UNL     1      30.999  44.522  56.725  1.00  0.00     0.002 A 
HETATM   35  C   UNL     1      31.033  43.296  56.067  1.00  0.00     0.001 A 
HETATM   36  C   UNL     1      30.128  43.036  55.037  1.00  0.00     0.017 A 
ENDBRANCH   7  30
TORSDOF 5
ENDMDL
MODEL 2
REMARK VINA RESULT:     -10.1      2.304      3.223
REMARK  5 active torsions:
REMARK  status: ('A' for Active; 'I' for Inactive)
REMARK    1  A    between atoms: C_7  and  C_8 
REMARK    2  A    between atoms: C_16  and  C_17 
REMARK    3  A    between atoms: C_19  and  O_20 
REMARK    4  A    between atoms: C_24  and  C_25 
REMARK       I    between atoms: C_25  and  N_26 
REMARK    5  A    between atoms: N_26  and  C_27 
ROOT
HETATM    1  C   UNL     1      23.414  43.689  47.729  1.00  0.00     0.070 C 
HETATM    2  C   UNL     1      23.983  44.646  48.748  1.00  0.00     0.037 C 
HETATM    3  N   UNL     1      25.050  44.161  49.502  1.00  0.00    -0.192 N 
HETATM    4  C   UNL     1      25.509  44.792  50.601  1.00  0.00     0.726 A 
HETATM    5  N   UNL     1      25.054  46.046  50.886  1.00  0.00    -0.083 N 
HETATM    6  N   UNL     1      25.567  46.515  52.037  1.00  0.00    -0.135 NA
HETATM    7  C   UNL     1      26.357  45.490  52.408  1.00  0.00     0.200 A 
HETATM    8  N   UNL     1      26.352  44.422  51.529  1.00  0.00    -0.041 NA
HETATM    9  C   UNL     1      24.150  46.804  50.018  1.00  0.00     0.202 C 
HETATM   10  C   UNL     1      23.514  45.902  48.964  1.00  0.00     0.062 C 
HETATM   11  H   UNL     1      25.291  43.178  49.386  1.00  0.00     0.184 HD
ENDROOT
BRANCH  10  12
HETATM   12  C   UNL     1      22.233  46.352  48.343  1.00  0.00     0.256 C 
HETATM   13  N   UNL     1      21.111  46.106  49.103  1.00  0.00    -0.323 N 
HETATM   14  H   UNL     1      21.229  45.686  50.016  1.00  0.00     0.169 HD
HETATM   15  O   UNL     1      22.260  46.856  47.225  1.00  0.00    -0.267 OA
BRANCH  13  16
HETATM   16  C   UNL     1      19.768  46.370  48.758  1.00  0.00     0.035 A 
HETATM   17  C   UNL     1      18.961  45.499  48.024  1.00  0.00     0.029 A 
HETATM   18  C   UNL     1      17.638  45.843  47.724  1.00  0.00     0.002 A 
HETATM   19  C   UNL     1      17.109  47.053  48.165  1.00  0.00     0.000 A 
HETATM   20  C   UNL     1      17.904  47.928  48.899  1.00  0.00     0.002 A 
HETATM   21  C   UNL     1      19.229  47.591  49.188  1.00  0.00     0.029 A 
ENDBRANCH  13  16
ENDBRANCH  10  12
BRANCH   9  22
HETATM   22  C   UNL     1      24.927  47.980  49.423  1.00  0.00    -0.025 A 
HETATM   23  C   UNL     1      26.328  48.072  49.532  1.00  0.00     0.046 A 
HETATM   24  C   UNL     1      27.001  49.148  48.962  1.00  0.00     0.066 A 
HETATM   25  C   UNL     1      26.310  50.148  48.292  1.00  0.00     0.036 A 
HETATM   26  C   UNL     1      24.922  50.082  48.196  1.00  0.00     0.003 A 
HETATM   27  C   UNL     1      24.232  49.006  48.757  1.00  0.00     0.010 A 
BRANCH  24  28
HETATM   28  O   UNL     1      28.358  49.259  49.038  1.00  0.00    -0.361 OA
HETATM   29  H   UNL     1      28.676  48.747  49.801  1.00  0.00     0.217 HD
ENDBRANCH  24  28
ENDBRANCH   9  22
BRANCH   7  30
HETATM   30  C   UNL     1      27.214  45.544  53.584  1.00  0.00     0.036 A 
HETATM   31  C   UNL     1      27.117  46.548  54.558  1.00  0.00     0.048 A 
HETATM   32 CL   UNL     1      26.016  47.879  54.438  1.00  0.00    -0.083 Cl
HETATM   33  C   UNL     1      27.967  46.533  55.672  1.00  0.00     0.025 A 
HETATM   34  C   UNL     1      28.919  45.523  55.825  1.00  0.00     0.002 A 
HETATM   35  C   UNL     1      29.031  44.527  54.861  1.00  0.00     0.001 A 
HETATM   36  C   UNL     1      28.187  44.538  53.750  1.00  0.00     0.017 A 
ENDBRANCH   7  30
TORSDOF 5
ENDMDL
MODEL 3
REMARK VINA RESULT:      -9.8      4.302      9.501
REMARK  5 active torsions:
REMARK  status: ('A' for Active; 'I' for Inactive)
REMARK    1  A    between atoms: C_7  and  C_8 
REMARK    2  A    between atoms: C_16  and  C_17 
REMARK    3  A    between atoms: C_19  and  O_20 
REMARK    4  A    between atoms: C_24  and  C_25 
REMARK       I    between atoms: C_25  and  N_26 
REMARK    5  A    between atoms: N_26  and  C_27 
ROOT
HETATM    1  C   UNL     1      27.324  48.679  49.176  1.00  0.00     0.070 C 
HETATM    2  C   UNL     1      25.831  48.458  49.171  1.00  0.00     0.037 C 
HETATM    3  N   UNL     1      25.089  49.362  48.411  1.00  0.00    -0.192 N 
HETATM    4  C   UNL     1      23.747  49.449  48.493  1.00  0.00     0.726 A 
HETATM    5  N   UNL     1      23.060  48.497  49.188  1.00  0.00    -0.083 N 
HETATM    6  N   UNL     1      21.740  48.753  49.217  1.00  0.00    -0.135 NA
HETATM    7  C   UNL     1      21.678  49.887  48.493  1.00  0.00     0.200 A 
HETATM    8  N   UNL     1      22.901  50.326  48.020  1.00  0.00    -0.041 NA
HETATM    9  C   UNL     1      23.683  47.317  49.792  1.00  0.00     0.202 C 
HETATM   10  C   UNL     1      25.200  47.467  49.853  1.00  0.00     0.062 C 
HETATM   11  H   UNL     1      25.591  50.153  48.013  1.00  0.00     0.184 HD
ENDROOT
BRANCH  10  12
HETATM   12  C   UNL     1      25.943  46.644  50.854  1.00  0.00     0.256 C 
HETATM   13  N   UNL     1      25.887  47.123  52.143  1.00  0.00    -0.323 N 
HETATM   14  H   UNL     1      25.337  47.952  52.328  1.00  0.00     0.169 HD
HETATM   15  O   UNL     1      26.558  45.655  50.470  1.00  0.00    -0.267 OA
BRANCH  13  16
HETATM   16  C   UNL     1      26.529  46.592  53.284  1.00  0.00     0.035 A 
HETATM   17  C   UNL     1      26.516  45.240  53.631  1.00  0.00     0.029 A 
HETATM   18  C   UNL     1      27.178  44.799  54.783  1.00  0.00     0.002 A 
HETATM   19  C   UNL     1      27.865  45.704  55.588  1.00  0.00     0.000 A 
HETATM   20  C   UNL     1      27.886  47.053  55.250  1.00  0.00     0.002 A 
HETATM   21  C   UNL     1      27.215  47.496  54.107  1.00  0.00     0.029 A 
ENDBRANCH  13  16
ENDBRANCH  10  12
BRANCH   9  22
HETATM   22  C   UNL     1      23.226  46.080  49.017  1.00  0.00    -0.025 A 
HETATM   23  C   UNL     1      23.178  44.808  49.619  1.00  0.00     0.046 A 
HETATM   24  C   UNL     1      22.739  43.708  48.887  1.00  0.00     0.066 A 
HETATM   25  C   UNL     1      22.356  43.842  47.559  1.00  0.00     0.036 A 
HETATM   26  C   UNL     1      22.420  45.090  46.945  1.00  0.00     0.003 A 
HETATM   27  C   UNL     1      22.853  46.204  47.667  1.00  0.00     0.010 A 
BRANCH  24  28
HETATM   28  O   UNL     1      22.666  42.466  49.444  1.00  0.00    -0.361 OA
HETATM   29  H   UNL     1      22.766  42.544  50.408  1.00  0.00     0.217 HD
ENDBRANCH  24  28
ENDBRANCH   9  22
BRANCH   7  30
HETATM   30  C   UNL     1      20.419  50.538  48.160  1.00  0.00     0.036 A 
HETATM   31  C   UNL     1      19.431  49.937  47.366  1.00  0.00     0.048 A 
HETATM   32 CL   UNL     1      19.625  48.380  46.633  1.00  0.00    -0.083 Cl
HETATM   33  C   UNL     1      18.236  50.617  47.094  1.00  0.00     0.025 A 
HETATM   34  C   UNL     1      18.016  51.898  47.604  1.00  0.00     0.002 A 
HETATM   35  C   UNL     1      18.992  52.509  48.385  1.00  0.00     0.001 A 
HETATM   36  C   UNL     1      20.184  51.835  48.658  1.00  0.00     0.017 A 
ENDBRANCH   7  30
TORSDOF 5
ENDMDL
MODEL 4
REMARK VINA RESULT:      -9.6      5.849      9.294
REMARK  5 active torsions:
REMARK  status: ('A' for Active; 'I' for Inactive)
REMARK    1  A    between atoms: C_7  and  C_8 
REMARK    2  A    between atoms: C_16  and  C_17 
REMARK    3  A    between atoms: C_19  and  O_20 
REMARK    4  A    between atoms: C_24  and  C_25 
REMARK       I    between atoms: C_25  and  N_26 
REMARK    5  A    between atoms: N_26  and  C_27 
ROOT
HETATM    1  C   UNL     1      18.186  51.733  49.604  1.00  0.00     0.070 C 
HETATM    2  C   UNL     1      19.269  50.849  49.034  1.00  0.00     0.037 C 
HETATM    3  N   UNL     1      20.432  50.749  49.797  1.00  0.00    -0.192 N 
HETATM    4  C   UNL     1      21.567  50.201  49.321  1.00  0.00     0.726 A 
HETATM    5  N   UNL     1      21.537  49.542  48.127  1.00  0.00    -0.083 N 
HETATM    6  N   UNL     1      22.756  49.099  47.769  1.00  0.00    -0.135 NA
HETATM    7  C   UNL     1      23.500  49.511  48.813  1.00  0.00     0.200 A 
HETATM    8  N   UNL     1      22.786  50.178  49.792  1.00  0.00    -0.041 NA
HETATM    9  C   UNL     1      20.317  49.308  47.352  1.00  0.00     0.202 C 
HETATM   10  C   UNL     1      19.171  50.182  47.855  1.00  0.00     0.062 C 
HETATM   11  H   UNL     1      20.504  51.355  50.612  1.00  0.00     0.184 HD
ENDROOT
BRANCH  10  12
HETATM   12  C   UNL     1      18.043  50.461  46.916  1.00  0.00     0.256 C 
HETATM   13  N   UNL     1      18.282  51.483  46.024  1.00  0.00    -0.323 N 
HETATM   14  H   UNL     1      19.186  51.936  46.039  1.00  0.00     0.169 HD
HETATM   15  O   UNL     1      17.009  49.812  47.022  1.00  0.00    -0.267 OA
BRANCH  13  16
HETATM   16  C   UNL     1      17.391  52.003  45.059  1.00  0.00     0.035 A 
HETATM   17  C   UNL     1      16.344  52.879  45.350  1.00  0.00     0.029 A 
HETATM   18  C   UNL     1      15.506  53.344  44.330  1.00  0.00     0.002 A 
HETATM   19  C   UNL     1      15.716  52.946  43.012  1.00  0.00     0.000 A 
HETATM   20  C   UNL     1      16.758  52.075  42.711  1.00  0.00     0.002 A 
HETATM   21  C   UNL     1      17.588  51.600  43.731  1.00  0.00     0.029 A 
ENDBRANCH  13  16
ENDBRANCH  10  12
BRANCH   9  22
HETATM   22  C   UNL     1      20.001  47.812  47.389  1.00  0.00    -0.025 A 
HETATM   23  C   UNL     1      20.191  47.045  48.555  1.00  0.00     0.046 A 
HETATM   24  C   UNL     1      19.876  45.689  48.555  1.00  0.00     0.066 A 
HETATM   25  C   UNL     1      19.383  45.071  47.413  1.00  0.00     0.036 A 
HETATM   26  C   UNL     1      19.212  45.813  46.247  1.00  0.00     0.003 A 
HETATM   27  C   UNL     1      19.518  47.175  46.232  1.00  0.00     0.010 A 
BRANCH  24  28
HETATM   28  O   UNL     1      20.035  44.923  49.671  1.00  0.00    -0.361 OA
HETATM   29  H   UNL     1      20.857  45.183  50.121  1.00  0.00     0.217 HD
ENDBRANCH  24  28
ENDBRANCH   9  22
BRANCH   7  30
HETATM   30  C   UNL     1      24.916  49.196  48.941  1.00  0.00     0.036 A 
HETATM   31  C   UNL     1      25.390  48.031  49.562  1.00  0.00     0.048 A 
HETATM   32 CL   UNL     1      24.348  46.868  50.311  1.00  0.00    -0.083 Cl
HETATM   33  C   UNL     1      26.768  47.785  49.641  1.00  0.00     0.025 A 
HETATM   34  C   UNL     1      27.682  48.694  49.106  1.00  0.00     0.002 A 
HETATM   35  C   UNL     1      27.226  49.858  48.496  1.00  0.00     0.001 A 
HETATM   36  C   UNL     1      25.854  50.108  48.417  1.00  0.00     0.017 A 
ENDBRANCH   7  30
TORSDOF 5
ENDMDL
MODEL 5
REMARK VINA RESULT:      -9.0      3.249      7.479
REMARK  5 active torsions:
REMARK  status: ('A' for Active; 'I' for Inactive)
REMARK    1  A    between atoms: C_7  and  C_8 
REMARK    2  A    between atoms: C_16  and  C_17 
REMARK    3  A    between atoms: C_19  and  O_20 
REMARK    4  A    between atoms: C_24  and  C_25 
REMARK       I    between atoms: C_25  and  N_26 
REMARK    5  A    between atoms: N_26  and  C_27 
ROOT
HETATM    1  C   UNL     1      23.636  41.133  48.405  1.00  0.00     0.070 C 
HETATM    2  C   UNL     1      24.121  42.491  48.848  1.00  0.00     0.037 C 
HETATM    3  N   UNL     1      23.167  43.507  48.837  1.00  0.00    -0.192 N 
HETATM    4  C   UNL     1      23.489  44.809  48.971  1.00  0.00     0.726 A 
HETATM    5  N   UNL     1      24.763  45.144  49.326  1.00  0.00    -0.083 N 
HETATM    6  N   UNL     1      24.936  46.477  49.368  1.00  0.00    -0.135 NA
HETATM    7  C   UNL     1      23.704  46.911  49.040  1.00  0.00     0.200 A 
HETATM    8  N   UNL     1      22.789  45.900  48.808  1.00  0.00    -0.041 NA
HETATM    9  C   UNL     1      25.802  44.168  49.662  1.00  0.00     0.202 C 
HETATM   10  C   UNL     1      25.397  42.763  49.229  1.00  0.00     0.062 C 
HETATM   11  H   UNL     1      22.258  43.284  48.435  1.00  0.00     0.184 HD
ENDROOT
BRANCH  10  12
HETATM   12  C   UNL     1      26.481  41.757  49.022  1.00  0.00     0.256 C 
HETATM   13  N   UNL     1      26.506  40.743  49.953  1.00  0.00    -0.323 N 
HETATM   14  H   UNL     1      25.792  40.726  50.669  1.00  0.00     0.169 HD
HETATM   15  O   UNL     1      27.267  41.915  48.095  1.00  0.00    -0.267 OA
BRANCH  13  16
HETATM   16  C   UNL     1      27.439  39.686  50.045  1.00  0.00     0.035 A 
HETATM   17  C   UNL     1      27.303  38.462  49.389  1.00  0.00     0.029 A 
HETATM   18  C   UNL     1      28.276  37.467  49.538  1.00  0.00     0.002 A 
HETATM   19  C   UNL     1      29.397  37.694  50.334  1.00  0.00     0.000 A 
HETATM   20  C   UNL     1      29.543  38.912  50.990  1.00  0.00     0.002 A 
HETATM   21  C   UNL     1      28.565  39.901  50.852  1.00  0.00     0.029 A 
ENDBRANCH  13  16
ENDBRANCH  10  12
BRANCH   9  22
HETATM   22  C   UNL     1      26.103  44.280  51.158  1.00  0.00    -0.025 A 
HETATM   23  C   UNL     1      25.076  44.267  52.122  1.00  0.00     0.046 A 
HETATM   24  C   UNL     1      25.390  44.353  53.475  1.00  0.00     0.066 A 
HETATM   25  C   UNL     1      26.709  44.465  53.895  1.00  0.00     0.036 A 
HETATM   26  C   UNL     1      27.733  44.502  52.952  1.00  0.00     0.003 A 
HETATM   27  C   UNL     1      27.434  44.411  51.591  1.00  0.00     0.010 A 
BRANCH  24  28
HETATM   28  O   UNL     1      24.421  44.328  54.433  1.00  0.00    -0.361 OA
HETATM   29  H   UNL     1      24.724  43.783  55.179  1.00  0.00     0.217 HD
ENDBRANCH  24  28
ENDBRANCH   9  22
BRANCH   7  30
HETATM   30  C   UNL     1      23.346  48.323  49.026  1.00  0.00     0.036 A 
HETATM   31  C   UNL     1      24.286  49.351  48.859  1.00  0.00     0.048 A 
HETATM   32 CL   UNL     1      25.988  49.063  48.723  1.00  0.00    -0.083 Cl
HETATM   33  C   UNL     1      23.870  50.689  48.844  1.00  0.00     0.025 A 
HETATM   34  C   UNL     1      22.521  51.015  48.996  1.00  0.00     0.002 A 
HETATM   35  C   UNL     1      21.581  50.005  49.171  1.00  0.00     0.001 A 
HETATM   36  C   UNL     1      21.990  48.671  49.188  1.00  0.00     0.017 A 
ENDBRANCH   7  30
TORSDOF 5
ENDMDL
MODEL 6
REMARK VINA RESULT:      -9.0      2.764      9.069
REMARK  5 active torsions:
REMARK  status: ('A' for Active; 'I' for Inactive)
REMARK    1  A    between atoms: C_7  and  C_8 
REMARK    2  A    between atoms: C_16  and  C_17 
REMARK    3  A    between atoms: C_19  and  O_20 
REMARK    4  A    between atoms: C_24  and  C_25 
REMARK       I    between atoms: C_25  and  N_26 
REMARK    5  A    between atoms: N_26  and  C_27 
ROOT
HETATM    1  C   UNL     1      25.959  47.226  50.971  1.00  0.00     0.070 C 
HETATM    2  C   UNL     1      24.975  46.203  50.457  1.00  0.00     0.037 C 
HETATM    3  N   UNL     1      24.083  46.656  49.486  1.00  0.00    -0.192 N 
HETATM    4  C   UNL     1      23.003  45.947  49.104  1.00  0.00     0.726 A 
HETATM    5  N   UNL     1      22.871  44.657  49.528  1.00  0.00    -0.083 N 
HETATM    6  N   UNL     1      21.720  44.106  49.104  1.00  0.00    -0.135 NA
HETATM    7  C   UNL     1      21.189  45.122  48.397  1.00  0.00     0.200 A 
HETATM    8  N   UNL     1      21.971  46.263  48.367  1.00  0.00    -0.041 NA
HETATM    9  C   UNL     1      23.884  43.947  50.313  1.00  0.00     0.202 C 
HETATM   10  C   UNL     1      24.913  44.916  50.888  1.00  0.00     0.062 C 
HETATM   11  H   UNL     1      24.092  47.653  49.280  1.00  0.00     0.184 HD
ENDROOT
BRANCH  10  12
HETATM   12  C   UNL     1      25.690  44.478  52.086  1.00  0.00     0.256 C 
HETATM   13  N   UNL     1      27.057  44.491  51.916  1.00  0.00    -0.323 N 
HETATM   14  H   UNL     1      27.431  44.819  51.036  1.00  0.00     0.169 HD
HETATM   15  O   UNL     1      25.083  44.116  53.088  1.00  0.00    -0.267 OA
BRANCH  13  16
HETATM   16  C   UNL     1      28.039  44.084  52.845  1.00  0.00     0.035 A 
HETATM   17  C   UNL     1      28.210  44.657  54.107  1.00  0.00     0.029 A 
HETATM   18  C   UNL     1      29.214  44.193  54.965  1.00  0.00     0.002 A 
HETATM   19  C   UNL     1      30.045  43.146  54.573  1.00  0.00     0.000 A 
HETATM   20  C   UNL     1      29.881  42.567  53.319  1.00  0.00     0.002 A 
HETATM   21  C   UNL     1      28.888  43.039  52.456  1.00  0.00     0.029 A 
ENDBRANCH  13  16
ENDBRANCH  10  12
BRANCH   9  22
HETATM   22  C   UNL     1      24.500  42.857  49.434  1.00  0.00    -0.025 A 
HETATM   23  C   UNL     1      25.861  42.880  49.075  1.00  0.00     0.046 A 
HETATM   24  C   UNL     1      26.390  41.861  48.288  1.00  0.00     0.066 A 
HETATM   25  C   UNL     1      25.590  40.819  47.837  1.00  0.00     0.036 A 
HETATM   26  C   UNL     1      24.237  40.797  48.166  1.00  0.00     0.003 A 
HETATM   27  C   UNL     1      23.693  41.808  48.959  1.00  0.00     0.010 A 
BRANCH  24  28
HETATM   28  O   UNL     1      27.707  41.846  47.935  1.00  0.00    -0.361 OA
HETATM   29  H   UNL     1      28.188  41.241  48.525  1.00  0.00     0.217 HD
ENDBRANCH  24  28
ENDBRANCH   9  22
BRANCH   7  30
HETATM   30  C   UNL     1      19.945  44.994  47.651  1.00  0.00     0.036 A 
HETATM   31  C   UNL     1      19.809  44.175  46.521  1.00  0.00     0.048 A 
HETATM   32 CL   UNL     1      21.124  43.277  45.840  1.00  0.00    -0.083 Cl
HETATM   33  C   UNL     1      18.578  44.090  45.856  1.00  0.00     0.025 A 
HETATM   34  C   UNL     1      17.476  44.819  46.308  1.00  0.00     0.002 A 
HETATM   35  C   UNL     1      17.601  45.642  47.422  1.00  0.00     0.001 A 
HETATM   36  C   UNL     1      18.825  45.730  48.086  1.00  0.00     0.017 A 
ENDBRANCH   7  30
TORSDOF 5
ENDMDL
MODEL 7
REMARK VINA RESULT:      -8.9      3.300      8.447
REMARK  5 active torsions:
REMARK  status: ('A' for Active; 'I' for Inactive)
REMARK    1  A    between atoms: C_7  and  C_8 
REMARK    2  A    between atoms: C_16  and  C_17 
REMARK    3  A    between atoms: C_19  and  O_20 
REMARK    4  A    between atoms: C_24  and  C_25 
REMARK       I    between atoms: C_25  and  N_26 
REMARK    5  A    between atoms: N_26  and  C_27 
ROOT
HETATM    1  C   UNL     1      27.969  40.458  53.688  1.00  0.00     0.070 C 
HETATM    2  C   UNL     1      27.648  41.163  52.393  1.00  0.00     0.037 C 
HETATM    3  N   UNL     1      26.839  40.456  51.504  1.00  0.00    -0.192 N 
HETATM    4  C   UNL     1      26.660  40.838  50.224  1.00  0.00     0.726 A 
HETATM    5  N   UNL     1      27.117  42.059  49.825  1.00  0.00    -0.083 N 
HETATM    6  N   UNL     1      26.906  42.268  48.514  1.00  0.00    -0.135 NA
HETATM    7  C   UNL     1      26.288  41.124  48.163  1.00  0.00     0.200 A 
HETATM    8  N   UNL     1      26.109  40.233  49.205  1.00  0.00    -0.041 NA
HETATM    9  C   UNL     1      27.725  43.039  50.728  1.00  0.00     0.202 C 
HETATM   10  C   UNL     1      28.100  42.401  52.062  1.00  0.00     0.062 C 
HETATM   11  H   UNL     1      26.621  39.491  51.745  1.00  0.00     0.184 HD
ENDROOT
BRANCH  10  12
HETATM   12  C   UNL     1      29.150  43.070  52.885  1.00  0.00     0.256 C 
HETATM   13  N   UNL     1      28.767  43.359  54.176  1.00  0.00    -0.323 N 
HETATM   14  H   UNL     1      27.845  43.076  54.481  1.00  0.00     0.169 HD
HETATM   15  O   UNL     1      30.228  43.340  52.367  1.00  0.00    -0.267 OA
BRANCH  13  16
HETATM   16  C   UNL     1      29.521  44.030  55.164  1.00  0.00     0.035 A 
HETATM   17  C   UNL     1      29.262  45.330  55.599  1.00  0.00     0.029 A 
HETATM   18  C   UNL     1      30.064  45.920  56.583  1.00  0.00     0.002 A 
HETATM   19  C   UNL     1      31.122  45.211  57.146  1.00  0.00     0.000 A 
HETATM   20  C   UNL     1      31.388  43.913  56.720  1.00  0.00     0.002 A 
HETATM   21  C   UNL     1      30.596  43.328  55.728  1.00  0.00     0.029 A 
ENDBRANCH  13  16
ENDBRANCH  10  12
BRANCH   9  22
HETATM   22  C   UNL     1      26.767  44.224  50.869  1.00  0.00    -0.025 A 
HETATM   23  C   UNL     1      26.960  45.420  50.151  1.00  0.00     0.046 A 
HETATM   24  C   UNL     1      26.058  46.470  50.292  1.00  0.00     0.066 A 
HETATM   25  C   UNL     1      24.967  46.363  51.145  1.00  0.00     0.036 A 
HETATM   26  C   UNL     1      24.777  45.195  51.879  1.00  0.00     0.003 A 
HETATM   27  C   UNL     1      25.670  44.131  51.744  1.00  0.00     0.010 A 
BRANCH  24  28
HETATM   28  O   UNL     1      26.208  47.635  49.600  1.00  0.00    -0.361 OA
HETATM   29  H   UNL     1      26.639  47.446  48.749  1.00  0.00     0.217 HD
ENDBRANCH  24  28
ENDBRANCH   9  22
BRANCH   7  30
HETATM   30  C   UNL     1      25.771  40.890  46.822  1.00  0.00     0.036 A 
HETATM   31  C   UNL     1      26.594  40.751  45.695  1.00  0.00     0.048 A 
HETATM   32 CL   UNL     1      28.317  40.911  45.757  1.00  0.00    -0.083 Cl
HETATM   33  C   UNL     1      26.029  40.515  44.434  1.00  0.00     0.025 A 
HETATM   34  C   UNL     1      24.644  40.420  44.284  1.00  0.00     0.002 A 
HETATM   35  C   UNL     1      23.816  40.567  45.392  1.00  0.00     0.001 A 
HETATM   36  C   UNL     1      24.375  40.802  46.650  1.00  0.00     0.017 A 
ENDBRANCH   7  30
TORSDOF 5
ENDMDL
MODEL 8
REMARK VINA RESULT:      -8.9      3.635      7.835
REMARK  5 active torsions:
REMARK  status: ('A' for Active; 'I' for Inactive)
REMARK    1  A    between atoms: C_7  and  C_8 
REMARK    2  A    between atoms: C_16  and  C_17 
REMARK    3  A    between atoms: C_19  and  O_20 
REMARK    4  A    between atoms: C_24  and  C_25 
REMARK       I    between atoms: C_25  and  N_26 
REMARK    5  A    between atoms: N_26  and  C_27 
ROOT
HETATM    1  C   UNL     1      28.408  40.803  53.394  1.00  0.00     0.070 C 
HETATM    2  C   UNL     1      27.943  41.234  52.024  1.00  0.00     0.037 C 
HETATM    3  N   UNL     1      27.800  40.213  51.086  1.00  0.00    -0.192 N 
HETATM    4  C   UNL     1      27.628  40.454  49.771  1.00  0.00     0.726 A 
HETATM    5  N   UNL     1      27.386  41.731  49.356  1.00  0.00    -0.083 N 
HETATM    6  N   UNL     1      27.287  41.812  48.017  1.00  0.00    -0.135 NA
HETATM    7  C   UNL     1      27.465  40.524  47.664  1.00  0.00     0.200 A 
HETATM    8  N   UNL     1      27.659  39.664  48.730  1.00  0.00    -0.041 NA
HETATM    9  C   UNL     1      27.210  42.866  50.264  1.00  0.00     0.202 C 
HETATM   10  C   UNL     1      27.677  42.520  51.675  1.00  0.00     0.062 C 
HETATM   11  H   UNL     1      28.121  39.286  51.359  1.00  0.00     0.184 HD
ENDROOT
BRANCH  10  12
HETATM   12  C   UNL     1      28.049  43.645  52.583  1.00  0.00     0.256 C 
HETATM   13  N   UNL     1      26.979  44.362  53.072  1.00  0.00    -0.323 N 
HETATM   14  H   UNL     1      26.045  44.067  52.822  1.00  0.00     0.169 HD
HETATM   15  O   UNL     1      29.235  43.869  52.796  1.00  0.00    -0.267 OA
BRANCH  13  16
HETATM   16  C   UNL     1      27.021  45.502  53.904  1.00  0.00     0.035 A 
HETATM   17  C   UNL     1      27.905  45.661  54.973  1.00  0.00     0.029 A 
HETATM   18  C   UNL     1      27.875  46.826  55.749  1.00  0.00     0.002 A 
HETATM   19  C   UNL     1      26.970  47.843  55.455  1.00  0.00     0.000 A 
HETATM   20  C   UNL     1      26.086  47.695  54.391  1.00  0.00     0.002 A 
HETATM   21  C   UNL     1      26.106  46.527  53.623  1.00  0.00     0.029 A 
ENDBRANCH  13  16
ENDBRANCH  10  12
BRANCH   9  22
HETATM   22  C   UNL     1      25.749  43.314  50.201  1.00  0.00    -0.025 A 
HETATM   23  C   UNL     1      25.398  44.661  49.984  1.00  0.00     0.046 A 
HETATM   24  C   UNL     1      24.057  45.027  49.914  1.00  0.00     0.066 A 
HETATM   25  C   UNL     1      23.050  44.083  50.069  1.00  0.00     0.036 A 
HETATM   26  C   UNL     1      23.383  42.752  50.306  1.00  0.00     0.003 A 
HETATM   27  C   UNL     1      24.724  42.367  50.373  1.00  0.00     0.010 A 
BRANCH  24  28
HETATM   28  O   UNL     1      23.684  46.319  49.691  1.00  0.00    -0.361 OA
HETATM   29  H   UNL     1      23.312  46.689  50.510  1.00  0.00     0.217 HD
ENDBRANCH  24  28
ENDBRANCH   9  22
BRANCH   7  30
HETATM   30  C   UNL     1      27.365  40.067  46.285  1.00  0.00     0.036 A 
HETATM   31  C   UNL     1      26.403  39.142  45.851  1.00  0.00     0.048 A 
HETATM   32 CL   UNL     1      25.271  38.385  46.919  1.00  0.00    -0.083 Cl
HETATM   33  C   UNL     1      26.357  38.754  44.505  1.00  0.00     0.025 A 
HETATM   34  C   UNL     1      27.265  39.278  43.583  1.00  0.00     0.002 A 
HETATM   35  C   UNL     1      28.229  40.189  44.003  1.00  0.00     0.001 A 
HETATM   36  C   UNL     1      28.280  40.578  45.343  1.00  0.00     0.017 A 
ENDBRANCH   7  30
TORSDOF 5
ENDMDL
MODEL 9
REMARK VINA RESULT:      -8.8      4.445      6.529
REMARK  5 active torsions:
REMARK  status: ('A' for Active; 'I' for Inactive)
REMARK    1  A    between atoms: C_7  and  C_8 
REMARK    2  A    between atoms: C_16  and  C_17 
REMARK    3  A    between atoms: C_19  and  O_20 
REMARK    4  A    between atoms: C_24  and  C_25 
REMARK       I    between atoms: C_25  and  N_26 
REMARK    5  A    between atoms: N_26  and  C_27 
ROOT
HETATM    1  C   UNL     1      23.474  40.792  46.891  1.00  0.00     0.070 C 
HETATM    2  C   UNL     1      24.678  41.011  47.775  1.00  0.00     0.037 C 
HETATM    3  N   UNL     1      24.411  41.514  49.047  1.00  0.00    -0.192 N 
HETATM    4  C   UNL     1      25.378  41.984  49.860  1.00  0.00     0.726 A 
HETATM    5  N   UNL     1      26.684  41.787  49.521  1.00  0.00    -0.083 N 
HETATM    6  N   UNL     1      27.521  42.358  50.406  1.00  0.00    -0.135 NA
HETATM    7  C   UNL     1      26.651  42.883  51.289  1.00  0.00     0.200 A 
HETATM    8  N   UNL     1      25.322  42.650  50.983  1.00  0.00    -0.041 NA
HETATM    9  C   UNL     1      27.119  41.011  48.358  1.00  0.00     0.202 C 
HETATM   10  C   UNL     1      25.959  40.760  47.399  1.00  0.00     0.062 C 
HETATM   11  H   UNL     1      23.451  41.794  49.242  1.00  0.00     0.184 HD
ENDROOT
BRANCH  10  12
HETATM   12  C   UNL     1      26.286  40.452  45.975  1.00  0.00     0.256 C 
HETATM   13  N   UNL     1      26.998  41.436  45.325  1.00  0.00    -0.323 N 
HETATM   14  H   UNL     1      27.274  42.257  45.847  1.00  0.00     0.169 HD
HETATM   15  O   UNL     1      25.884  39.401  45.488  1.00  0.00    -0.267 OA
BRANCH  13  16
HETATM   16  C   UNL     1      27.402  41.449  43.972  1.00  0.00     0.035 A 
HETATM   17  C   UNL     1      26.685  42.067  42.946  1.00  0.00     0.029 A 
HETATM   18  C   UNL     1      27.159  42.029  41.630  1.00  0.00     0.002 A 
HETATM   19  C   UNL     1      28.357  41.384  41.332  1.00  0.00     0.000 A 
HETATM   20  C   UNL     1      29.080  40.767  42.348  1.00  0.00     0.002 A 
HETATM   21  C   UNL     1      28.601  40.793  43.661  1.00  0.00     0.029 A 
ENDBRANCH  13  16
ENDBRANCH  10  12
BRANCH   9  22
HETATM   22  C   UNL     1      27.784  39.726  48.857  1.00  0.00    -0.025 A 
HETATM   23  C   UNL     1      29.185  39.595  48.918  1.00  0.00     0.046 A 
HETATM   24  C   UNL     1      29.753  38.417  49.394  1.00  0.00     0.066 A 
HETATM   25  C   UNL     1      28.957  37.355  49.802  1.00  0.00     0.036 A 
HETATM   26  C   UNL     1      27.570  37.463  49.726  1.00  0.00     0.003 A 
HETATM   27  C   UNL     1      26.985  38.640  49.256  1.00  0.00     0.010 A 
BRANCH  24  28
HETATM   28  O   UNL     1      31.105  38.263  49.479  1.00  0.00    -0.361 OA
HETATM   29  H   UNL     1      31.538  39.001  49.017  1.00  0.00     0.217 HD
ENDBRANCH  24  28
ENDBRANCH   9  22
BRANCH   7  30
HETATM   30  C   UNL     1      27.078  43.555  52.508  1.00  0.00     0.036 A 
HETATM   31  C   UNL     1      27.824  42.920  53.513  1.00  0.00     0.048 A 
HETATM   32 CL   UNL     1      28.261  41.246  53.451  1.00  0.00    -0.083 Cl
HETATM   33  C   UNL     1      28.211  43.631  54.657  1.00  0.00     0.025 A 
HETATM   34  C   UNL     1      27.859  44.973  54.813  1.00  0.00     0.002 A 
HETATM   35  C   UNL     1      27.111  45.610  53.828  1.00  0.00     0.001 A 
HETATM   36  C   UNL     1      26.722  44.906  52.687  1.00  0.00     0.017 A 
ENDBRANCH   7  30
TORSDOF 5
ENDMDL
MODEL 10
REMARK VINA RESULT:      -8.8     12.088     13.015
REMARK  5 active torsions:
REMARK  status: ('A' for Active; 'I' for Inactive)
REMARK    1  A    between atoms: C_7  and  C_8 
REMARK    2  A    between atoms: C_16  and  C_17 
REMARK    3  A    between atoms: C_19  and  O_20 
REMARK    4  A    between atoms: C_24  and  C_25 
REMARK       I    between atoms: C_25  and  N_26 
REMARK    5  A    between atoms: N_26  and  C_27 
ROOT
HETATM    1  C   UNL     1      30.030  45.932  39.447  1.00  0.00     0.070 C 
HETATM    2  C   UNL     1      30.342  47.303  39.994  1.00  0.00     0.037 C 
HETATM    3  N   UNL     1      31.694  47.583  40.187  1.00  0.00    -0.192 N 
HETATM    4  C   UNL     1      32.122  48.655  40.883  1.00  0.00     0.726 A 
HETATM    5  N   UNL     1      31.221  49.613  41.247  1.00  0.00    -0.083 N 
HETATM    6  N   UNL     1      31.794  50.587  41.975  1.00  0.00    -0.135 NA
HETATM    7  C   UNL     1      33.074  50.170  42.008  1.00  0.00     0.200 A 
HETATM    8  N   UNL     1      33.305  48.990  41.325  1.00  0.00    -0.041 NA
HETATM    9  C   UNL     1      29.811  49.600  40.854  1.00  0.00     0.202 C 
HETATM   10  C   UNL     1      29.405  48.236  40.305  1.00  0.00     0.062 C 
HETATM   11  H   UNL     1      32.349  46.815  40.051  1.00  0.00     0.184 HD
ENDROOT
BRANCH  10  12
HETATM   12  C   UNL     1      27.955  47.876  40.332  1.00  0.00     0.256 C 
HETATM   13  N   UNL     1      27.252  48.253  39.210  1.00  0.00    -0.323 N 
HETATM   14  H   UNL     1      27.752  48.700  38.453  1.00  0.00     0.169 HD
HETATM   15  O   UNL     1      27.500  47.323  41.327  1.00  0.00    -0.267 OA
BRANCH  13  16
HETATM   16  C   UNL     1      25.868  48.095  38.973  1.00  0.00     0.035 A 
HETATM   17  C   UNL     1      24.949  49.144  38.970  1.00  0.00     0.029 A 
HETATM   18  C   UNL     1      23.593  48.897  38.728  1.00  0.00     0.002 A 
HETATM   19  C   UNL     1      23.149  47.601  38.476  1.00  0.00     0.000 A 
HETATM   20  C   UNL     1      24.058  46.547  38.475  1.00  0.00     0.002 A 
HETATM   21  C   UNL     1      25.410  46.792  38.729  1.00  0.00     0.029 A 
ENDBRANCH  13  16
ENDBRANCH  10  12
BRANCH   9  22
HETATM   22  C   UNL     1      29.574  50.747  39.869  1.00  0.00    -0.025 A 
HETATM   23  C   UNL     1      30.218  50.790  38.617  1.00  0.00     0.046 A 
HETATM   24  C   UNL     1      29.963  51.841  37.740  1.00  0.00     0.066 A 
HETATM   25  C   UNL     1      29.087  52.862  38.085  1.00  0.00     0.036 A 
HETATM   26  C   UNL     1      28.461  52.843  39.328  1.00  0.00     0.003 A 
HETATM   27  C   UNL     1      28.701  51.793  40.217  1.00  0.00     0.010 A 
BRANCH  24  28
HETATM   28  O   UNL     1      30.559  51.905  36.516  1.00  0.00    -0.361 OA
HETATM   29  H   UNL     1      31.449  51.517  36.574  1.00  0.00     0.217 HD
ENDBRANCH  24  28
ENDBRANCH   9  22
BRANCH   7  30
HETATM   30  C   UNL     1      34.138  50.948  42.628  1.00  0.00     0.036 A 
HETATM   31  C   UNL     1      35.439  51.020  42.108  1.00  0.00     0.048 A 
HETATM   32 CL   UNL     1      35.949  50.136  40.709  1.00  0.00    -0.083 Cl
HETATM   33  C   UNL     1      36.412  51.798  42.750  1.00  0.00     0.025 A 
HETATM   34  C   UNL     1      36.101  52.505  43.913  1.00  0.00     0.002 A 
HETATM   35  C   UNL     1      34.818  52.434  44.444  1.00  0.00     0.001 A 
HETATM   36  C   UNL     1      33.845  51.660  43.808  1.00  0.00     0.017 A 
ENDBRANCH   7  30
TORSDOF 5
ENDMDL
