MODEL 1
REMARK VINA RESULT:      -8.4      0.000      0.000
REMARK  7 active torsions:
REMARK  status: ('A' for Active; 'I' for Inactive)
REMARK    1  A    between atoms: O_2  and  C_3 
REMARK    2  A    between atoms: C_4  and  O_5 
REMARK    3  A    between atoms: C_13  and  C_14 
REMARK       I    between atoms: C_14  and  N_15 
REMARK    4  A    between atoms: N_15  and  C_16 
REMARK    5  A    between atoms: C_16  and  C_17 
REMARK    6  A    between atoms: C_17  and  C_18 
REMARK    7  A    between atoms: C_18  and  C_19 
ROOT
HETATM    1  C   UNL     1      25.640  44.175  52.558  1.00  0.00     0.268 C 
HETATM    2  N   UNL     1      25.863  45.387  51.950  1.00  0.00    -0.356 N 
HETATM    3  O   UNL     1      24.960  44.057  53.572  1.00  0.00    -0.266 OA
HETATM    4  H   UNL     1      26.546  45.454  51.208  1.00  0.00     0.162 HD
ENDROOT
BRANCH   1   5
HETATM    5  C   UNL     1      26.307  43.047  51.946  1.00  0.00     0.102 A 
HETATM    6  N   UNL     1      25.618  42.163  51.143  1.00  0.00    -0.351 N 
HETATM    7  C   UNL     1      26.431  41.139  50.727  1.00  0.00     0.045 A 
HETATM    8  H   UNL     1      24.634  42.257  50.926  1.00  0.00     0.166 HD
HETATM    9  C   UNL     1      26.149  40.019  49.938  1.00  0.00     0.070 A 
HETATM   10  C   UNL     1      27.698  41.390  51.239  1.00  0.00    -0.004 A 
HETATM   11  C   UNL     1      27.188  39.116  49.659  1.00  0.00     0.103 A 
HETATM   12  C   UNL     1      28.469  39.324  50.195  1.00  0.00     0.102 A 
HETATM   13  C   UNL     1      28.735  40.479  50.955  1.00  0.00     0.053 A 
HETATM   14  C   UNL     1      27.615  42.597  51.988  1.00  0.00     0.049 A 
BRANCH  11  15
HETATM   15  O   UNL     1      26.763  38.056  48.896  1.00  0.00    -0.353 OA
HETATM   16  C   UNL     1      26.859  38.185  47.484  1.00  0.00     0.210 C 
ENDBRANCH  11  15
BRANCH  12  17
HETATM   17  O   UNL     1      29.454  38.401  49.941  1.00  0.00    -0.353 OA
HETATM   18  C   UNL     1      29.626  37.402  50.942  1.00  0.00     0.210 C 
ENDBRANCH  12  17
ENDBRANCH   1   5
BRANCH   2  19
HETATM   19  C   UNL     1      25.405  46.631  52.526  1.00  0.00     0.123 C 
BRANCH  19  20
HETATM   20  C   UNL     1      26.525  47.414  53.218  1.00  0.00     0.027 C 
BRANCH  20  21
HETATM   21  C   UNL     1      26.611  47.198  54.731  1.00  0.00     0.080 C 
BRANCH  21  22
HETATM   22  C   UNL     1      27.730  46.292  55.113  1.00  0.00     0.105 A 
HETATM   23  N   UNL     1      28.163  45.251  54.432  1.00  0.00    -0.233 NA
HETATM   24  C   UNL     1      29.209  44.740  55.165  1.00  0.00     0.085 A 
HETATM   25  C   UNL     1      29.419  45.489  56.318  1.00  0.00     0.062 A 
HETATM   26  C   UNL     1      30.031  43.634  54.909  1.00  0.00     0.034 A 
HETATM   27  N   UNL     1      28.462  46.468  56.263  1.00  0.00    -0.343 N 
HETATM   28  C   UNL     1      30.418  45.203  57.249  1.00  0.00     0.032 A 
HETATM   29  H   UNL     1      28.320  47.195  56.949  1.00  0.00     0.167 HD
HETATM   30  C   UNL     1      31.231  44.096  56.976  1.00  0.00     0.002 A 
HETATM   31  C   UNL     1      31.043  43.322  55.828  1.00  0.00     0.002 A 
ENDBRANCH  21  22
ENDBRANCH  20  21
ENDBRANCH  19  20
ENDBRANCH   2  19
TORSDOF 7
ENDMDL
MODEL 2
REMARK VINA RESULT:      -8.4      5.827      9.185
REMARK  7 active torsions:
REMARK  status: ('A' for Active; 'I' for Inactive)
REMARK    1  A    between atoms: O_2  and  C_3 
REMARK    2  A    between atoms: C_4  and  O_5 
REMARK    3  A    between atoms: C_13  and  C_14 
REMARK       I    between atoms: C_14  and  N_15 
REMARK    4  A    between atoms: N_15  and  C_16 
REMARK    5  A    between atoms: C_16  and  C_17 
REMARK    6  A    between atoms: C_17  and  C_18 
REMARK    7  A    between atoms: C_18  and  C_19 
ROOT
HETATM    1  C   UNL     1      24.252  48.220  49.698  1.00  0.00     0.268 C 
HETATM    2  N   UNL     1      24.221  47.178  50.592  1.00  0.00    -0.356 N 
HETATM    3  O   UNL     1      25.283  48.589  49.145  1.00  0.00    -0.266 OA
HETATM    4  H   UNL     1      23.382  47.007  51.131  1.00  0.00     0.162 HD
ENDROOT
BRANCH   1   5
HETATM    5  C   UNL     1      22.988  48.890  49.489  1.00  0.00     0.102 A 
HETATM    6  N   UNL     1      21.817  48.175  49.357  1.00  0.00    -0.351 N 
HETATM    7  C   UNL     1      20.756  49.008  49.101  1.00  0.00     0.045 A 
HETATM    8  H   UNL     1      21.770  47.165  49.414  1.00  0.00     0.166 HD
HETATM    9  C   UNL     1      19.409  48.716  48.868  1.00  0.00     0.070 A 
HETATM   10  C   UNL     1      21.247  50.307  49.112  1.00  0.00    -0.004 A 
HETATM   11  C   UNL     1      18.523  49.781  48.631  1.00  0.00     0.103 A 
HETATM   12  C   UNL     1      18.997  51.102  48.598  1.00  0.00     0.102 A 
HETATM   13  C   UNL     1      20.352  51.370  48.873  1.00  0.00     0.053 A 
HETATM   14  C   UNL     1      22.644  50.226  49.372  1.00  0.00     0.049 A 
BRANCH  11  15
HETATM   15  O   UNL     1      17.241  49.347  48.396  1.00  0.00    -0.353 OA
HETATM   16  C   UNL     1      16.944  47.989  48.691  1.00  0.00     0.210 C 
ENDBRANCH  11  15
BRANCH  12  17
HETATM   17  O   UNL     1      18.116  52.118  48.322  1.00  0.00    -0.353 OA
HETATM   18  C   UNL     1      17.488  52.706  49.458  1.00  0.00     0.210 C 
ENDBRANCH  12  17
ENDBRANCH   1   5
BRANCH   2  19
HETATM   19  C   UNL     1      25.423  46.509  51.036  1.00  0.00     0.123 C 
BRANCH  19  20
HETATM   20  C   UNL     1      26.054  47.172  52.265  1.00  0.00     0.027 C 
BRANCH  20  21
HETATM   21  C   UNL     1      25.810  46.433  53.583  1.00  0.00     0.080 C 
BRANCH  21  22
HETATM   22  C   UNL     1      27.036  45.753  54.089  1.00  0.00     0.105 A 
HETATM   23  N   UNL     1      27.505  44.588  53.693  1.00  0.00    -0.233 NA
HETATM   24  C   UNL     1      28.650  44.384  54.429  1.00  0.00     0.085 A 
HETATM   25  C   UNL     1      28.884  45.451  55.288  1.00  0.00     0.062 A 
HETATM   26  C   UNL     1      29.547  43.307  54.416  1.00  0.00     0.034 A 
HETATM   27  N   UNL     1      27.839  46.307  55.056  1.00  0.00    -0.343 N 
HETATM   28  C   UNL     1      29.978  45.516  56.152  1.00  0.00     0.032 A 
HETATM   29  H   UNL     1      27.688  47.193  55.515  1.00  0.00     0.167 HD
HETATM   30  C   UNL     1      30.864  44.433  56.124  1.00  0.00     0.002 A 
HETATM   31  C   UNL     1      30.655  43.344  55.273  1.00  0.00     0.002 A 
ENDBRANCH  21  22
ENDBRANCH  20  21
ENDBRANCH  19  20
ENDBRANCH   2  19
TORSDOF 7
ENDMDL
MODEL 3
REMARK VINA RESULT:      -8.4      2.430      7.544
REMARK  7 active torsions:
REMARK  status: ('A' for Active; 'I' for Inactive)
REMARK    1  A    between atoms: O_2  and  C_3 
REMARK    2  A    between atoms: C_4  and  O_5 
REMARK    3  A    between atoms: C_13  and  C_14 
REMARK       I    between atoms: C_14  and  N_15 
REMARK    4  A    between atoms: N_15  and  C_16 
REMARK    5  A    between atoms: C_16  and  C_17 
REMARK    6  A    between atoms: C_17  and  C_18 
REMARK    7  A    between atoms: C_18  and  C_19 
ROOT
HETATM    1  C   UNL     1      28.093  41.062  51.899  1.00  0.00     0.268 C 
HETATM    2  N   UNL     1      26.794  41.124  51.454  1.00  0.00    -0.356 N 
HETATM    3  O   UNL     1      28.889  40.216  51.504  1.00  0.00    -0.266 OA
HETATM    4  H   UNL     1      26.139  41.741  51.914  1.00  0.00     0.162 HD
ENDROOT
BRANCH   1   5
HETATM    5  C   UNL     1      28.446  42.037  52.906  1.00  0.00     0.102 A 
HETATM    6  N   UNL     1      27.630  43.116  53.169  1.00  0.00    -0.351 N 
HETATM    7  C   UNL     1      28.191  43.941  54.112  1.00  0.00     0.045 A 
HETATM    8  H   UNL     1      26.749  43.278  52.697  1.00  0.00     0.166 HD
HETATM    9  C   UNL     1      27.735  45.149  54.647  1.00  0.00     0.070 A 
HETATM   10  C   UNL     1      29.388  43.356  54.505  1.00  0.00    -0.004 A 
HETATM   11  C   UNL     1      28.523  45.793  55.616  1.00  0.00     0.103 A 
HETATM   12  C   UNL     1      29.756  45.244  56.005  1.00  0.00     0.102 A 
HETATM   13  C   UNL     1      30.173  44.008  55.476  1.00  0.00     0.053 A 
HETATM   14  C   UNL     1      29.533  42.153  53.756  1.00  0.00     0.049 A 
BRANCH  11  15
HETATM   15  O   UNL     1      27.966  46.976  56.036  1.00  0.00    -0.353 OA
HETATM   16  C   UNL     1      27.372  47.809  55.049  1.00  0.00     0.210 C 
ENDBRANCH  11  15
BRANCH  12  17
HETATM   17  O   UNL     1      30.524  45.918  56.923  1.00  0.00    -0.353 OA
HETATM   18  C   UNL     1      30.717  45.249  58.165  1.00  0.00     0.210 C 
ENDBRANCH  12  17
ENDBRANCH   1   5
BRANCH   2  19
HETATM   19  C   UNL     1      26.235  40.125  50.571  1.00  0.00     0.123 C 
BRANCH  19  20
HETATM   20  C   UNL     1      25.506  40.733  49.370  1.00  0.00     0.027 C 
BRANCH  20  21
HETATM   21  C   UNL     1      26.272  41.851  48.659  1.00  0.00     0.080 C 
BRANCH  21  22
HETATM   22  C   UNL     1      25.977  43.195  49.229  1.00  0.00     0.105 A 
HETATM   23  N   UNL     1      26.614  43.781  50.223  1.00  0.00    -0.233 NA
HETATM   24  C   UNL     1      25.999  45.001  50.385  1.00  0.00     0.085 A 
HETATM   25  C   UNL     1      24.966  45.161  49.468  1.00  0.00     0.062 A 
HETATM   26  C   UNL     1      26.269  46.030  51.297  1.00  0.00     0.034 A 
HETATM   27  N   UNL     1      24.971  43.996  48.747  1.00  0.00    -0.343 N 
HETATM   28  C   UNL     1      24.171  46.307  49.398  1.00  0.00     0.032 A 
HETATM   29  H   UNL     1      24.343  43.766  47.990  1.00  0.00     0.167 HD
HETATM   30  C   UNL     1      24.456  47.324  50.316  1.00  0.00     0.002 A 
HETATM   31  C   UNL     1      25.485  47.191  51.252  1.00  0.00     0.002 A 
ENDBRANCH  21  22
ENDBRANCH  20  21
ENDBRANCH  19  20
ENDBRANCH   2  19
TORSDOF 7
ENDMDL
MODEL 4
REMARK VINA RESULT:      -8.4     13.872     15.947
REMARK  7 active torsions:
REMARK  status: ('A' for Active; 'I' for Inactive)
REMARK    1  A    between atoms: O_2  and  C_3 
REMARK    2  A    between atoms: C_4  and  O_5 
REMARK    3  A    between atoms: C_13  and  C_14 
REMARK       I    between atoms: C_14  and  N_15 
REMARK    4  A    between atoms: N_15  and  C_16 
REMARK    5  A    between atoms: C_16  and  C_17 
REMARK    6  A    between atoms: C_17  and  C_18 
REMARK    7  A    between atoms: C_18  and  C_19 
ROOT
HETATM    1  C   UNL     1      28.670  47.544  39.921  1.00  0.00     0.268 C 
HETATM    2  N   UNL     1      28.270  47.831  38.638  1.00  0.00    -0.356 N 
HETATM    3  O   UNL     1      28.235  46.586  40.551  1.00  0.00    -0.266 OA
HETATM    4  H   UNL     1      28.542  48.709  38.216  1.00  0.00     0.162 HD
ENDROOT
BRANCH   1   5
HETATM    5  C   UNL     1      29.607  48.480  40.499  1.00  0.00     0.102 A 
HETATM    6  N   UNL     1      30.488  49.186  39.707  1.00  0.00    -0.351 N 
HETATM    7  C   UNL     1      31.323  49.963  40.471  1.00  0.00     0.045 A 
HETATM    8  H   UNL     1      30.519  49.106  38.698  1.00  0.00     0.166 HD
HETATM    9  C   UNL     1      32.375  50.804  40.095  1.00  0.00     0.070 A 
HETATM   10  C   UNL     1      30.944  49.790  41.795  1.00  0.00    -0.004 A 
HETATM   11  C   UNL     1      33.074  51.494  41.100  1.00  0.00     0.103 A 
HETATM   12  C   UNL     1      32.737  51.309  42.450  1.00  0.00     0.102 A 
HETATM   13  C   UNL     1      31.650  50.485  42.798  1.00  0.00     0.053 A 
HETATM   14  C   UNL     1      29.856  48.871  41.803  1.00  0.00     0.049 A 
BRANCH  11  15
HETATM   15  O   UNL     1      34.092  52.262  40.590  1.00  0.00    -0.353 OA
HETATM   16  C   UNL     1      33.819  53.020  39.419  1.00  0.00     0.210 C 
ENDBRANCH  11  15
BRANCH  12  17
HETATM   17  O   UNL     1      33.466  51.963  43.413  1.00  0.00    -0.353 OA
HETATM   18  C   UNL     1      32.866  52.011  44.704  1.00  0.00     0.210 C 
ENDBRANCH  12  17
ENDBRANCH   1   5
BRANCH   2  19
HETATM   19  C   UNL     1      27.220  47.092  37.975  1.00  0.00     0.123 C 
BRANCH  19  20
HETATM   20  C   UNL     1      26.290  47.987  37.151  1.00  0.00     0.027 C 
BRANCH  20  21
HETATM   21  C   UNL     1      25.551  49.055  37.962  1.00  0.00     0.080 C 
BRANCH  21  22
HETATM   22  C   UNL     1      26.477  50.058  38.559  1.00  0.00     0.105 A 
HETATM   23  N   UNL     1      27.401  50.748  37.922  1.00  0.00    -0.233 NA
HETATM   24  C   UNL     1      27.988  51.545  38.877  1.00  0.00     0.085 A 
HETATM   25  C   UNL     1      27.406  51.338  40.122  1.00  0.00     0.062 A 
HETATM   26  C   UNL     1      29.028  52.477  38.755  1.00  0.00     0.034 A 
HETATM   27  N   UNL     1      26.450  50.383  39.893  1.00  0.00    -0.343 N 
HETATM   28  C   UNL     1      27.799  52.016  41.277  1.00  0.00     0.032 A 
HETATM   29  H   UNL     1      25.831  49.988  40.586  1.00  0.00     0.167 HD
HETATM   30  C   UNL     1      28.838  52.944  41.136  1.00  0.00     0.002 A 
HETATM   31  C   UNL     1      29.445  53.172  39.898  1.00  0.00     0.002 A 
ENDBRANCH  21  22
ENDBRANCH  20  21
ENDBRANCH  19  20
ENDBRANCH   2  19
TORSDOF 7
ENDMDL
MODEL 5
REMARK VINA RESULT:      -8.3     14.069     16.138
REMARK  7 active torsions:
REMARK  status: ('A' for Active; 'I' for Inactive)
REMARK    1  A    between atoms: O_2  and  C_3 
REMARK    2  A    between atoms: C_4  and  O_5 
REMARK    3  A    between atoms: C_13  and  C_14 
REMARK       I    between atoms: C_14  and  N_15 
REMARK    4  A    between atoms: N_15  and  C_16 
REMARK    5  A    between atoms: C_16  and  C_17 
REMARK    6  A    between atoms: C_17  and  C_18 
REMARK    7  A    between atoms: C_18  and  C_19 
ROOT
HETATM    1  C   UNL     1      28.815  47.698  39.647  1.00  0.00     0.268 C 
HETATM    2  N   UNL     1      28.266  47.864  38.399  1.00  0.00    -0.356 N 
HETATM    3  O   UNL     1      28.384  46.884  40.458  1.00  0.00    -0.266 OA
HETATM    4  H   UNL     1      28.559  48.645  37.826  1.00  0.00     0.162 HD
ENDROOT
BRANCH   1   5
HETATM    5  C   UNL     1      29.909  48.589  39.964  1.00  0.00     0.102 A 
HETATM    6  N   UNL     1      30.177  48.953  41.266  1.00  0.00    -0.351 N 
HETATM    7  C   UNL     1      31.212  49.852  41.325  1.00  0.00     0.045 A 
HETATM    8  H   UNL     1      29.648  48.614  42.060  1.00  0.00     0.166 HD
HETATM    9  C   UNL     1      31.788  50.503  42.420  1.00  0.00     0.070 A 
HETATM   10  C   UNL     1      31.660  50.043  40.023  1.00  0.00    -0.004 A 
HETATM   11  C   UNL     1      32.856  51.386  42.189  1.00  0.00     0.103 A 
HETATM   12  C   UNL     1      33.305  51.628  40.881  1.00  0.00     0.102 A 
HETATM   13  C   UNL     1      32.731  50.931  39.800  1.00  0.00     0.053 A 
HETATM   14  C   UNL     1      30.848  49.235  39.178  1.00  0.00     0.049 A 
BRANCH  11  15
HETATM   15  O   UNL     1      33.307  51.969  43.349  1.00  0.00    -0.353 OA
HETATM   16  C   UNL     1      32.491  51.846  44.505  1.00  0.00     0.210 C 
ENDBRANCH  11  15
BRANCH  12  17
HETATM   17  O   UNL     1      34.322  52.529  40.682  1.00  0.00    -0.353 OA
HETATM   18  C   UNL     1      34.399  53.083  39.372  1.00  0.00     0.210 C 
ENDBRANCH  12  17
ENDBRANCH   1   5
BRANCH   2  19
HETATM   19  C   UNL     1      27.068  47.170  37.986  1.00  0.00     0.123 C 
BRANCH  19  20
HETATM   20  C   UNL     1      26.102  48.064  37.203  1.00  0.00     0.027 C 
BRANCH  20  21
HETATM   21  C   UNL     1      25.438  49.165  38.033  1.00  0.00     0.080 C 
BRANCH  21  22
HETATM   22  C   UNL     1      26.426  50.128  38.595  1.00  0.00     0.105 A 
HETATM   23  N   UNL     1      27.325  50.812  37.918  1.00  0.00    -0.233 NA
HETATM   24  C   UNL     1      27.993  51.568  38.853  1.00  0.00     0.085 A 
HETATM   25  C   UNL     1      27.485  51.342  40.127  1.00  0.00     0.062 A 
HETATM   26  C   UNL     1      29.047  52.477  38.688  1.00  0.00     0.034 A 
HETATM   27  N   UNL     1      26.492  50.418  39.936  1.00  0.00    -0.343 N 
HETATM   28  C   UNL     1      27.968  51.979  41.271  1.00  0.00     0.032 A 
HETATM   29  H   UNL     1      25.908  50.020  40.657  1.00  0.00     0.167 HD
HETATM   30  C   UNL     1      29.021  52.884  41.088  1.00  0.00     0.002 A 
HETATM   31  C   UNL     1      29.554  53.131  39.820  1.00  0.00     0.002 A 
ENDBRANCH  21  22
ENDBRANCH  20  21
ENDBRANCH  19  20
ENDBRANCH   2  19
TORSDOF 7
ENDMDL
MODEL 6
REMARK VINA RESULT:      -7.9      1.257      2.331
REMARK  7 active torsions:
REMARK  status: ('A' for Active; 'I' for Inactive)
REMARK    1  A    between atoms: O_2  and  C_3 
REMARK    2  A    between atoms: C_4  and  O_5 
REMARK    3  A    between atoms: C_13  and  C_14 
REMARK       I    between atoms: C_14  and  N_15 
REMARK    4  A    between atoms: N_15  and  C_16 
REMARK    5  A    between atoms: C_16  and  C_17 
REMARK    6  A    between atoms: C_17  and  C_18 
REMARK    7  A    between atoms: C_18  and  C_19 
ROOT
HETATM    1  C   UNL     1      25.301  44.250  51.511  1.00  0.00     0.268 C 
HETATM    2  N   UNL     1      25.519  45.535  51.074  1.00  0.00    -0.356 N 
HETATM    3  O   UNL     1      24.694  43.997  52.547  1.00  0.00    -0.266 OA
HETATM    4  H   UNL     1      26.148  45.697  50.299  1.00  0.00     0.162 HD
ENDROOT
BRANCH   1   5
HETATM    5  C   UNL     1      25.882  43.213  50.689  1.00  0.00     0.102 A 
HETATM    6  N   UNL     1      26.779  42.307  51.215  1.00  0.00    -0.351 N 
HETATM    7  C   UNL     1      27.249  41.458  50.245  1.00  0.00     0.045 A 
HETATM    8  H   UNL     1      27.065  42.305  52.187  1.00  0.00     0.166 HD
HETATM    9  C   UNL     1      28.185  40.422  50.321  1.00  0.00     0.070 A 
HETATM   10  C   UNL     1      26.603  41.794  49.062  1.00  0.00    -0.004 A 
HETATM   11  C   UNL     1      28.483  39.700  49.153  1.00  0.00     0.103 A 
HETATM   12  C   UNL     1      27.874  40.042  47.935  1.00  0.00     0.102 A 
HETATM   13  C   UNL     1      26.908  41.065  47.894  1.00  0.00     0.053 A 
HETATM   14  C   UNL     1      25.735  42.884  49.353  1.00  0.00     0.049 A 
BRANCH  11  15
HETATM   15  O   UNL     1      29.432  38.731  49.370  1.00  0.00    -0.353 OA
HETATM   16  C   UNL     1      29.668  38.332  50.714  1.00  0.00     0.210 C 
ENDBRANCH  11  15
BRANCH  12  17
HETATM   17  O   UNL     1      28.217  39.346  46.802  1.00  0.00    -0.353 OA
HETATM   18  C   UNL     1      27.367  38.250  46.479  1.00  0.00     0.210 C 
ENDBRANCH  12  17
ENDBRANCH   1   5
BRANCH   2  19
HETATM   19  C   UNL     1      25.148  46.689  51.861  1.00  0.00     0.123 C 
BRANCH  19  20
HETATM   20  C   UNL     1      26.310  47.243  52.690  1.00  0.00     0.027 C 
BRANCH  20  21
HETATM   21  C   UNL     1      26.254  46.893  54.179  1.00  0.00     0.080 C 
BRANCH  21  22
HETATM   22  C   UNL     1      27.444  46.115  54.625  1.00  0.00     0.105 A 
HETATM   23  N   UNL     1      28.297  46.460  55.568  1.00  0.00    -0.233 NA
HETATM   24  C   UNL     1      29.210  45.433  55.632  1.00  0.00     0.085 A 
HETATM   25  C   UNL     1      28.903  44.439  54.710  1.00  0.00     0.062 A 
HETATM   26  C   UNL     1      30.332  45.277  56.457  1.00  0.00     0.034 A 
HETATM   27  N   UNL     1      27.777  44.900  54.079  1.00  0.00    -0.343 N 
HETATM   28  C   UNL     1      29.656  43.274  54.557  1.00  0.00     0.032 A 
HETATM   29  H   UNL     1      27.278  44.426  53.340  1.00  0.00     0.167 HD
HETATM   30  C   UNL     1      30.772  43.134  55.390  1.00  0.00     0.002 A 
HETATM   31  C   UNL     1      31.108  44.118  56.325  1.00  0.00     0.002 A 
ENDBRANCH  21  22
ENDBRANCH  20  21
ENDBRANCH  19  20
ENDBRANCH   2  19
TORSDOF 7
ENDMDL
MODEL 7
REMARK VINA RESULT:      -7.9      5.447      8.820
REMARK  7 active torsions:
REMARK  status: ('A' for Active; 'I' for Inactive)
REMARK    1  A    between atoms: O_2  and  C_3 
REMARK    2  A    between atoms: C_4  and  O_5 
REMARK    3  A    between atoms: C_13  and  C_14 
REMARK       I    between atoms: C_14  and  N_15 
REMARK    4  A    between atoms: N_15  and  C_16 
REMARK    5  A    between atoms: C_16  and  C_17 
REMARK    6  A    between atoms: C_17  and  C_18 
REMARK    7  A    between atoms: C_18  and  C_19 
ROOT
HETATM    1  C   UNL     1      24.726  47.264  50.201  1.00  0.00     0.268 C 
HETATM    2  N   UNL     1      25.209  46.116  49.620  1.00  0.00    -0.356 N 
HETATM    3  O   UNL     1      25.178  47.716  51.249  1.00  0.00    -0.266 OA
HETATM    4  H   UNL     1      24.711  45.704  48.842  1.00  0.00     0.162 HD
ENDROOT
BRANCH   1   5
HETATM    5  C   UNL     1      23.610  47.878  49.519  1.00  0.00     0.102 A 
HETATM    6  N   UNL     1      23.214  49.165  49.817  1.00  0.00    -0.351 N 
HETATM    7  C   UNL     1      22.099  49.517  49.099  1.00  0.00     0.045 A 
HETATM    8  H   UNL     1      23.680  49.747  50.502  1.00  0.00     0.166 HD
HETATM    9  C   UNL     1      21.349  50.697  49.109  1.00  0.00     0.070 A 
HETATM   10  C   UNL     1      21.788  48.442  48.276  1.00  0.00    -0.004 A 
HETATM   11  C   UNL     1      20.237  50.792  48.255  1.00  0.00     0.103 A 
HETATM   12  C   UNL     1      19.876  49.707  47.440  1.00  0.00     0.102 A 
HETATM   13  C   UNL     1      20.671  48.545  47.423  1.00  0.00     0.053 A 
HETATM   14  C   UNL     1      22.750  47.425  48.534  1.00  0.00     0.049 A 
BRANCH  11  15
HETATM   15  O   UNL     1      19.583  51.993  48.386  1.00  0.00    -0.353 OA
HETATM   16  C   UNL     1      18.684  52.135  49.477  1.00  0.00     0.210 C 
ENDBRANCH  11  15
BRANCH  12  17
HETATM   17  O   UNL     1      18.759  49.813  46.648  1.00  0.00    -0.353 OA
HETATM   18  C   UNL     1      17.561  49.289  47.212  1.00  0.00     0.210 C 
ENDBRANCH  12  17
ENDBRANCH   1   5
BRANCH   2  19
HETATM   19  C   UNL     1      26.211  45.293  50.258  1.00  0.00     0.123 C 
BRANCH  19  20
HETATM   20  C   UNL     1      25.609  44.116  51.032  1.00  0.00     0.027 C 
BRANCH  20  21
HETATM   21  C   UNL     1      25.419  44.371  52.530  1.00  0.00     0.080 C 
BRANCH  21  22
HETATM   22  C   UNL     1      26.688  44.231  53.297  1.00  0.00     0.105 A 
HETATM   23  N   UNL     1      27.498  43.192  53.288  1.00  0.00    -0.233 NA
HETATM   24  C   UNL     1      28.533  43.525  54.131  1.00  0.00     0.085 A 
HETATM   25  C   UNL     1      28.349  44.796  54.663  1.00  0.00     0.062 A 
HETATM   26  C   UNL     1      29.670  42.790  54.493  1.00  0.00     0.034 A 
HETATM   27  N   UNL     1      27.166  45.222  54.119  1.00  0.00    -0.343 N 
HETATM   28  C   UNL     1      29.247  45.396  55.547  1.00  0.00     0.032 A 
HETATM   29  H   UNL     1      26.722  46.112  54.292  1.00  0.00     0.167 HD
HETATM   30  C   UNL     1      30.378  44.648  55.896  1.00  0.00     0.002 A 
HETATM   31  C   UNL     1      30.588  43.366  55.381  1.00  0.00     0.002 A 
ENDBRANCH  21  22
ENDBRANCH  20  21
ENDBRANCH  19  20
ENDBRANCH   2  19
TORSDOF 7
ENDMDL
MODEL 8
REMARK VINA RESULT:      -7.7      2.624      7.703
REMARK  7 active torsions:
REMARK  status: ('A' for Active; 'I' for Inactive)
REMARK    1  A    between atoms: O_2  and  C_3 
REMARK    2  A    between atoms: C_4  and  O_5 
REMARK    3  A    between atoms: C_13  and  C_14 
REMARK       I    between atoms: C_14  and  N_15 
REMARK    4  A    between atoms: N_15  and  C_16 
REMARK    5  A    between atoms: C_16  and  C_17 
REMARK    6  A    between atoms: C_17  and  C_18 
REMARK    7  A    between atoms: C_18  and  C_19 
ROOT
HETATM    1  C   UNL     1      27.979  40.808  51.440  1.00  0.00     0.268 C 
HETATM    2  N   UNL     1      26.713  40.823  50.905  1.00  0.00    -0.356 N 
HETATM    3  O   UNL     1      28.798  39.934  51.177  1.00  0.00    -0.266 OA
HETATM    4  H   UNL     1      26.029  41.476  51.264  1.00  0.00     0.162 HD
ENDROOT
BRANCH   1   5
HETATM    5  C   UNL     1      28.265  41.869  52.379  1.00  0.00     0.102 A 
HETATM    6  N   UNL     1      29.411  41.852  53.144  1.00  0.00    -0.351 N 
HETATM    7  C   UNL     1      29.444  42.919  54.008  1.00  0.00     0.045 A 
HETATM    8  H   UNL     1      30.112  41.124  53.084  1.00  0.00     0.166 HD
HETATM    9  C   UNL     1      30.388  43.274  54.976  1.00  0.00     0.070 A 
HETATM   10  C   UNL     1      28.304  43.675  53.764  1.00  0.00    -0.004 A 
HETATM   11  C   UNL     1      30.169  44.439  55.730  1.00  0.00     0.103 A 
HETATM   12  C   UNL     1      29.007  45.203  55.532  1.00  0.00     0.102 A 
HETATM   13  C   UNL     1      28.091  44.842  54.525  1.00  0.00     0.053 A 
HETATM   14  C   UNL     1      27.579  43.019  52.729  1.00  0.00     0.049 A 
BRANCH  11  15
HETATM   15  O   UNL     1      31.161  44.652  56.656  1.00  0.00    -0.353 OA
HETATM   16  C   UNL     1      31.778  43.509  57.232  1.00  0.00     0.210 C 
ENDBRANCH  11  15
BRANCH  12  17
HETATM   17  O   UNL     1      28.799  46.312  56.314  1.00  0.00    -0.353 OA
HETATM   18  C   UNL     1      27.773  47.192  55.864  1.00  0.00     0.210 C 
ENDBRANCH  12  17
ENDBRANCH   1   5
BRANCH   2  19
HETATM   19  C   UNL     1      26.213  39.748  50.079  1.00  0.00     0.123 C 
BRANCH  19  20
HETATM   20  C   UNL     1      25.695  40.231  48.721  1.00  0.00     0.027 C 
BRANCH  20  21
HETATM   21  C   UNL     1      26.512  41.364  48.094  1.00  0.00     0.080 C 
BRANCH  21  22
HETATM   22  C   UNL     1      26.165  42.696  48.662  1.00  0.00     0.105 A 
HETATM   23  N   UNL     1      26.976  43.505  49.314  1.00  0.00    -0.233 NA
HETATM   24  C   UNL     1      26.218  44.610  49.628  1.00  0.00     0.085 A 
HETATM   25  C   UNL     1      24.918  44.471  49.154  1.00  0.00     0.062 A 
HETATM   26  C   UNL     1      26.573  45.777  50.318  1.00  0.00     0.034 A 
HETATM   27  N   UNL     1      24.910  43.243  48.547  1.00  0.00    -0.343 N 
HETATM   28  C   UNL     1      23.931  45.442  49.324  1.00  0.00     0.032 A 
HETATM   29  H   UNL     1      24.117  42.814  48.091  1.00  0.00     0.167 HD
HETATM   30  C   UNL     1      24.303  46.601  50.015  1.00  0.00     0.002 A 
HETATM   31  C   UNL     1      25.601  46.769  50.506  1.00  0.00     0.002 A 
ENDBRANCH  21  22
ENDBRANCH  20  21
ENDBRANCH  19  20
ENDBRANCH   2  19
TORSDOF 7
ENDMDL
MODEL 9
REMARK VINA RESULT:      -7.6      3.333      6.770
REMARK  7 active torsions:
REMARK  status: ('A' for Active; 'I' for Inactive)
REMARK    1  A    between atoms: O_2  and  C_3 
REMARK    2  A    between atoms: C_4  and  O_5 
REMARK    3  A    between atoms: C_13  and  C_14 
REMARK       I    between atoms: C_14  and  N_15 
REMARK    4  A    between atoms: N_15  and  C_16 
REMARK    5  A    between atoms: C_16  and  C_17 
REMARK    6  A    between atoms: C_17  and  C_18 
REMARK    7  A    between atoms: C_18  and  C_19 
ROOT
HETATM    1  C   UNL     1      26.053  42.463  50.734  1.00  0.00     0.268 C 
HETATM    2  N   UNL     1      27.325  42.656  51.216  1.00  0.00    -0.356 N 
HETATM    3  O   UNL     1      25.526  41.357  50.680  1.00  0.00    -0.266 OA
HETATM    4  H   UNL     1      27.769  43.558  51.103  1.00  0.00     0.162 HD
ENDROOT
BRANCH   1   5
HETATM    5  C   UNL     1      25.393  43.652  50.243  1.00  0.00     0.102 A 
HETATM    6  N   UNL     1      25.996  44.888  50.329  1.00  0.00    -0.351 N 
HETATM    7  C   UNL     1      25.165  45.877  49.864  1.00  0.00     0.045 A 
HETATM    8  H   UNL     1      26.921  45.032  50.715  1.00  0.00     0.166 HD
HETATM    9  C   UNL     1      25.350  47.261  49.796  1.00  0.00     0.070 A 
HETATM   10  C   UNL     1      24.003  45.257  49.422  1.00  0.00    -0.004 A 
HETATM   11  C   UNL     1      24.317  48.050  49.264  1.00  0.00     0.103 A 
HETATM   12  C   UNL     1      23.116  47.456  48.844  1.00  0.00     0.102 A 
HETATM   13  C   UNL     1      22.971  46.056  48.890  1.00  0.00     0.053 A 
HETATM   14  C   UNL     1      24.160  43.860  49.648  1.00  0.00     0.049 A 
BRANCH  11  15
HETATM   15  O   UNL     1      24.626  49.389  49.279  1.00  0.00    -0.353 OA
HETATM   16  C   UNL     1      25.735  49.815  48.499  1.00  0.00     0.210 C 
ENDBRANCH  11  15
BRANCH  12  17
HETATM   17  O   UNL     1      22.108  48.257  48.368  1.00  0.00    -0.353 OA
HETATM   18  C   UNL     1      20.910  47.578  48.003  1.00  0.00     0.210 C 
ENDBRANCH  12  17
ENDBRANCH   1   5
BRANCH   2  19
HETATM   19  C   UNL     1      28.181  41.554  51.593  1.00  0.00     0.123 C 
BRANCH  19  20
HETATM   20  C   UNL     1      28.151  41.264  53.096  1.00  0.00     0.027 C 
BRANCH  20  21
HETATM   21  C   UNL     1      29.031  42.188  53.941  1.00  0.00     0.080 C 
BRANCH  21  22
HETATM   22  C   UNL     1      28.417  43.531  54.141  1.00  0.00     0.105 A 
HETATM   23  N   UNL     1      27.175  43.874  53.864  1.00  0.00    -0.233 NA
HETATM   24  C   UNL     1      27.071  45.197  54.225  1.00  0.00     0.085 A 
HETATM   25  C   UNL     1      28.275  45.669  54.735  1.00  0.00     0.062 A 
HETATM   26  C   UNL     1      25.974  46.066  54.147  1.00  0.00     0.034 A 
HETATM   27  N   UNL     1      29.116  44.590  54.666  1.00  0.00    -0.343 N 
HETATM   28  C   UNL     1      28.458  46.977  55.186  1.00  0.00     0.032 A 
HETATM   29  H   UNL     1      30.084  44.576  54.955  1.00  0.00     0.167 HD
HETATM   30  C   UNL     1      27.352  47.831  55.101  1.00  0.00     0.002 A 
HETATM   31  C   UNL     1      26.129  47.387  54.590  1.00  0.00     0.002 A 
ENDBRANCH  21  22
ENDBRANCH  20  21
ENDBRANCH  19  20
ENDBRANCH   2  19
TORSDOF 7
ENDMDL
MODEL 10
REMARK VINA RESULT:      -7.4      4.999      9.145
REMARK  7 active torsions:
REMARK  status: ('A' for Active; 'I' for Inactive)
REMARK    1  A    between atoms: O_2  and  C_3 
REMARK    2  A    between atoms: C_4  and  O_5 
REMARK    3  A    between atoms: C_13  and  C_14 
REMARK       I    between atoms: C_14  and  N_15 
REMARK    4  A    between atoms: N_15  and  C_16 
REMARK    5  A    between atoms: C_16  and  C_17 
REMARK    6  A    between atoms: C_17  and  C_18 
REMARK    7  A    between atoms: C_18  and  C_19 
ROOT
HETATM    1  C   UNL     1      23.910  43.941  49.832  1.00  0.00     0.268 C 
HETATM    2  N   UNL     1      22.840  44.802  49.856  1.00  0.00    -0.356 N 
HETATM    3  O   UNL     1      24.013  43.035  49.010  1.00  0.00    -0.266 OA
HETATM    4  H   UNL     1      22.727  45.434  50.638  1.00  0.00     0.162 HD
ENDROOT
BRANCH   1   5
HETATM    5  C   UNL     1      24.888  44.142  50.877  1.00  0.00     0.102 A 
HETATM    6  N   UNL     1      24.694  45.089  51.860  1.00  0.00    -0.351 N 
HETATM    7  C   UNL     1      25.775  45.152  52.705  1.00  0.00     0.045 A 
HETATM    8  H   UNL     1      23.868  45.672  51.918  1.00  0.00     0.166 HD
HETATM    9  C   UNL     1      26.019  45.979  53.805  1.00  0.00     0.070 A 
HETATM   10  C   UNL     1      26.679  44.186  52.282  1.00  0.00    -0.004 A 
HETATM   11  C   UNL     1      27.229  45.827  54.503  1.00  0.00     0.103 A 
HETATM   12  C   UNL     1      28.179  44.885  54.075  1.00  0.00     0.102 A 
HETATM   13  C   UNL     1      27.891  44.040  52.987  1.00  0.00     0.053 A 
HETATM   14  C   UNL     1      26.109  43.546  51.145  1.00  0.00     0.049 A 
BRANCH  11  15
HETATM   15  O   UNL     1      27.344  46.717  55.543  1.00  0.00    -0.353 OA
HETATM   16  C   UNL     1      26.676  47.965  55.415  1.00  0.00     0.210 C 
ENDBRANCH  11  15
BRANCH  12  17
HETATM   17  O   UNL     1      29.370  44.788  54.751  1.00  0.00    -0.353 OA
HETATM   18  C   UNL     1      29.793  43.462  55.054  1.00  0.00     0.210 C 
ENDBRANCH  12  17
ENDBRANCH   1   5
BRANCH   2  19
HETATM   19  C   UNL     1      21.698  44.636  48.986  1.00  0.00     0.123 C 
BRANCH  19  20
HETATM   20  C   UNL     1      21.531  45.791  47.995  1.00  0.00     0.027 C 
BRANCH  20  21
HETATM   21  C   UNL     1      22.380  47.026  48.307  1.00  0.00     0.080 C 
BRANCH  21  22
HETATM   22  C   UNL     1      21.550  48.235  48.569  1.00  0.00     0.105 A 
HETATM   23  N   UNL     1      21.581  49.368  47.897  1.00  0.00    -0.233 NA
HETATM   24  C   UNL     1      20.639  50.174  48.491  1.00  0.00     0.085 A 
HETATM   25  C   UNL     1      20.018  49.517  49.547  1.00  0.00     0.062 A 
HETATM   26  C   UNL     1      20.255  51.486  48.183  1.00  0.00     0.034 A 
HETATM   27  N   UNL     1      20.619  48.286  49.578  1.00  0.00    -0.343 N 
HETATM   28  C   UNL     1      19.016  50.093  50.329  1.00  0.00     0.032 A 
HETATM   29  H   UNL     1      20.412  47.543  50.230  1.00  0.00     0.167 HD
HETATM   30  C   UNL     1      18.644  51.404  50.006  1.00  0.00     0.002 A 
HETATM   31  C   UNL     1      19.252  52.092  48.952  1.00  0.00     0.002 A 
ENDBRANCH  21  22
ENDBRANCH  20  21
ENDBRANCH  19  20
ENDBRANCH   2  19
TORSDOF 7
ENDMDL
