MODEL 1
REMARK VINA RESULT:     -10.2      0.000      0.000
REMARK  3 active torsions:
REMARK  status: ('A' for Active; 'I' for Inactive)
REMARK    1  A    between atoms: C_5  and  C_6 
REMARK    2  A    between atoms: C_10  and  C_11 
REMARK    3  A    between atoms: C_24  and  N_25 
ROOT
HETATM    1  C   UNL     1      27.983  43.916  53.038  1.00  0.00     0.070 A 
HETATM    2  N   UNL     1      27.707  42.670  52.599  1.00  0.00    -0.228 NA
HETATM    3  C   UNL     1      26.960  42.471  51.518  1.00  0.00     0.165 A 
HETATM    4  C   UNL     1      26.427  43.530  50.775  1.00  0.00     0.063 A 
HETATM    5  C   UNL     1      26.670  44.861  51.255  1.00  0.00    -0.006 A 
HETATM    6  C   UNL     1      27.458  45.027  52.401  1.00  0.00     0.046 A 
HETATM    7  N   UNL     1      26.777  41.200  51.197  1.00  0.00    -0.222 NA
HETATM    8  C   UNL     1      26.060  40.932  50.111  1.00  0.00     0.237 A 
HETATM    9  N   UNL     1      25.524  41.832  49.293  1.00  0.00    -0.229 NA
HETATM   10  C   UNL     1      25.722  43.114  49.624  1.00  0.00     0.117 A 
ENDROOT
BRANCH   5  11
HETATM   11  C   UNL     1      26.143  46.078  50.611  1.00  0.00    -0.022 A 
HETATM   12  C   UNL     1      26.960  46.869  49.783  1.00  0.00     0.052 A 
HETATM   13  C   UNL     1      26.420  48.007  49.221  1.00  0.00     0.105 A 
HETATM   14  C   UNL     1      25.109  48.367  49.428  1.00  0.00     0.105 A 
HETATM   15  O   UNL     1      27.081  48.894  48.429  1.00  0.00    -0.323 OA
HETATM   16  O   UNL     1      24.782  49.523  48.793  1.00  0.00    -0.323 OA
HETATM   17  C   UNL     1      24.265  47.609  50.206  1.00  0.00     0.040 A 
HETATM   18  C   UNL     1      26.046  49.871  48.191  1.00  0.00     0.352 A 
HETATM   19  C   UNL     1      24.791  46.457  50.803  1.00  0.00     0.015 A 
ENDBRANCH   5  11
BRANCH  10  20
HETATM   20  N   UNL     1      25.134  43.998  48.722  1.00  0.00    -0.286 NA
HETATM   21  H   UNL     1      25.771  44.113  47.938  1.00  0.00     0.125 HD
HETATM   22  H   UNL     1      24.890  44.885  49.146  1.00  0.00     0.125 HD
ENDBRANCH  10  20
BRANCH   1  23
HETATM   23  C   UNL     1      28.884  43.995  54.209  1.00  0.00    -0.007 A 
HETATM   24  C   UNL     1      28.907  45.110  55.065  1.00  0.00     0.014 A 
HETATM   25  C   UNL     1      29.797  45.187  56.145  1.00  0.00     0.007 A 
HETATM   26  C   UNL     1      30.700  44.150  56.395  1.00  0.00    -0.062 A 
HETATM   27  C   UNL     1      31.658  44.222  57.546  1.00  0.00     0.048 C 
HETATM   28  C   UNL     1      30.683  43.029  55.563  1.00  0.00     0.007 A 
HETATM   29  C   UNL     1      29.793  42.958  54.486  1.00  0.00     0.014 A 
ENDBRANCH   1  23
TORSDOF 3
ENDMDL
MODEL 2
REMARK VINA RESULT:      -9.8      0.829      1.473
REMARK  3 active torsions:
REMARK  status: ('A' for Active; 'I' for Inactive)
REMARK    1  A    between atoms: C_5  and  C_6 
REMARK    2  A    between atoms: C_10  and  C_11 
REMARK    3  A    between atoms: C_24  and  N_25 
ROOT
HETATM    1  C   UNL     1      27.683  44.003  52.657  1.00  0.00     0.070 A 
HETATM    2  N   UNL     1      27.306  42.790  52.199  1.00  0.00    -0.228 NA
HETATM    3  C   UNL     1      26.516  42.669  51.137  1.00  0.00     0.165 A 
HETATM    4  C   UNL     1      26.041  43.781  50.432  1.00  0.00     0.063 A 
HETATM    5  C   UNL     1      26.392  45.079  50.933  1.00  0.00    -0.006 A 
HETATM    6  C   UNL     1      27.222  45.162  52.058  1.00  0.00     0.046 A 
HETATM    7  N   UNL     1      26.234  41.423  50.795  1.00  0.00    -0.222 NA
HETATM    8  C   UNL     1      25.470  41.231  49.724  1.00  0.00     0.237 A 
HETATM    9  N   UNL     1      24.978  42.186  48.942  1.00  0.00    -0.229 NA
HETATM   10  C   UNL     1      25.276  43.442  49.293  1.00  0.00     0.117 A 
ENDROOT
BRANCH   5  11
HETATM   11  C   UNL     1      25.937  46.345  50.330  1.00  0.00    -0.022 A 
HETATM   12  C   UNL     1      24.583  46.725  50.381  1.00  0.00     0.052 A 
HETATM   13  C   UNL     1      24.211  47.913  49.785  1.00  0.00     0.105 A 
HETATM   14  C   UNL     1      25.127  48.735  49.173  1.00  0.00     0.105 A 
HETATM   15  O   UNL     1      22.945  48.405  49.715  1.00  0.00    -0.323 OA
HETATM   16  O   UNL     1      24.552  49.848  48.643  1.00  0.00    -0.323 OA
HETATM   17  C   UNL     1      26.465  48.420  49.125  1.00  0.00     0.040 A 
HETATM   18  C   UNL     1      23.164  49.613  48.959  1.00  0.00     0.352 A 
HETATM   19  C   UNL     1      26.869  47.213  49.707  1.00  0.00     0.015 A 
ENDBRANCH   5  11
BRANCH  10  20
HETATM   20  N   UNL     1      24.729  44.387  48.428  1.00  0.00    -0.286 NA
HETATM   21  H   UNL     1      23.781  44.582  48.740  1.00  0.00     0.125 HD
HETATM   22  H   UNL     1      24.758  44.095  47.459  1.00  0.00     0.125 HD
ENDBRANCH  10  20
BRANCH   1  23
HETATM   23  C   UNL     1      28.620  43.990  53.801  1.00  0.00    -0.007 A 
HETATM   24  C   UNL     1      28.684  45.044  54.731  1.00  0.00     0.014 A 
HETATM   25  C   UNL     1      29.607  45.035  55.786  1.00  0.00     0.007 A 
HETATM   26  C   UNL     1      30.502  43.973  55.936  1.00  0.00    -0.062 A 
HETATM   27  C   UNL     1      31.494  43.953  57.060  1.00  0.00     0.048 C 
HETATM   28  C   UNL     1      30.443  42.911  55.032  1.00  0.00     0.007 A 
HETATM   29  C   UNL     1      29.521  42.925  53.979  1.00  0.00     0.014 A 
ENDBRANCH   1  23
TORSDOF 3
ENDMDL
MODEL 3
REMARK VINA RESULT:      -9.4      1.490      2.201
REMARK  3 active torsions:
REMARK  status: ('A' for Active; 'I' for Inactive)
REMARK    1  A    between atoms: C_5  and  C_6 
REMARK    2  A    between atoms: C_10  and  C_11 
REMARK    3  A    between atoms: C_24  and  N_25 
ROOT
HETATM    1  C   UNL     1      26.870  45.347  52.903  1.00  0.00     0.070 A 
HETATM    2  N   UNL     1      26.560  44.078  52.563  1.00  0.00    -0.228 NA
HETATM    3  C   UNL     1      25.930  43.804  51.425  1.00  0.00     0.165 A 
HETATM    4  C   UNL     1      25.563  44.804  50.518  1.00  0.00     0.063 A 
HETATM    5  C   UNL     1      25.841  46.163  50.886  1.00  0.00    -0.006 A 
HETATM    6  C   UNL     1      26.501  46.409  52.096  1.00  0.00     0.046 A 
HETATM    7  N   UNL     1      25.697  42.518  51.216  1.00  0.00    -0.222 NA
HETATM    8  C   UNL     1      25.094  42.174  50.083  1.00  0.00     0.237 A 
HETATM    9  N   UNL     1      24.720  43.008  49.118  1.00  0.00    -0.229 NA
HETATM   10  C   UNL     1      24.967  44.305  49.337  1.00  0.00     0.117 A 
ENDROOT
BRANCH   5  11
HETATM   11  C   UNL     1      25.479  47.331  50.061  1.00  0.00    -0.022 A 
HETATM   12  C   UNL     1      24.134  47.712  49.898  1.00  0.00     0.052 A 
HETATM   13  C   UNL     1      23.852  48.802  49.101  1.00  0.00     0.105 A 
HETATM   14  C   UNL     1      24.845  49.531  48.491  1.00  0.00     0.105 A 
HETATM   15  O   UNL     1      22.611  49.278  48.814  1.00  0.00    -0.323 OA
HETATM   16  O   UNL     1      24.354  50.556  47.745  1.00  0.00    -0.323 OA
HETATM   17  C   UNL     1      26.175  49.213  48.645  1.00  0.00     0.040 A 
HETATM   18  C   UNL     1      22.935  50.367  47.926  1.00  0.00     0.352 A 
HETATM   19  C   UNL     1      26.490  48.102  49.436  1.00  0.00     0.015 A 
ENDBRANCH   5  11
BRANCH  10  20
HETATM   20  N   UNL     1      24.551  45.117  48.285  1.00  0.00    -0.286 NA
HETATM   21  H   UNL     1      25.347  45.677  47.991  1.00  0.00     0.125 HD
HETATM   22  H   UNL     1      23.751  45.689  48.525  1.00  0.00     0.125 HD
ENDBRANCH  10  20
BRANCH   1  23
HETATM   23  C   UNL     1      27.634  45.502  54.160  1.00  0.00    -0.007 A 
HETATM   24  C   UNL     1      27.363  46.530  55.081  1.00  0.00     0.014 A 
HETATM   25  C   UNL     1      28.123  46.688  56.248  1.00  0.00     0.007 A 
HETATM   26  C   UNL     1      29.187  45.825  56.523  1.00  0.00    -0.062 A 
HETATM   27  C   UNL     1      30.009  45.985  57.766  1.00  0.00     0.048 C 
HETATM   28  C   UNL     1      29.463  44.790  55.627  1.00  0.00     0.007 A 
HETATM   29  C   UNL     1      28.701  44.637  54.463  1.00  0.00     0.014 A 
ENDBRANCH   1  23
TORSDOF 3
ENDMDL
MODEL 4
REMARK VINA RESULT:      -9.2      3.659      5.906
REMARK  3 active torsions:
REMARK  status: ('A' for Active; 'I' for Inactive)
REMARK    1  A    between atoms: C_5  and  C_6 
REMARK    2  A    between atoms: C_10  and  C_11 
REMARK    3  A    between atoms: C_24  and  N_25 
ROOT
HETATM    1  C   UNL     1      28.138  43.553  52.486  1.00  0.00     0.070 A 
HETATM    2  N   UNL     1      27.330  44.571  52.123  1.00  0.00    -0.228 NA
HETATM    3  C   UNL     1      26.543  44.478  51.055  1.00  0.00     0.165 A 
HETATM    4  C   UNL     1      26.502  43.329  50.258  1.00  0.00     0.063 A 
HETATM    5  C   UNL     1      27.391  42.255  50.601  1.00  0.00    -0.006 A 
HETATM    6  C   UNL     1      28.206  42.395  51.731  1.00  0.00     0.046 A 
HETATM    7  N   UNL     1      25.799  45.547  50.820  1.00  0.00    -0.222 NA
HETATM    8  C   UNL     1      24.970  45.509  49.782  1.00  0.00     0.237 A 
HETATM    9  N   UNL     1      24.801  44.477  48.962  1.00  0.00    -0.229 NA
HETATM   10  C   UNL     1      25.553  43.400  49.213  1.00  0.00     0.117 A 
ENDROOT
BRANCH   5  11
HETATM   11  C   UNL     1      27.498  40.998  49.838  1.00  0.00    -0.022 A 
HETATM   12  C   UNL     1      26.803  39.844  50.244  1.00  0.00     0.052 A 
HETATM   13  C   UNL     1      26.954  38.691  49.502  1.00  0.00     0.105 A 
HETATM   14  C   UNL     1      27.738  38.651  48.374  1.00  0.00     0.105 A 
HETATM   15  O   UNL     1      26.382  37.487  49.777  1.00  0.00    -0.323 OA
HETATM   16  O   UNL     1      27.758  37.420  47.798  1.00  0.00    -0.323 OA
HETATM   17  C   UNL     1      28.413  39.762  47.923  1.00  0.00     0.040 A 
HETATM   18  C   UNL     1      26.925  36.678  48.714  1.00  0.00     0.352 A 
HETATM   19  C   UNL     1      28.291  40.943  48.665  1.00  0.00     0.015 A 
ENDBRANCH   5  11
BRANCH  10  20
HETATM   20  N   UNL     1      25.320  42.360  48.316  1.00  0.00    -0.286 NA
HETATM   21  H   UNL     1      24.785  42.735  47.537  1.00  0.00     0.125 HD
HETATM   22  H   UNL     1      24.860  41.567  48.746  1.00  0.00     0.125 HD
ENDBRANCH  10  20
BRANCH   1  23
HETATM   23  C   UNL     1      28.905  43.761  53.734  1.00  0.00    -0.007 A 
HETATM   24  C   UNL     1      28.717  44.890  54.552  1.00  0.00     0.014 A 
HETATM   25  C   UNL     1      29.482  45.092  55.708  1.00  0.00     0.007 A 
HETATM   26  C   UNL     1      30.468  44.174  56.076  1.00  0.00    -0.062 A 
HETATM   27  C   UNL     1      31.294  44.381  57.310  1.00  0.00     0.048 C 
HETATM   28  C   UNL     1      30.660  43.040  55.284  1.00  0.00     0.007 A 
HETATM   29  C   UNL     1      29.894  42.843  54.130  1.00  0.00     0.014 A 
ENDBRANCH   1  23
TORSDOF 3
ENDMDL
MODEL 5
REMARK VINA RESULT:      -9.0      2.972      5.074
REMARK  3 active torsions:
REMARK  status: ('A' for Active; 'I' for Inactive)
REMARK    1  A    between atoms: C_5  and  C_6 
REMARK    2  A    between atoms: C_10  and  C_11 
REMARK    3  A    between atoms: C_24  and  N_25 
ROOT
HETATM    1  C   UNL     1      28.173  44.256  53.265  1.00  0.00     0.070 A 
HETATM    2  N   UNL     1      27.419  45.368  53.138  1.00  0.00    -0.228 NA
HETATM    3  C   UNL     1      26.485  45.464  52.196  1.00  0.00     0.165 A 
HETATM    4  C   UNL     1      26.227  44.424  51.296  1.00  0.00     0.063 A 
HETATM    5  C   UNL     1      27.051  43.253  51.385  1.00  0.00    -0.006 A 
HETATM    6  C   UNL     1      28.027  43.195  52.389  1.00  0.00     0.046 A 
HETATM    7  N   UNL     1      25.817  46.606  52.192  1.00  0.00    -0.222 NA
HETATM    8  C   UNL     1      24.851  46.756  51.292  1.00  0.00     0.237 A 
HETATM    9  N   UNL     1      24.473  45.845  50.401  1.00  0.00    -0.229 NA
HETATM   10  C   UNL     1      25.151  44.692  50.419  1.00  0.00     0.117 A 
ENDROOT
BRANCH   5  11
HETATM   11  C   UNL     1      26.933  42.092  50.485  1.00  0.00    -0.022 A 
HETATM   12  C   UNL     1      27.516  42.107  49.204  1.00  0.00     0.052 A 
HETATM   13  C   UNL     1      27.359  41.000  48.397  1.00  0.00     0.105 A 
HETATM   14  C   UNL     1      26.676  39.884  48.821  1.00  0.00     0.105 A 
HETATM   15  O   UNL     1      27.828  40.868  47.127  1.00  0.00    -0.323 OA
HETATM   16  O   UNL     1      26.630  38.912  47.872  1.00  0.00    -0.323 OA
HETATM   17  C   UNL     1      26.115  39.813  50.075  1.00  0.00     0.040 A 
HETATM   18  C   UNL     1      27.331  39.557  46.788  1.00  0.00     0.352 A 
HETATM   19  C   UNL     1      26.245  40.928  50.910  1.00  0.00     0.015 A 
ENDBRANCH   5  11
BRANCH  10  20
HETATM   20  N   UNL     1      24.699  43.787  49.461  1.00  0.00    -0.286 NA
HETATM   21  H   UNL     1      24.574  44.295  48.589  1.00  0.00     0.125 HD
HETATM   22  H   UNL     1      23.855  43.305  49.745  1.00  0.00     0.125 HD
ENDBRANCH  10  20
BRANCH   1  23
HETATM   23  C   UNL     1      29.123  44.255  54.398  1.00  0.00    -0.007 A 
HETATM   24  C   UNL     1      30.052  43.218  54.599  1.00  0.00     0.014 A 
HETATM   25  C   UNL     1      30.917  43.212  55.702  1.00  0.00     0.007 A 
HETATM   26  C   UNL     1      30.871  44.242  56.645  1.00  0.00    -0.062 A 
HETATM   27  C   UNL     1      31.790  44.246  57.829  1.00  0.00     0.048 C 
HETATM   28  C   UNL     1      29.965  45.288  56.455  1.00  0.00     0.007 A 
HETATM   29  C   UNL     1      29.103  45.289  55.353  1.00  0.00     0.014 A 
ENDBRANCH   1  23
TORSDOF 3
ENDMDL
MODEL 6
REMARK VINA RESULT:      -8.9      2.740      7.032
REMARK  3 active torsions:
REMARK  status: ('A' for Active; 'I' for Inactive)
REMARK    1  A    between atoms: C_5  and  C_6 
REMARK    2  A    between atoms: C_10  and  C_11 
REMARK    3  A    between atoms: C_24  and  N_25 
ROOT
HETATM    1  C   UNL     1      25.937  45.366  50.285  1.00  0.00     0.070 A 
HETATM    2  N   UNL     1      25.385  44.283  49.699  1.00  0.00    -0.228 NA
HETATM    3  C   UNL     1      25.713  43.052  50.080  1.00  0.00     0.165 A 
HETATM    4  C   UNL     1      26.636  42.810  51.103  1.00  0.00     0.063 A 
HETATM    5  C   UNL     1      27.270  43.949  51.704  1.00  0.00    -0.006 A 
HETATM    6  C   UNL     1      26.899  45.229  51.270  1.00  0.00     0.046 A 
HETATM    7  N   UNL     1      25.089  42.085  49.427  1.00  0.00    -0.222 NA
HETATM    8  C   UNL     1      25.352  40.830  49.776  1.00  0.00     0.237 A 
HETATM    9  N   UNL     1      26.176  40.453  50.749  1.00  0.00    -0.229 NA
HETATM   10  C   UNL     1      26.796  41.439  51.407  1.00  0.00     0.117 A 
ENDROOT
BRANCH   5  11
HETATM   11  C   UNL     1      28.292  43.861  52.762  1.00  0.00    -0.022 A 
HETATM   12  C   UNL     1      28.147  44.569  53.969  1.00  0.00     0.052 A 
HETATM   13  C   UNL     1      29.143  44.463  54.917  1.00  0.00     0.105 A 
HETATM   14  C   UNL     1      30.249  43.670  54.722  1.00  0.00     0.105 A 
HETATM   15  O   UNL     1      29.173  45.106  56.116  1.00  0.00    -0.323 OA
HETATM   16  O   UNL     1      31.111  43.714  55.772  1.00  0.00    -0.323 OA
HETATM   17  C   UNL     1      30.420  42.937  53.571  1.00  0.00     0.040 A 
HETATM   18  C   UNL     1      30.440  44.654  56.636  1.00  0.00     0.352 A 
HETATM   19  C   UNL     1      29.432  43.037  52.584  1.00  0.00     0.015 A 
ENDBRANCH   5  11
BRANCH  10  20
HETATM   20  N   UNL     1      27.640  40.969  52.410  1.00  0.00    -0.286 NA
HETATM   21  H   UNL     1      27.373  40.010  52.616  1.00  0.00     0.125 HD
HETATM   22  H   UNL     1      27.628  41.553  53.237  1.00  0.00     0.125 HD
ENDBRANCH  10  20
BRANCH   1  23
HETATM   23  C   UNL     1      25.429  46.674  49.815  1.00  0.00    -0.007 A 
HETATM   24  C   UNL     1      24.062  46.910  49.584  1.00  0.00     0.014 A 
HETATM   25  C   UNL     1      23.603  48.142  49.099  1.00  0.00     0.007 A 
HETATM   26  C   UNL     1      24.502  49.174  48.821  1.00  0.00    -0.062 A 
HETATM   27  C   UNL     1      24.023  50.496  48.300  1.00  0.00     0.048 C 
HETATM   28  C   UNL     1      25.862  48.963  49.057  1.00  0.00     0.007 A 
HETATM   29  C   UNL     1      26.316  47.731  49.540  1.00  0.00     0.014 A 
ENDBRANCH   1  23
TORSDOF 3
ENDMDL
MODEL 7
REMARK VINA RESULT:      -8.9      3.966      5.961
REMARK  3 active torsions:
REMARK  status: ('A' for Active; 'I' for Inactive)
REMARK    1  A    between atoms: C_5  and  C_6 
REMARK    2  A    between atoms: C_10  and  C_11 
REMARK    3  A    between atoms: C_24  and  N_25 
ROOT
HETATM    1  C   UNL     1      27.245  42.773  52.061  1.00  0.00     0.070 A 
HETATM    2  N   UNL     1      26.082  43.454  51.983  1.00  0.00    -0.228 NA
HETATM    3  C   UNL     1      25.151  43.129  51.091  1.00  0.00     0.165 A 
HETATM    4  C   UNL     1      25.318  42.067  50.194  1.00  0.00     0.063 A 
HETATM    5  C   UNL     1      26.568  41.362  50.230  1.00  0.00    -0.006 A 
HETATM    6  C   UNL     1      27.523  41.740  51.183  1.00  0.00     0.046 A 
HETATM    7  N   UNL     1      24.060  43.875  51.131  1.00  0.00    -0.222 NA
HETATM    8  C   UNL     1      23.079  43.585  50.283  1.00  0.00     0.237 A 
HETATM    9  N   UNL     1      23.083  42.589  49.403  1.00  0.00    -0.229 NA
HETATM   10  C   UNL     1      24.189  41.837  49.376  1.00  0.00     0.117 A 
ENDROOT
BRANCH   5  11
HETATM   11  C   UNL     1      26.914  40.251  49.326  1.00  0.00    -0.022 A 
HETATM   12  C   UNL     1      27.436  40.498  48.043  1.00  0.00     0.052 A 
HETATM   13  C   UNL     1      27.725  39.420  47.232  1.00  0.00     0.105 A 
HETATM   14  C   UNL     1      27.541  38.125  47.654  1.00  0.00     0.105 A 
HETATM   15  O   UNL     1      28.201  39.487  45.959  1.00  0.00    -0.323 OA
HETATM   16  O   UNL     1      27.878  37.216  46.702  1.00  0.00    -0.323 OA
HETATM   17  C   UNL     1      27.061  37.834  48.910  1.00  0.00     0.040 A 
HETATM   18  C   UNL     1      28.261  38.087  45.617  1.00  0.00     0.352 A 
HETATM   19  C   UNL     1      26.744  38.909  49.749  1.00  0.00     0.015 A 
ENDBRANCH   5  11
BRANCH  10  20
HETATM   20  N   UNL     1      24.121  40.814  48.433  1.00  0.00    -0.286 NA
HETATM   21  H   UNL     1      25.068  40.487  48.260  1.00  0.00     0.125 HD
HETATM   22  H   UNL     1      23.655  41.097  47.580  1.00  0.00     0.125 HD
ENDBRANCH  10  20
BRANCH   1  23
HETATM   23  C   UNL     1      28.159  43.193  53.145  1.00  0.00    -0.007 A 
HETATM   24  C   UNL     1      27.884  44.295  53.974  1.00  0.00     0.014 A 
HETATM   25  C   UNL     1      28.782  44.705  54.969  1.00  0.00     0.007 A 
HETATM   26  C   UNL     1      29.990  44.029  55.157  1.00  0.00    -0.062 A 
HETATM   27  C   UNL     1      30.959  44.459  56.217  1.00  0.00     0.048 C 
HETATM   28  C   UNL     1      30.274  42.924  54.352  1.00  0.00     0.007 A 
HETATM   29  C   UNL     1      29.375  42.519  53.360  1.00  0.00     0.014 A 
ENDBRANCH   1  23
TORSDOF 3
ENDMDL
MODEL 8
REMARK VINA RESULT:      -8.8      3.714      6.048
REMARK  3 active torsions:
REMARK  status: ('A' for Active; 'I' for Inactive)
REMARK    1  A    between atoms: C_5  and  C_6 
REMARK    2  A    between atoms: C_10  and  C_11 
REMARK    3  A    between atoms: C_24  and  N_25 
ROOT
HETATM    1  C   UNL     1      25.489  46.574  50.538  1.00  0.00     0.070 A 
HETATM    2  N   UNL     1      26.420  47.472  50.153  1.00  0.00    -0.228 NA
HETATM    3  C   UNL     1      26.119  48.464  49.321  1.00  0.00     0.165 A 
HETATM    4  C   UNL     1      24.830  48.637  48.805  1.00  0.00     0.063 A 
HETATM    5  C   UNL     1      23.839  47.664  49.164  1.00  0.00    -0.006 A 
HETATM    6  C   UNL     1      24.199  46.631  50.040  1.00  0.00     0.046 A 
HETATM    7  N   UNL     1      27.126  49.274  49.036  1.00  0.00    -0.222 NA
HETATM    8  C   UNL     1      26.885  50.302  48.230  1.00  0.00     0.237 A 
HETATM    9  N   UNL     1      25.708  50.610  47.695  1.00  0.00    -0.229 NA
HETATM   10  C   UNL     1      24.696  49.788  47.996  1.00  0.00     0.117 A 
ENDROOT
BRANCH   5  11
HETATM   11  C   UNL     1      22.449  47.682  48.671  1.00  0.00    -0.022 A 
HETATM   12  C   UNL     1      21.484  48.521  49.258  1.00  0.00     0.052 A 
HETATM   13  C   UNL     1      20.195  48.484  48.768  1.00  0.00     0.105 A 
HETATM   14  C   UNL     1      19.843  47.674  47.715  1.00  0.00     0.105 A 
HETATM   15  O   UNL     1      19.142  49.202  49.243  1.00  0.00    -0.323 OA
HETATM   16  O   UNL     1      18.526  47.782  47.395  1.00  0.00    -0.323 OA
HETATM   17  C   UNL     1      20.759  46.859  47.091  1.00  0.00     0.040 A 
HETATM   18  C   UNL     1      18.081  48.725  48.392  1.00  0.00     0.352 A 
HETATM   19  C   UNL     1      22.071  46.864  47.577  1.00  0.00     0.015 A 
ENDBRANCH   5  11
BRANCH  10  20
HETATM   20  N   UNL     1      23.496  50.173  47.403  1.00  0.00    -0.286 NA
HETATM   21  H   UNL     1      23.442  51.188  47.441  1.00  0.00     0.125 HD
HETATM   22  H   UNL     1      22.689  49.733  47.828  1.00  0.00     0.125 HD
ENDBRANCH  10  20
BRANCH   1  23
HETATM   23  C   UNL     1      25.941  45.567  51.522  1.00  0.00    -0.007 A 
HETATM   24  C   UNL     1      25.383  45.471  52.809  1.00  0.00     0.014 A 
HETATM   25  C   UNL     1      25.852  44.538  53.744  1.00  0.00     0.007 A 
HETATM   26  C   UNL     1      26.904  43.678  53.420  1.00  0.00    -0.062 A 
HETATM   27  C   UNL     1      27.416  42.677  54.412  1.00  0.00     0.048 C 
HETATM   28  C   UNL     1      27.462  43.749  52.142  1.00  0.00     0.007 A 
HETATM   29  C   UNL     1      26.991  44.682  51.213  1.00  0.00     0.014 A 
ENDBRANCH   1  23
TORSDOF 3
ENDMDL
MODEL 9
REMARK VINA RESULT:      -8.6      2.206      2.937
REMARK  3 active torsions:
REMARK  status: ('A' for Active; 'I' for Inactive)
REMARK    1  A    between atoms: C_5  and  C_6 
REMARK    2  A    between atoms: C_10  and  C_11 
REMARK    3  A    between atoms: C_24  and  N_25 
ROOT
HETATM    1  C   UNL     1      27.985  42.929  52.597  1.00  0.00     0.070 A 
HETATM    2  N   UNL     1      28.528  41.792  52.112  1.00  0.00    -0.228 NA
HETATM    3  C   UNL     1      28.003  41.172  51.060  1.00  0.00     0.165 A 
HETATM    4  C   UNL     1      26.872  41.661  50.395  1.00  0.00     0.063 A 
HETATM    5  C   UNL     1      26.253  42.842  50.926  1.00  0.00    -0.006 A 
HETATM    6  C   UNL     1      26.836  43.462  52.039  1.00  0.00     0.046 A 
HETATM    7  N   UNL     1      28.641  40.074  50.689  1.00  0.00    -0.222 NA
HETATM    8  C   UNL     1      28.183  39.420  49.626  1.00  0.00     0.237 A 
HETATM    9  N   UNL     1      27.145  39.784  48.880  1.00  0.00    -0.229 NA
HETATM   10  C   UNL     1      26.512  40.899  49.261  1.00  0.00     0.117 A 
ENDROOT
BRANCH   5  11
HETATM   11  C   UNL     1      25.035  43.456  50.367  1.00  0.00    -0.022 A 
HETATM   12  C   UNL     1      25.096  44.672  49.663  1.00  0.00     0.052 A 
HETATM   13  C   UNL     1      23.922  45.210  49.177  1.00  0.00     0.105 A 
HETATM   14  C   UNL     1      22.712  44.578  49.340  1.00  0.00     0.105 A 
HETATM   15  O   UNL     1      23.804  46.388  48.508  1.00  0.00    -0.323 OA
HETATM   16  O   UNL     1      21.683  45.278  48.796  1.00  0.00    -0.323 OA
HETATM   17  C   UNL     1      22.608  43.373  49.996  1.00  0.00     0.040 A 
HETATM   18  C   UNL     1      22.377  46.443  48.302  1.00  0.00     0.352 A 
HETATM   19  C   UNL     1      23.781  42.811  50.514  1.00  0.00     0.015 A 
ENDBRANCH   5  11
BRANCH  10  20
HETATM   20  N   UNL     1      25.439  41.218  48.432  1.00  0.00    -0.286 NA
HETATM   21  H   UNL     1      25.074  42.120  48.729  1.00  0.00     0.125 HD
HETATM   22  H   UNL     1      24.723  40.503  48.424  1.00  0.00     0.125 HD
ENDBRANCH  10  20
BRANCH   1  23
HETATM   23  C   UNL     1      28.711  43.553  53.724  1.00  0.00    -0.007 A 
HETATM   24  C   UNL     1      29.894  43.005  54.251  1.00  0.00     0.014 A 
HETATM   25  C   UNL     1      30.546  43.586  55.347  1.00  0.00     0.007 A 
HETATM   26  C   UNL     1      30.026  44.730  55.957  1.00  0.00    -0.062 A 
HETATM   27  C   UNL     1      30.713  45.360  57.131  1.00  0.00     0.048 C 
HETATM   28  C   UNL     1      28.859  45.297  55.440  1.00  0.00     0.007 A 
HETATM   29  C   UNL     1      28.211  44.713  54.345  1.00  0.00     0.014 A 
ENDBRANCH   1  23
TORSDOF 3
ENDMDL
MODEL 10
REMARK VINA RESULT:      -8.5      2.811      7.176
REMARK  3 active torsions:
REMARK  status: ('A' for Active; 'I' for Inactive)
REMARK    1  A    between atoms: C_5  and  C_6 
REMARK    2  A    between atoms: C_10  and  C_11 
REMARK    3  A    between atoms: C_24  and  N_25 
ROOT
HETATM    1  C   UNL     1      24.663  45.899  49.634  1.00  0.00     0.070 A 
HETATM    2  N   UNL     1      24.184  44.931  48.823  1.00  0.00    -0.228 NA
HETATM    3  C   UNL     1      24.483  43.652  49.027  1.00  0.00     0.165 A 
HETATM    4  C   UNL     1      25.298  43.237  50.086  1.00  0.00     0.063 A 
HETATM    5  C   UNL     1      25.855  44.256  50.929  1.00  0.00    -0.006 A 
HETATM    6  C   UNL     1      25.518  45.593  50.677  1.00  0.00     0.046 A 
HETATM    7  N   UNL     1      23.940  42.811  48.162  1.00  0.00    -0.222 NA
HETATM    8  C   UNL     1      24.178  41.514  48.325  1.00  0.00     0.237 A 
HETATM    9  N   UNL     1      24.900  40.975  49.301  1.00  0.00    -0.229 NA
HETATM   10  C   UNL     1      25.439  41.834  50.174  1.00  0.00     0.117 A 
ENDROOT
BRANCH   5  11
HETATM   11  C   UNL     1      26.763  43.987  52.058  1.00  0.00    -0.022 A 
HETATM   12  C   UNL     1      28.136  43.760  51.845  1.00  0.00     0.052 A 
HETATM   13  C   UNL     1      28.936  43.495  52.937  1.00  0.00     0.105 A 
HETATM   14  C   UNL     1      28.433  43.473  54.217  1.00  0.00     0.105 A 
HETATM   15  O   UNL     1      30.268  43.222  52.900  1.00  0.00    -0.323 OA
HETATM   16  O   UNL     1      29.385  43.185  55.143  1.00  0.00    -0.323 OA
HETATM   17  C   UNL     1      27.104  43.717  54.476  1.00  0.00     0.040 A 
HETATM   18  C   UNL     1      30.538  42.991  54.298  1.00  0.00     0.352 A 
HETATM   19  C   UNL     1      26.265  43.973  53.386  1.00  0.00     0.015 A 
ENDBRANCH   5  11
BRANCH  10  20
HETATM   20  N   UNL     1      26.180  41.198  51.168  1.00  0.00    -0.286 NA
HETATM   21  H   UNL     1      26.891  41.849  51.490  1.00  0.00     0.125 HD
HETATM   22  H   UNL     1      26.579  40.321  50.858  1.00  0.00     0.125 HD
ENDBRANCH  10  20
BRANCH   1  23
HETATM   23  C   UNL     1      24.193  47.270  49.337  1.00  0.00    -0.007 A 
HETATM   24  C   UNL     1      22.836  47.568  49.116  1.00  0.00     0.014 A 
HETATM   25  C   UNL     1      22.414  48.865  48.795  1.00  0.00     0.007 A 
HETATM   26  C   UNL     1      23.341  49.903  48.674  1.00  0.00    -0.062 A 
HETATM   27  C   UNL     1      22.902  51.294  48.329  1.00  0.00     0.048 C 
HETATM   28  C   UNL     1      24.691  49.629  48.903  1.00  0.00     0.007 A 
HETATM   29  C   UNL     1      25.108  48.332  49.223  1.00  0.00     0.014 A 
ENDBRANCH   1  23
TORSDOF 3
ENDMDL
