MODEL 1
REMARK VINA RESULT:      -8.1      0.000      0.000
REMARK  7 active torsions:
REMARK  status: ('A' for Active; 'I' for Inactive)
REMARK    1  A    between atoms: O_2  and  C_3 
REMARK    2  A    between atoms: C_4  and  C_5 
REMARK    3  A    between atoms: C_5  and  N_6 
REMARK    4  A    between atoms: N_6  and  C_7 
REMARK    5  A    between atoms: C_9  and  N_10 
REMARK    6  A    between atoms: N_10  and  C_11 
REMARK    7  A    between atoms: C_11  and  C_12 
ROOT
HETATM    1  C   UNL     1      28.366  42.448  52.892  1.00  0.00     0.119 A 
HETATM    2  N   UNL     1      28.682  41.192  52.521  1.00  0.00    -0.207 NA
HETATM    3  C   UNL     1      28.292  40.777  51.310  1.00  0.00     0.181 A 
HETATM    4  N   UNL     1      27.640  41.550  50.451  1.00  0.00    -0.330 N 
HETATM    5  H   UNL     1      27.469  41.173  49.529  1.00  0.00     0.168 HD
HETATM    6  C   UNL     1      27.263  42.789  50.780  1.00  0.00     0.048 A 
HETATM    7  C   UNL     1      27.593  43.289  52.057  1.00  0.00     0.031 A 
HETATM    8  C   UNL     1      26.552  43.572  49.860  1.00  0.00     0.030 A 
HETATM    9  C   UNL     1      26.143  44.859  50.204  1.00  0.00     0.002 A 
HETATM   10  C   UNL     1      26.434  45.365  51.467  1.00  0.00     0.001 A 
HETATM   11  C   UNL     1      27.148  44.592  52.387  1.00  0.00     0.017 A 
ENDROOT
BRANCH   1  12
HETATM   12  N   UNL     1      28.751  42.896  54.164  1.00  0.00    -0.272 NA
HETATM   13  H   UNL     1      28.130  43.627  54.499  1.00  0.00     0.129 HD
BRANCH  12  14
HETATM   14  C   UNL     1      30.138  43.356  54.325  1.00  0.00     0.135 C 
BRANCH  14  15
HETATM   15  C   UNL     1      30.427  43.997  55.662  1.00  0.00    -0.012 A 
HETATM   16  C   UNL     1      29.781  45.208  55.975  1.00  0.00     0.075 A 
HETATM   17  C   UNL     1      29.952  45.811  57.224  1.00  0.00     0.037 A 
HETATM   18  C   UNL     1      30.810  45.236  58.160  1.00  0.00     0.003 A 
HETATM   19  C   UNL     1      31.487  44.058  57.852  1.00  0.00     0.001 A 
HETATM   20  C   UNL     1      31.294  43.439  56.614  1.00  0.00     0.011 A 
BRANCH  16  21
HETATM   21  O   UNL     1      28.928  45.720  55.028  1.00  0.00    -0.355 OA
HETATM   22  C   UNL     1      28.073  46.746  55.529  1.00  0.00     0.210 C 
ENDBRANCH  16  21
ENDBRANCH  14  15
ENDBRANCH  12  14
ENDBRANCH   1  12
BRANCH   3  23
HETATM   23  N   UNL     1      28.669  39.500  50.923  1.00  0.00    -0.259 NA
HETATM   24  H   UNL     1      28.492  38.920  51.749  1.00  0.00     0.130 HD
BRANCH  23  25
HETATM   25  C   UNL     1      27.991  38.947  49.760  1.00  0.00     0.121 C 
BRANCH  25  26
HETATM   26  C   UNL     1      28.996  38.136  49.000  1.00  0.00    -0.022 C 
HETATM   27  C   UNL     1      30.320  38.147  49.207  1.00  0.00     0.008 C 
ENDBRANCH  25  26
ENDBRANCH  23  25
ENDBRANCH   3  23
TORSDOF 7
ENDMDL
MODEL 2
REMARK VINA RESULT:      -7.8      2.042      7.217
REMARK  7 active torsions:
REMARK  status: ('A' for Active; 'I' for Inactive)
REMARK    1  A    between atoms: O_2  and  C_3 
REMARK    2  A    between atoms: C_4  and  C_5 
REMARK    3  A    between atoms: C_5  and  N_6 
REMARK    4  A    between atoms: N_6  and  C_7 
REMARK    5  A    between atoms: C_9  and  N_10 
REMARK    6  A    between atoms: N_10  and  C_11 
REMARK    7  A    between atoms: C_11  and  C_12 
ROOT
HETATM    1  C   UNL     1      29.247  44.141  54.482  1.00  0.00     0.119 A 
HETATM    2  N   UNL     1      28.235  45.007  54.281  1.00  0.00    -0.207 NA
HETATM    3  C   UNL     1      28.026  45.956  55.203  1.00  0.00     0.181 A 
HETATM    4  N   UNL     1      28.784  46.100  56.282  1.00  0.00    -0.330 N 
HETATM    5  H   UNL     1      28.600  46.901  56.871  1.00  0.00     0.168 HD
HETATM    6  C   UNL     1      29.774  45.245  56.555  1.00  0.00     0.048 A 
HETATM    7  C   UNL     1      30.033  44.188  55.658  1.00  0.00     0.031 A 
HETATM    8  C   UNL     1      30.540  45.410  57.717  1.00  0.00     0.030 A 
HETATM    9  C   UNL     1      31.564  44.513  58.013  1.00  0.00     0.002 A 
HETATM   10  C   UNL     1      31.821  43.447  57.158  1.00  0.00     0.001 A 
HETATM   11  C   UNL     1      31.065  43.280  55.994  1.00  0.00     0.017 A 
ENDROOT
BRANCH   1  12
HETATM   12  N   UNL     1      29.472  43.131  53.536  1.00  0.00    -0.272 NA
HETATM   13  H   UNL     1      29.553  43.516  52.599  1.00  0.00     0.129 HD
BRANCH  12  14
HETATM   14  C   UNL     1      28.512  42.017  53.498  1.00  0.00     0.135 C 
BRANCH  14  15
HETATM   15  C   UNL     1      28.254  41.469  52.114  1.00  0.00    -0.012 A 
HETATM   16  C   UNL     1      27.446  42.220  51.239  1.00  0.00     0.075 A 
HETATM   17  C   UNL     1      27.230  41.801  49.923  1.00  0.00     0.037 A 
HETATM   18  C   UNL     1      27.781  40.599  49.480  1.00  0.00     0.003 A 
HETATM   19  C   UNL     1      28.551  39.825  50.344  1.00  0.00     0.001 A 
HETATM   20  C   UNL     1      28.791  40.259  51.651  1.00  0.00     0.011 A 
BRANCH  16  21
HETATM   21  O   UNL     1      26.947  43.407  51.717  1.00  0.00    -0.355 OA
HETATM   22  C   UNL     1      25.522  43.470  51.703  1.00  0.00     0.210 C 
ENDBRANCH  16  21
ENDBRANCH  14  15
ENDBRANCH  12  14
ENDBRANCH   1  12
BRANCH   3  23
HETATM   23  N   UNL     1      27.013  46.870  54.957  1.00  0.00    -0.259 NA
HETATM   24  H   UNL     1      27.482  47.651  54.488  1.00  0.00     0.130 HD
BRANCH  23  25
HETATM   25  C   UNL     1      25.892  46.398  54.158  1.00  0.00     0.121 C 
BRANCH  25  26
HETATM   26  C   UNL     1      25.727  47.350  53.012  1.00  0.00    -0.022 C 
HETATM   27  C   UNL     1      25.694  47.006  51.716  1.00  0.00     0.008 C 
ENDBRANCH  25  26
ENDBRANCH  23  25
ENDBRANCH   3  23
TORSDOF 7
ENDMDL
MODEL 3
REMARK VINA RESULT:      -7.7      1.928      4.386
REMARK  7 active torsions:
REMARK  status: ('A' for Active; 'I' for Inactive)
REMARK    1  A    between atoms: O_2  and  C_3 
REMARK    2  A    between atoms: C_4  and  C_5 
REMARK    3  A    between atoms: C_5  and  N_6 
REMARK    4  A    between atoms: N_6  and  C_7 
REMARK    5  A    between atoms: C_9  and  N_10 
REMARK    6  A    between atoms: N_10  and  C_11 
REMARK    7  A    between atoms: C_11  and  C_12 
ROOT
HETATM    1  C   UNL     1      27.659  43.742  52.725  1.00  0.00     0.119 A 
HETATM    2  N   UNL     1      27.121  44.971  52.604  1.00  0.00    -0.207 NA
HETATM    3  C   UNL     1      26.536  45.290  51.442  1.00  0.00     0.181 A 
HETATM    4  N   UNL     1      26.434  44.446  50.424  1.00  0.00    -0.330 N 
HETATM    5  H   UNL     1      25.895  44.751  49.625  1.00  0.00     0.168 HD
HETATM    6  C   UNL     1      26.985  43.230  50.472  1.00  0.00     0.048 A 
HETATM    7  C   UNL     1      27.662  42.830  51.643  1.00  0.00     0.031 A 
HETATM    8  C   UNL     1      26.883  42.370  49.368  1.00  0.00     0.030 A 
HETATM    9  C   UNL     1      27.468  41.107  49.408  1.00  0.00     0.002 A 
HETATM   10  C   UNL     1      28.165  40.701  50.542  1.00  0.00     0.001 A 
HETATM   11  C   UNL     1      28.266  41.550  51.648  1.00  0.00     0.017 A 
ENDROOT
BRANCH   1  12
HETATM   12  N   UNL     1      28.292  43.395  53.927  1.00  0.00    -0.272 NA
HETATM   13  H   UNL     1      27.854  43.858  54.719  1.00  0.00     0.129 HD
BRANCH  12  14
HETATM   14  C   UNL     1      29.745  43.608  54.010  1.00  0.00     0.135 C 
BRANCH  14  15
HETATM   15  C   UNL     1      30.235  44.000  55.385  1.00  0.00    -0.012 A 
HETATM   16  C   UNL     1      29.840  45.248  55.903  1.00  0.00     0.075 A 
HETATM   17  C   UNL     1      30.202  45.635  57.196  1.00  0.00     0.037 A 
HETATM   18  C   UNL     1      31.005  44.800  57.971  1.00  0.00     0.003 A 
HETATM   19  C   UNL     1      31.437  43.578  57.459  1.00  0.00     0.001 A 
HETATM   20  C   UNL     1      31.051  43.178  56.177  1.00  0.00     0.011 A 
BRANCH  16  21
HETATM   21  O   UNL     1      29.031  46.023  55.109  1.00  0.00    -0.355 OA
HETATM   22  C   UNL     1      27.987  46.677  55.829  1.00  0.00     0.210 C 
ENDBRANCH  16  21
ENDBRANCH  14  15
ENDBRANCH  12  14
ENDBRANCH   1  12
BRANCH   3  23
HETATM   23  N   UNL     1      25.943  46.540  51.351  1.00  0.00    -0.259 NA
HETATM   24  H   UNL     1      26.699  47.197  51.565  1.00  0.00     0.130 HD
BRANCH  23  25
HETATM   25  C   UNL     1      25.324  46.873  50.077  1.00  0.00     0.121 C 
BRANCH  25  26
HETATM   26  C   UNL     1      25.927  48.164  49.611  1.00  0.00    -0.022 C 
HETATM   27  C   UNL     1      27.223  48.360  49.332  1.00  0.00     0.008 C 
ENDBRANCH  25  26
ENDBRANCH  23  25
ENDBRANCH   3  23
TORSDOF 7
ENDMDL
MODEL 4
REMARK VINA RESULT:      -7.7      2.150      7.063
REMARK  7 active torsions:
REMARK  status: ('A' for Active; 'I' for Inactive)
REMARK    1  A    between atoms: O_2  and  C_3 
REMARK    2  A    between atoms: C_4  and  C_5 
REMARK    3  A    between atoms: C_5  and  N_6 
REMARK    4  A    between atoms: N_6  and  C_7 
REMARK    5  A    between atoms: C_9  and  N_10 
REMARK    6  A    between atoms: N_10  and  C_11 
REMARK    7  A    between atoms: C_11  and  C_12 
ROOT
HETATM    1  C   UNL     1      28.843  43.180  52.958  1.00  0.00     0.119 A 
HETATM    2  N   UNL     1      27.711  43.705  52.449  1.00  0.00    -0.207 NA
HETATM    3  C   UNL     1      27.162  44.749  53.082  1.00  0.00     0.181 A 
HETATM    4  N   UNL     1      27.695  45.307  54.161  1.00  0.00    -0.330 N 
HETATM    5  H   UNL     1      27.254  46.146  54.512  1.00  0.00     0.168 HD
HETATM    6  C   UNL     1      28.792  44.803  54.735  1.00  0.00     0.048 A 
HETATM    7  C   UNL     1      29.409  43.673  54.158  1.00  0.00     0.031 A 
HETATM    8  C   UNL     1      29.316  45.400  55.890  1.00  0.00     0.030 A 
HETATM    9  C   UNL     1      30.450  44.870  56.499  1.00  0.00     0.002 A 
HETATM   10  C   UNL     1      31.061  43.739  55.965  1.00  0.00     0.001 A 
HETATM   11  C   UNL     1      30.548  43.143  54.809  1.00  0.00     0.017 A 
ENDROOT
BRANCH   1  12
HETATM   12  N   UNL     1      29.424  42.075  52.319  1.00  0.00    -0.272 NA
HETATM   13  H   UNL     1      29.569  42.257  51.330  1.00  0.00     0.129 HD
BRANCH  12  14
HETATM   14  C   UNL     1      28.741  40.780  52.458  1.00  0.00     0.135 C 
BRANCH  14  15
HETATM   15  C   UNL     1      28.931  39.851  51.281  1.00  0.00    -0.012 A 
HETATM   16  C   UNL     1      28.359  40.214  50.046  1.00  0.00     0.075 A 
HETATM   17  C   UNL     1      28.560  39.433  48.905  1.00  0.00     0.037 A 
HETATM   18  C   UNL     1      29.296  38.252  48.994  1.00  0.00     0.003 A 
HETATM   19  C   UNL     1      29.836  37.859  50.216  1.00  0.00     0.001 A 
HETATM   20  C   UNL     1      29.659  38.655  51.351  1.00  0.00     0.011 A 
BRANCH  16  21
HETATM   21  O   UNL     1      27.664  41.398  50.007  1.00  0.00    -0.355 OA
HETATM   22  C   UNL     1      27.113  41.691  48.724  1.00  0.00     0.210 C 
ENDBRANCH  16  21
ENDBRANCH  14  15
ENDBRANCH  12  14
ENDBRANCH   1  12
BRANCH   3  23
HETATM   23  N   UNL     1      26.027  45.309  52.518  1.00  0.00    -0.259 NA
HETATM   24  H   UNL     1      25.255  44.955  53.092  1.00  0.00     0.130 HD
BRANCH  23  25
HETATM   25  C   UNL     1      25.984  46.762  52.452  1.00  0.00     0.121 C 
BRANCH  25  26
HETATM   26  C   UNL     1      25.626  47.136  51.045  1.00  0.00    -0.022 C 
HETATM   27  C   UNL     1      26.438  47.035  49.984  1.00  0.00     0.008 C 
ENDBRANCH  25  26
ENDBRANCH  23  25
ENDBRANCH   3  23
TORSDOF 7
ENDMDL
MODEL 5
REMARK VINA RESULT:      -7.7      2.076      5.833
REMARK  7 active torsions:
REMARK  status: ('A' for Active; 'I' for Inactive)
REMARK    1  A    between atoms: O_2  and  C_3 
REMARK    2  A    between atoms: C_4  and  C_5 
REMARK    3  A    between atoms: C_5  and  N_6 
REMARK    4  A    between atoms: N_6  and  C_7 
REMARK    5  A    between atoms: C_9  and  N_10 
REMARK    6  A    between atoms: N_10  and  C_11 
REMARK    7  A    between atoms: C_11  and  C_12 
ROOT
HETATM    1  C   UNL     1      27.377  44.222  54.353  1.00  0.00     0.119 A 
HETATM    2  N   UNL     1      27.045  43.153  53.603  1.00  0.00    -0.207 NA
HETATM    3  C   UNL     1      27.947  42.172  53.471  1.00  0.00     0.181 A 
HETATM    4  N   UNL     1      29.132  42.190  54.066  1.00  0.00    -0.330 N 
HETATM    5  H   UNL     1      29.705  41.362  53.977  1.00  0.00     0.168 HD
HETATM    6  C   UNL     1      29.532  43.242  54.787  1.00  0.00     0.048 A 
HETATM    7  C   UNL     1      28.660  44.339  54.938  1.00  0.00     0.031 A 
HETATM    8  C   UNL     1      30.802  43.240  55.382  1.00  0.00     0.030 A 
HETATM    9  C   UNL     1      31.229  44.340  56.122  1.00  0.00     0.002 A 
HETATM   10  C   UNL     1      30.397  45.447  56.263  1.00  0.00     0.001 A 
HETATM   11  C   UNL     1      29.128  45.452  55.678  1.00  0.00     0.017 A 
ENDROOT
BRANCH   1  12
HETATM   12  N   UNL     1      26.452  45.267  54.490  1.00  0.00    -0.272 NA
HETATM   13  H   UNL     1      26.197  45.406  55.464  1.00  0.00     0.129 HD
BRANCH  12  14
HETATM   14  C   UNL     1      25.219  45.184  53.694  1.00  0.00     0.135 C 
BRANCH  14  15
HETATM   15  C   UNL     1      25.329  45.794  52.316  1.00  0.00    -0.012 A 
HETATM   16  C   UNL     1      24.710  45.128  51.240  1.00  0.00     0.075 A 
HETATM   17  C   UNL     1      24.716  45.679  49.956  1.00  0.00     0.037 A 
HETATM   18  C   UNL     1      25.383  46.880  49.720  1.00  0.00     0.003 A 
HETATM   19  C   UNL     1      26.034  47.532  50.765  1.00  0.00     0.001 A 
HETATM   20  C   UNL     1      26.003  46.996  52.055  1.00  0.00     0.011 A 
BRANCH  16  21
HETATM   21  O   UNL     1      24.046  43.961  51.531  1.00  0.00    -0.355 OA
HETATM   22  C   UNL     1      24.588  42.820  50.867  1.00  0.00     0.210 C 
ENDBRANCH  16  21
ENDBRANCH  14  15
ENDBRANCH  12  14
ENDBRANCH   1  12
BRANCH   3  23
HETATM   23  N   UNL     1      27.571  41.057  52.738  1.00  0.00    -0.259 NA
HETATM   24  H   UNL     1      26.688  41.329  52.293  1.00  0.00     0.130 HD
BRANCH  23  25
HETATM   25  C   UNL     1      28.518  40.588  51.738  1.00  0.00     0.121 C 
BRANCH  25  26
HETATM   26  C   UNL     1      27.808  40.575  50.418  1.00  0.00    -0.022 C 
HETATM   27  C   UNL     1      27.985  39.665  49.451  1.00  0.00     0.008 C 
ENDBRANCH  25  26
ENDBRANCH  23  25
ENDBRANCH   3  23
TORSDOF 7
ENDMDL
MODEL 6
REMARK VINA RESULT:      -7.4      4.301      7.824
REMARK  7 active torsions:
REMARK  status: ('A' for Active; 'I' for Inactive)
REMARK    1  A    between atoms: O_2  and  C_3 
REMARK    2  A    between atoms: C_4  and  C_5 
REMARK    3  A    between atoms: C_5  and  N_6 
REMARK    4  A    between atoms: N_6  and  C_7 
REMARK    5  A    between atoms: C_9  and  N_10 
REMARK    6  A    between atoms: N_10  and  C_11 
REMARK    7  A    between atoms: C_11  and  C_12 
ROOT
HETATM    1  C   UNL     1      24.968  46.083  51.779  1.00  0.00     0.119 A 
HETATM    2  N   UNL     1      24.554  44.891  51.306  1.00  0.00    -0.207 NA
HETATM    3  C   UNL     1      24.982  43.785  51.927  1.00  0.00     0.181 A 
HETATM    4  N   UNL     1      25.763  43.809  52.999  1.00  0.00    -0.330 N 
HETATM    5  H   UNL     1      25.958  42.924  53.448  1.00  0.00     0.168 HD
HETATM    6  C   UNL     1      26.239  44.959  53.486  1.00  0.00     0.048 A 
HETATM    7  C   UNL     1      25.874  46.170  52.861  1.00  0.00     0.031 A 
HETATM    8  C   UNL     1      27.085  44.949  54.604  1.00  0.00     0.030 A 
HETATM    9  C   UNL     1      27.595  46.144  55.107  1.00  0.00     0.002 A 
HETATM   10  C   UNL     1      27.271  47.349  54.492  1.00  0.00     0.001 A 
HETATM   11  C   UNL     1      26.423  47.367  53.380  1.00  0.00     0.017 A 
ENDROOT
BRANCH   1  12
HETATM   12  N   UNL     1      24.544  47.252  51.132  1.00  0.00    -0.272 NA
HETATM   13  H   UNL     1      23.903  47.783  51.715  1.00  0.00     0.129 HD
BRANCH  12  14
HETATM   14  C   UNL     1      23.943  47.105  49.797  1.00  0.00     0.135 C 
BRANCH  14  15
HETATM   15  C   UNL     1      23.437  48.397  49.200  1.00  0.00    -0.012 A 
HETATM   16  C   UNL     1      24.381  49.372  48.824  1.00  0.00     0.075 A 
HETATM   17  C   UNL     1      23.980  50.557  48.200  1.00  0.00     0.037 A 
HETATM   18  C   UNL     1      22.624  50.803  47.988  1.00  0.00     0.003 A 
HETATM   19  C   UNL     1      21.675  49.866  48.389  1.00  0.00     0.001 A 
HETATM   20  C   UNL     1      22.078  48.669  48.986  1.00  0.00     0.011 A 
BRANCH  16  21
HETATM   21  O   UNL     1      25.705  49.070  49.033  1.00  0.00    -0.355 OA
HETATM   22  C   UNL     1      26.599  49.881  48.274  1.00  0.00     0.210 C 
ENDBRANCH  16  21
ENDBRANCH  14  15
ENDBRANCH  12  14
ENDBRANCH   1  12
BRANCH   3  23
HETATM   23  N   UNL     1      24.507  42.569  51.460  1.00  0.00    -0.259 NA
HETATM   24  H   UNL     1      23.491  42.627  51.585  1.00  0.00     0.130 HD
BRANCH  23  25
HETATM   25  C   UNL     1      24.830  42.231  50.083  1.00  0.00     0.121 C 
BRANCH  25  26
HETATM   26  C   UNL     1      26.291  41.901  50.034  1.00  0.00    -0.022 C 
HETATM   27  C   UNL     1      27.040  41.854  48.923  1.00  0.00     0.008 C 
ENDBRANCH  25  26
ENDBRANCH  23  25
ENDBRANCH   3  23
TORSDOF 7
ENDMDL
MODEL 7
REMARK VINA RESULT:      -7.4      2.422      7.383
REMARK  7 active torsions:
REMARK  status: ('A' for Active; 'I' for Inactive)
REMARK    1  A    between atoms: O_2  and  C_3 
REMARK    2  A    between atoms: C_4  and  C_5 
REMARK    3  A    between atoms: C_5  and  N_6 
REMARK    4  A    between atoms: N_6  and  C_7 
REMARK    5  A    between atoms: C_9  and  N_10 
REMARK    6  A    between atoms: N_10  and  C_11 
REMARK    7  A    between atoms: C_11  and  C_12 
ROOT
HETATM    1  C   UNL     1      28.060  43.017  53.077  1.00  0.00     0.119 A 
HETATM    2  N   UNL     1      26.888  43.589  52.741  1.00  0.00    -0.207 NA
HETATM    3  C   UNL     1      26.544  44.727  53.356  1.00  0.00     0.181 A 
HETATM    4  N   UNL     1      27.314  45.330  54.252  1.00  0.00    -0.330 N 
HETATM    5  H   UNL     1      27.006  46.231  54.593  1.00  0.00     0.168 HD
HETATM    6  C   UNL     1      28.466  44.787  54.657  1.00  0.00     0.048 A 
HETATM    7  C   UNL     1      28.881  43.563  54.092  1.00  0.00     0.031 A 
HETATM    8  C   UNL     1      29.244  45.436  55.626  1.00  0.00     0.030 A 
HETATM    9  C   UNL     1      30.439  44.867  56.060  1.00  0.00     0.002 A 
HETATM   10  C   UNL     1      30.856  43.647  55.538  1.00  0.00     0.001 A 
HETATM   11  C   UNL     1      30.089  42.998  54.567  1.00  0.00     0.017 A 
ENDROOT
BRANCH   1  12
HETATM   12  N   UNL     1      28.430  41.815  52.456  1.00  0.00    -0.272 NA
HETATM   13  H   UNL     1      29.208  41.957  51.817  1.00  0.00     0.129 HD
BRANCH  12  14
HETATM   14  C   UNL     1      27.378  41.069  51.750  1.00  0.00     0.135 C 
BRANCH  14  15
HETATM   15  C   UNL     1      27.666  40.830  50.286  1.00  0.00    -0.012 A 
HETATM   16  C   UNL     1      28.603  39.835  49.944  1.00  0.00     0.075 A 
HETATM   17  C   UNL     1      28.858  39.518  48.607  1.00  0.00     0.037 A 
HETATM   18  C   UNL     1      28.215  40.225  47.592  1.00  0.00     0.003 A 
HETATM   19  C   UNL     1      27.314  41.238  47.913  1.00  0.00     0.001 A 
HETATM   20  C   UNL     1      27.037  41.536  49.250  1.00  0.00     0.011 A 
BRANCH  16  21
HETATM   21  O   UNL     1      29.191  39.153  50.981  1.00  0.00    -0.355 OA
HETATM   22  C   UNL     1      29.668  37.860  50.611  1.00  0.00     0.210 C 
ENDBRANCH  16  21
ENDBRANCH  14  15
ENDBRANCH  12  14
ENDBRANCH   1  12
BRANCH   3  23
HETATM   23  N   UNL     1      25.359  45.330  52.962  1.00  0.00    -0.259 NA
HETATM   24  H   UNL     1      25.349  46.224  53.464  1.00  0.00     0.130 HD
BRANCH  23  25
HETATM   25  C   UNL     1      25.185  45.548  51.535  1.00  0.00     0.121 C 
BRANCH  25  26
HETATM   26  C   UNL     1      25.340  47.018  51.284  1.00  0.00    -0.022 C 
HETATM   27  C   UNL     1      26.245  47.575  50.467  1.00  0.00     0.008 C 
ENDBRANCH  25  26
ENDBRANCH  23  25
ENDBRANCH   3  23
TORSDOF 7
ENDMDL
MODEL 8
REMARK VINA RESULT:      -7.3      2.232      5.175
REMARK  7 active torsions:
REMARK  status: ('A' for Active; 'I' for Inactive)
REMARK    1  A    between atoms: O_2  and  C_3 
REMARK    2  A    between atoms: C_4  and  C_5 
REMARK    3  A    between atoms: C_5  and  N_6 
REMARK    4  A    between atoms: N_6  and  C_7 
REMARK    5  A    between atoms: C_9  and  N_10 
REMARK    6  A    between atoms: N_10  and  C_11 
REMARK    7  A    between atoms: C_11  and  C_12 
ROOT
HETATM    1  C   UNL     1      27.510  43.419  51.408  1.00  0.00     0.119 A 
HETATM    2  N   UNL     1      27.280  44.667  50.955  1.00  0.00    -0.207 NA
HETATM    3  C   UNL     1      26.669  44.804  49.772  1.00  0.00     0.181 A 
HETATM    4  N   UNL     1      26.255  43.775  49.044  1.00  0.00    -0.330 N 
HETATM    5  H   UNL     1      25.725  43.985  48.208  1.00  0.00     0.168 HD
HETATM    6  C   UNL     1      26.495  42.516  49.422  1.00  0.00     0.048 A 
HETATM    7  C   UNL     1      27.175  42.283  50.635  1.00  0.00     0.031 A 
HETATM    8  C   UNL     1      26.067  41.450  48.617  1.00  0.00     0.030 A 
HETATM    9  C   UNL     1      26.327  40.136  48.999  1.00  0.00     0.002 A 
HETATM   10  C   UNL     1      27.020  39.881  50.179  1.00  0.00     0.001 A 
HETATM   11  C   UNL     1      27.443  40.939  50.989  1.00  0.00     0.017 A 
ENDROOT
BRANCH   1  12
HETATM   12  N   UNL     1      28.163  43.255  52.638  1.00  0.00    -0.272 NA
HETATM   13  H   UNL     1      28.587  42.333  52.708  1.00  0.00     0.129 HD
BRANCH  12  14
HETATM   14  C   UNL     1      27.377  43.499  53.856  1.00  0.00     0.135 C 
BRANCH  14  15
HETATM   15  C   UNL     1      27.341  44.946  54.291  1.00  0.00    -0.012 A 
HETATM   16  C   UNL     1      28.475  45.476  54.938  1.00  0.00     0.075 A 
HETATM   17  C   UNL     1      28.529  46.825  55.298  1.00  0.00     0.037 A 
HETATM   18  C   UNL     1      27.431  47.651  55.061  1.00  0.00     0.003 A 
HETATM   19  C   UNL     1      26.288  47.133  54.456  1.00  0.00     0.001 A 
HETATM   20  C   UNL     1      26.244  45.791  54.069  1.00  0.00     0.011 A 
BRANCH  16  21
HETATM   21  O   UNL     1      29.537  44.626  55.127  1.00  0.00    -0.355 OA
HETATM   22  C   UNL     1      30.434  45.058  56.149  1.00  0.00     0.210 C 
ENDBRANCH  16  21
ENDBRANCH  14  15
ENDBRANCH  12  14
ENDBRANCH   1  12
BRANCH   3  23
HETATM   23  N   UNL     1      26.393  46.093  49.343  1.00  0.00    -0.259 NA
HETATM   24  H   UNL     1      25.501  46.012  48.846  1.00  0.00     0.130 HD
BRANCH  23  25
HETATM   25  C   UNL     1      26.308  47.116  50.375  1.00  0.00     0.121 C 
BRANCH  25  26
HETATM   26  C   UNL     1      26.569  48.438  49.719  1.00  0.00    -0.022 C 
HETATM   27  C   UNL     1      27.713  48.793  49.118  1.00  0.00     0.008 C 
ENDBRANCH  25  26
ENDBRANCH  23  25
ENDBRANCH   3  23
TORSDOF 7
ENDMDL
MODEL 9
REMARK VINA RESULT:      -7.2      2.083      6.078
REMARK  7 active torsions:
REMARK  status: ('A' for Active; 'I' for Inactive)
REMARK    1  A    between atoms: O_2  and  C_3 
REMARK    2  A    between atoms: C_4  and  C_5 
REMARK    3  A    between atoms: C_5  and  N_6 
REMARK    4  A    between atoms: N_6  and  C_7 
REMARK    5  A    between atoms: C_9  and  N_10 
REMARK    6  A    between atoms: N_10  and  C_11 
REMARK    7  A    between atoms: C_11  and  C_12 
ROOT
HETATM    1  C   UNL     1      27.448  41.592  50.369  1.00  0.00     0.119 A 
HETATM    2  N   UNL     1      27.707  41.849  51.665  1.00  0.00    -0.207 NA
HETATM    3  C   UNL     1      28.491  40.993  52.332  1.00  0.00     0.181 A 
HETATM    4  N   UNL     1      29.046  39.927  51.770  1.00  0.00    -0.330 N 
HETATM    5  H   UNL     1      29.693  39.393  52.334  1.00  0.00     0.168 HD
HETATM    6  C   UNL     1      28.790  39.598  50.500  1.00  0.00     0.048 A 
HETATM    7  C   UNL     1      27.936  40.423  49.738  1.00  0.00     0.031 A 
HETATM    8  C   UNL     1      29.371  38.451  49.943  1.00  0.00     0.030 A 
HETATM    9  C   UNL     1      29.096  38.096  48.624  1.00  0.00     0.002 A 
HETATM   10  C   UNL     1      28.236  38.879  47.861  1.00  0.00     0.001 A 
HETATM   11  C   UNL     1      27.658  40.028  48.408  1.00  0.00     0.017 A 
ENDROOT
BRANCH   1  12
HETATM   12  N   UNL     1      26.616  42.468  49.657  1.00  0.00    -0.272 NA
HETATM   13  H   UNL     1      27.158  43.181  49.177  1.00  0.00     0.129 HD
BRANCH  12  14
HETATM   14  C   UNL     1      25.538  43.133  50.407  1.00  0.00     0.135 C 
BRANCH  14  15
HETATM   15  C   UNL     1      25.718  44.625  50.557  1.00  0.00    -0.012 A 
HETATM   16  C   UNL     1      25.229  45.241  51.726  1.00  0.00     0.075 A 
HETATM   17  C   UNL     1      25.428  46.605  51.955  1.00  0.00     0.037 A 
HETATM   18  C   UNL     1      26.077  47.382  50.996  1.00  0.00     0.003 A 
HETATM   19  C   UNL     1      26.533  46.795  49.818  1.00  0.00     0.001 A 
HETATM   20  C   UNL     1      26.360  45.426  49.601  1.00  0.00     0.011 A 
BRANCH  16  21
HETATM   21  O   UNL     1      24.618  44.428  52.648  1.00  0.00    -0.355 OA
HETATM   22  C   UNL     1      25.274  44.413  53.915  1.00  0.00     0.210 C 
ENDBRANCH  16  21
ENDBRANCH  14  15
ENDBRANCH  12  14
ENDBRANCH   1  12
BRANCH   3  23
HETATM   23  N   UNL     1      28.789  41.298  53.651  1.00  0.00    -0.259 NA
HETATM   24  H   UNL     1      29.732  40.922  53.793  1.00  0.00     0.130 HD
BRANCH  23  25
HETATM   25  C   UNL     1      28.745  42.705  54.018  1.00  0.00     0.121 C 
BRANCH  25  26
HETATM   26  C   UNL     1      30.149  43.135  54.317  1.00  0.00    -0.022 C 
HETATM   27  C   UNL     1      30.684  43.241  55.541  1.00  0.00     0.008 C 
ENDBRANCH  25  26
ENDBRANCH  23  25
ENDBRANCH   3  23
TORSDOF 7
ENDMDL
MODEL 10
REMARK VINA RESULT:      -7.2     14.377     15.569
REMARK  7 active torsions:
REMARK  status: ('A' for Active; 'I' for Inactive)
REMARK    1  A    between atoms: O_2  and  C_3 
REMARK    2  A    between atoms: C_4  and  C_5 
REMARK    3  A    between atoms: C_5  and  N_6 
REMARK    4  A    between atoms: N_6  and  C_7 
REMARK    5  A    between atoms: C_9  and  N_10 
REMARK    6  A    between atoms: N_10  and  C_11 
REMARK    7  A    between atoms: C_11  and  C_12 
ROOT
HETATM    1  C   UNL     1      36.817  45.330  64.071  1.00  0.00     0.119 A 
HETATM    2  N   UNL     1      35.793  45.211  64.938  1.00  0.00    -0.207 NA
HETATM    3  C   UNL     1      35.552  44.004  65.466  1.00  0.00     0.181 A 
HETATM    4  N   UNL     1      36.290  42.935  65.201  1.00  0.00    -0.330 N 
HETATM    5  H   UNL     1      36.082  42.091  65.718  1.00  0.00     0.168 HD
HETATM    6  C   UNL     1      37.291  42.983  64.317  1.00  0.00     0.048 A 
HETATM    7  C   UNL     1      37.583  44.207  63.679  1.00  0.00     0.031 A 
HETATM    8  C   UNL     1      38.036  41.828  64.038  1.00  0.00     0.030 A 
HETATM    9  C   UNL     1      39.071  41.869  63.107  1.00  0.00     0.002 A 
HETATM   10  C   UNL     1      39.361  43.058  62.445  1.00  0.00     0.001 A 
HETATM   11  C   UNL     1      38.626  44.215  62.722  1.00  0.00     0.017 A 
ENDROOT
BRANCH   1  12
HETATM   12  N   UNL     1      37.075  46.582  63.495  1.00  0.00    -0.272 NA
HETATM   13  H   UNL     1      38.074  46.737  63.385  1.00  0.00     0.129 HD
BRANCH  12  14
HETATM   14  C   UNL     1      36.493  47.760  64.154  1.00  0.00     0.135 C 
BRANCH  14  15
HETATM   15  C   UNL     1      37.465  48.531  65.017  1.00  0.00    -0.012 A 
HETATM   16  C   UNL     1      37.174  48.669  66.388  1.00  0.00     0.075 A 
HETATM   17  C   UNL     1      38.069  49.308  67.250  1.00  0.00     0.037 A 
HETATM   18  C   UNL     1      39.244  49.860  66.744  1.00  0.00     0.003 A 
HETATM   19  C   UNL     1      39.528  49.766  65.384  1.00  0.00     0.001 A 
HETATM   20  C   UNL     1      38.648  49.102  64.526  1.00  0.00     0.011 A 
BRANCH  16  21
HETATM   21  O   UNL     1      36.015  48.086  66.840  1.00  0.00    -0.355 OA
HETATM   22  C   UNL     1      36.211  47.227  67.961  1.00  0.00     0.210 C 
ENDBRANCH  16  21
ENDBRANCH  14  15
ENDBRANCH  12  14
ENDBRANCH   1  12
BRANCH   3  23
HETATM   23  N   UNL     1      34.527  43.909  66.395  1.00  0.00    -0.259 NA
HETATM   24  H   UNL     1      34.048  44.814  66.340  1.00  0.00     0.130 HD
BRANCH  23  25
HETATM   25  C   UNL     1      33.580  42.821  66.207  1.00  0.00     0.121 C 
BRANCH  25  26
HETATM   26  C   UNL     1      33.187  42.330  67.568  1.00  0.00    -0.022 C 
HETATM   27  C   UNL     1      32.222  42.856  68.334  1.00  0.00     0.008 C 
ENDBRANCH  25  26
ENDBRANCH  23  25
ENDBRANCH   3  23
TORSDOF 7
ENDMDL
