MODEL 1
REMARK VINA RESULT:      -9.9      0.000      0.000
REMARK  8 active torsions:
REMARK  status: ('A' for Active; 'I' for Inactive)
REMARK    1  A    between atoms: O_2  and  C_3 
REMARK    2  A    between atoms: C_7  and  C_9 
REMARK    3  A    between atoms: C_9  and  C_10 
REMARK    4  A    between atoms: C_9  and  N_13 
REMARK    5  A    between atoms: C_10  and  C_11 
REMARK    6  A    between atoms: C_11  and  O_12 
REMARK       I    between atoms: N_13  and  C_14 
REMARK    7  A    between atoms: C_14  and  C_16 
REMARK    8  A    between atoms: C_19  and  C_22 
ROOT
HETATM    1  N   UNL     1      25.870  46.341  51.582  1.00  0.00    -0.348 N 
HETATM    2  C   UNL     1      25.909  46.950  52.818  1.00  0.00     0.252 C 
HETATM    3  O   UNL     1      25.119  47.820  53.163  1.00  0.00    -0.268 OA
HETATM    4  H   UNL     1      26.504  45.587  51.364  1.00  0.00     0.163 HD
ENDROOT
BRANCH   1   5
HETATM    5  C   UNL     1      24.907  46.721  50.556  1.00  0.00     0.120 C 
BRANCH   5   6
HETATM    6  C   UNL     1      25.409  47.871  49.691  1.00  0.00    -0.033 A 
HETATM    7  C   UNL     1      26.781  48.177  49.699  1.00  0.00     0.009 A 
HETATM    8  C   UNL     1      27.278  49.250  48.959  1.00  0.00     0.003 A 
HETATM    9  C   UNL     1      26.411  50.023  48.191  1.00  0.00     0.037 A 
HETATM   10  C   UNL     1      25.049  49.725  48.148  1.00  0.00     0.068 A 
HETATM   11  C   UNL     1      24.549  48.666  48.912  1.00  0.00     0.046 A 
BRANCH  10  12
HETATM   12  O   UNL     1      24.304  50.549  47.349  1.00  0.00    -0.356 OA
HETATM   13  C   UNL     1      22.916  50.623  47.653  1.00  0.00     0.210 C 
ENDBRANCH  10  12
ENDBRANCH   5   6
BRANCH   5  14
HETATM   14  C   UNL     1      24.559  45.511  49.675  1.00  0.00     0.056 C 
BRANCH  14  15
HETATM   15  C   UNL     1      24.531  44.211  50.472  1.00  0.00     0.166 C 
BRANCH  15  16
HETATM   16  O   UNL     1      23.570  44.313  51.517  1.00  0.00    -0.401 OA
HETATM   17  H   UNL     1      23.740  43.591  52.146  1.00  0.00     0.209 HD
ENDBRANCH  15  16
ENDBRANCH  14  15
ENDBRANCH   5  14
ENDBRANCH   1   5
BRANCH   2  18
HETATM   18  C   UNL     1      26.937  46.451  53.776  1.00  0.00     0.032 A 
HETATM   19  C   UNL     1      27.494  47.252  54.778  1.00  0.00     0.018 A 
HETATM   20  C   UNL     1      28.494  46.740  55.616  1.00  0.00     0.013 A 
HETATM   21  C   UNL     1      28.952  45.418  55.484  1.00  0.00    -0.026 A 
HETATM   22  C   UNL     1      28.357  44.616  54.497  1.00  0.00     0.013 A 
HETATM   23  C   UNL     1      27.361  45.123  53.655  1.00  0.00     0.018 A 
BRANCH  21  24
HETATM   24  C   UNL     1      30.030  44.896  56.344  1.00  0.00    -0.023 A 
HETATM   25  C   UNL     1      30.795  43.786  55.965  1.00  0.00     0.031 A 
HETATM   26  C   UNL     1      31.788  43.328  56.817  1.00  0.00     0.117 A 
HETATM   27  N   UNL     1      32.073  43.887  58.009  1.00  0.00    -0.273 NA
HETATM   28  C   UNL     1      31.333  44.957  58.364  1.00  0.00     0.117 A 
HETATM   29  C   UNL     1      30.320  45.488  57.580  1.00  0.00     0.031 A 
ENDBRANCH  21  24
ENDBRANCH   2  18
TORSDOF 8
ENDMDL
MODEL 2
REMARK VINA RESULT:      -8.6      4.317      6.685
REMARK  8 active torsions:
REMARK  status: ('A' for Active; 'I' for Inactive)
REMARK    1  A    between atoms: O_2  and  C_3 
REMARK    2  A    between atoms: C_7  and  C_9 
REMARK    3  A    between atoms: C_9  and  C_10 
REMARK    4  A    between atoms: C_9  and  N_13 
REMARK    5  A    between atoms: C_10  and  C_11 
REMARK    6  A    between atoms: C_11  and  O_12 
REMARK       I    between atoms: N_13  and  C_14 
REMARK    7  A    between atoms: C_14  and  C_16 
REMARK    8  A    between atoms: C_19  and  C_22 
ROOT
HETATM    1  N   UNL     1      27.251  42.123  50.604  1.00  0.00    -0.348 N 
HETATM    2  C   UNL     1      27.664  43.406  50.891  1.00  0.00     0.252 C 
HETATM    3  O   UNL     1      27.504  44.350  50.126  1.00  0.00    -0.268 OA
HETATM    4  H   UNL     1      27.351  41.389  51.290  1.00  0.00     0.163 HD
ENDROOT
BRANCH   1   5
HETATM    5  C   UNL     1      26.627  41.771  49.335  1.00  0.00     0.120 C 
BRANCH   5   6
HETATM    6  C   UNL     1      27.318  40.592  48.660  1.00  0.00    -0.033 A 
HETATM    7  C   UNL     1      26.856  40.164  47.403  1.00  0.00     0.009 A 
HETATM    8  C   UNL     1      27.426  39.060  46.770  1.00  0.00     0.003 A 
HETATM    9  C   UNL     1      28.476  38.377  47.380  1.00  0.00     0.037 A 
HETATM   10  C   UNL     1      28.968  38.797  48.615  1.00  0.00     0.068 A 
HETATM   11  C   UNL     1      28.376  39.886  49.262  1.00  0.00     0.046 A 
BRANCH  10  12
HETATM   12  O   UNL     1      30.007  38.052  49.105  1.00  0.00    -0.356 OA
HETATM   13  C   UNL     1      29.922  37.691  50.479  1.00  0.00     0.210 C 
ENDBRANCH  10  12
ENDBRANCH   5   6
BRANCH   5  14
HETATM   14  C   UNL     1      25.137  41.461  49.541  1.00  0.00     0.056 C 
BRANCH  14  15
HETATM   15  C   UNL     1      24.354  42.687  49.999  1.00  0.00     0.166 C 
BRANCH  15  16
HETATM   16  O   UNL     1      24.266  42.693  51.420  1.00  0.00    -0.401 OA
HETATM   17  H   UNL     1      23.462  43.183  51.664  1.00  0.00     0.209 HD
ENDBRANCH  15  16
ENDBRANCH  14  15
ENDBRANCH   5  14
ENDBRANCH   1   5
BRANCH   2  18
HETATM   18  C   UNL     1      28.274  43.627  52.234  1.00  0.00     0.032 A 
HETATM   19  C   UNL     1      27.743  44.519  53.172  1.00  0.00     0.018 A 
HETATM   20  C   UNL     1      28.390  44.721  54.398  1.00  0.00     0.013 A 
HETATM   21  C   UNL     1      29.572  44.031  54.724  1.00  0.00    -0.026 A 
HETATM   22  C   UNL     1      30.071  43.113  53.786  1.00  0.00     0.013 A 
HETATM   23  C   UNL     1      29.431  42.910  52.559  1.00  0.00     0.018 A 
BRANCH  21  24
HETATM   24  C   UNL     1      30.268  44.275  56.000  1.00  0.00    -0.023 A 
HETATM   25  C   UNL     1      29.944  45.368  56.813  1.00  0.00     0.031 A 
HETATM   26  C   UNL     1      30.639  45.558  57.997  1.00  0.00     0.117 A 
HETATM   27  N   UNL     1      31.625  44.748  58.429  1.00  0.00    -0.273 NA
HETATM   28  C   UNL     1      31.928  43.696  57.641  1.00  0.00     0.117 A 
HETATM   29  C   UNL     1      31.289  43.423  56.441  1.00  0.00     0.031 A 
ENDBRANCH  21  24
ENDBRANCH   2  18
TORSDOF 8
ENDMDL
MODEL 3
REMARK VINA RESULT:      -8.5      2.935      8.993
REMARK  8 active torsions:
REMARK  status: ('A' for Active; 'I' for Inactive)
REMARK    1  A    between atoms: O_2  and  C_3 
REMARK    2  A    between atoms: C_7  and  C_9 
REMARK    3  A    between atoms: C_9  and  C_10 
REMARK    4  A    between atoms: C_9  and  N_13 
REMARK    5  A    between atoms: C_10  and  C_11 
REMARK    6  A    between atoms: C_11  and  O_12 
REMARK       I    between atoms: N_13  and  C_14 
REMARK    7  A    between atoms: C_14  and  C_16 
REMARK    8  A    between atoms: C_19  and  C_22 
ROOT
HETATM    1  N   UNL     1      27.313  44.478  51.803  1.00  0.00    -0.348 N 
HETATM    2  C   UNL     1      26.974  44.563  50.470  1.00  0.00     0.252 C 
HETATM    3  O   UNL     1      27.314  43.733  49.635  1.00  0.00    -0.268 OA
HETATM    4  H   UNL     1      26.960  45.153  52.464  1.00  0.00     0.163 HD
ENDROOT
BRANCH   1   5
HETATM    5  C   UNL     1      28.154  43.409  52.325  1.00  0.00     0.120 C 
BRANCH   5   6
HETATM    6  C   UNL     1      28.915  43.832  53.576  1.00  0.00    -0.033 A 
HETATM    7  C   UNL     1      30.033  43.079  53.977  1.00  0.00     0.009 A 
HETATM    8  C   UNL     1      30.731  43.401  55.141  1.00  0.00     0.003 A 
HETATM    9  C   UNL     1      30.328  44.488  55.913  1.00  0.00     0.037 A 
HETATM   10  C   UNL     1      29.237  45.265  55.523  1.00  0.00     0.068 A 
HETATM   11  C   UNL     1      28.521  44.924  54.371  1.00  0.00     0.046 A 
BRANCH  10  12
HETATM   12  O   UNL     1      28.947  46.311  56.356  1.00  0.00    -0.356 OA
HETATM   13  C   UNL     1      29.096  46.059  57.748  1.00  0.00     0.210 C 
ENDBRANCH  10  12
ENDBRANCH   5   6
BRANCH   5  14
HETATM   14  C   UNL     1      27.309  42.160  52.620  1.00  0.00     0.056 C 
BRANCH  14  15
HETATM   15  C   UNL     1      27.817  40.933  51.869  1.00  0.00     0.166 C 
BRANCH  15  16
HETATM   16  O   UNL     1      28.717  41.340  50.844  1.00  0.00    -0.401 OA
HETATM   17  H   UNL     1      29.524  41.671  51.274  1.00  0.00     0.209 HD
ENDBRANCH  15  16
ENDBRANCH  14  15
ENDBRANCH   5  14
ENDBRANCH   1   5
BRANCH   2  18
HETATM   18  C   UNL     1      26.094  45.702  50.076  1.00  0.00     0.032 A 
HETATM   19  C   UNL     1      26.559  47.016  49.959  1.00  0.00     0.018 A 
HETATM   20  C   UNL     1      25.672  48.051  49.634  1.00  0.00     0.013 A 
HETATM   21  C   UNL     1      24.308  47.801  49.407  1.00  0.00    -0.026 A 
HETATM   22  C   UNL     1      23.864  46.471  49.493  1.00  0.00     0.013 A 
HETATM   23  C   UNL     1      24.745  45.434  49.821  1.00  0.00     0.018 A 
BRANCH  21  24
HETATM   24  C   UNL     1      23.372  48.899  49.102  1.00  0.00    -0.023 A 
HETATM   25  C   UNL     1      21.986  48.700  49.102  1.00  0.00     0.031 A 
HETATM   26  C   UNL     1      21.151  49.763  48.796  1.00  0.00     0.117 A 
HETATM   27  N   UNL     1      21.590  51.000  48.491  1.00  0.00    -0.273 NA
HETATM   28  C   UNL     1      22.926  51.182  48.496  1.00  0.00     0.117 A 
HETATM   29  C   UNL     1      23.840  50.182  48.790  1.00  0.00     0.031 A 
ENDBRANCH  21  24
ENDBRANCH   2  18
TORSDOF 8
ENDMDL
MODEL 4
REMARK VINA RESULT:      -8.3      1.320      2.030
REMARK  8 active torsions:
REMARK  status: ('A' for Active; 'I' for Inactive)
REMARK    1  A    between atoms: O_2  and  C_3 
REMARK    2  A    between atoms: C_7  and  C_9 
REMARK    3  A    between atoms: C_9  and  C_10 
REMARK    4  A    between atoms: C_9  and  N_13 
REMARK    5  A    between atoms: C_10  and  C_11 
REMARK    6  A    between atoms: C_11  and  O_12 
REMARK       I    between atoms: N_13  and  C_14 
REMARK    7  A    between atoms: C_14  and  C_16 
REMARK    8  A    between atoms: C_19  and  C_22 
ROOT
HETATM    1  N   UNL     1      25.547  45.830  51.374  1.00  0.00    -0.348 N 
HETATM    2  C   UNL     1      25.352  44.987  52.446  1.00  0.00     0.252 C 
HETATM    3  O   UNL     1      24.362  44.275  52.570  1.00  0.00    -0.268 OA
HETATM    4  H   UNL     1      26.405  46.353  51.285  1.00  0.00     0.163 HD
ENDROOT
BRANCH   1   5
HETATM    5  C   UNL     1      24.559  45.982  50.313  1.00  0.00     0.120 C 
BRANCH   5   6
HETATM    6  C   UNL     1      24.581  47.377  49.700  1.00  0.00    -0.033 A 
HETATM    7  C   UNL     1      23.362  47.982  49.346  1.00  0.00     0.009 A 
HETATM    8  C   UNL     1      23.337  49.237  48.739  1.00  0.00     0.003 A 
HETATM    9  C   UNL     1      24.530  49.911  48.489  1.00  0.00     0.037 A 
HETATM   10  C   UNL     1      25.751  49.342  48.853  1.00  0.00     0.068 A 
HETATM   11  C   UNL     1      25.776  48.072  49.436  1.00  0.00     0.046 A 
BRANCH  10  12
HETATM   12  O   UNL     1      26.850  50.105  48.566  1.00  0.00    -0.356 OA
HETATM   13  C   UNL     1      28.084  49.651  49.111  1.00  0.00     0.210 C 
ENDBRANCH  10  12
ENDBRANCH   5   6
BRANCH   5  14
HETATM   14  C   UNL     1      24.781  44.924  49.222  1.00  0.00     0.056 C 
BRANCH  14  15
HETATM   15  C   UNL     1      23.617  43.942  49.131  1.00  0.00     0.166 C 
BRANCH  15  16
HETATM   16  O   UNL     1      23.862  42.831  49.987  1.00  0.00    -0.401 OA
HETATM   17  H   UNL     1      23.937  42.038  49.428  1.00  0.00     0.209 HD
ENDBRANCH  15  16
ENDBRANCH  14  15
ENDBRANCH   5  14
ENDBRANCH   1   5
BRANCH   2  18
HETATM   18  C   UNL     1      26.452  44.918  53.451  1.00  0.00     0.032 A 
HETATM   19  C   UNL     1      26.854  46.020  54.214  1.00  0.00     0.018 A 
HETATM   20  C   UNL     1      27.929  45.905  55.106  1.00  0.00     0.013 A 
HETATM   21  C   UNL     1      28.618  44.691  55.269  1.00  0.00    -0.026 A 
HETATM   22  C   UNL     1      28.178  43.585  54.523  1.00  0.00     0.013 A 
HETATM   23  C   UNL     1      27.108  43.695  53.627  1.00  0.00     0.018 A 
BRANCH  21  24
HETATM   24  C   UNL     1      29.771  44.586  56.181  1.00  0.00    -0.023 A 
HETATM   25  C   UNL     1      30.740  43.587  56.023  1.00  0.00     0.031 A 
HETATM   26  C   UNL     1      31.797  43.524  56.917  1.00  0.00     0.117 A 
HETATM   27  N   UNL     1      31.960  44.375  57.950  1.00  0.00    -0.273 NA
HETATM   28  C   UNL     1      31.024  45.335  58.092  1.00  0.00     0.117 A 
HETATM   29  C   UNL     1      29.932  45.478  57.249  1.00  0.00     0.031 A 
ENDBRANCH  21  24
ENDBRANCH   2  18
TORSDOF 8
ENDMDL
MODEL 5
REMARK VINA RESULT:      -8.1      2.948      9.353
REMARK  8 active torsions:
REMARK  status: ('A' for Active; 'I' for Inactive)
REMARK    1  A    between atoms: O_2  and  C_3 
REMARK    2  A    between atoms: C_7  and  C_9 
REMARK    3  A    between atoms: C_9  and  C_10 
REMARK    4  A    between atoms: C_9  and  N_13 
REMARK    5  A    between atoms: C_10  and  C_11 
REMARK    6  A    between atoms: C_11  and  O_12 
REMARK       I    between atoms: N_13  and  C_14 
REMARK    7  A    between atoms: C_14  and  C_16 
REMARK    8  A    between atoms: C_19  and  C_22 
ROOT
HETATM    1  N   UNL     1      27.202  44.724  52.624  1.00  0.00    -0.348 N 
HETATM    2  C   UNL     1      26.977  44.634  51.268  1.00  0.00     0.252 C 
HETATM    3  O   UNL     1      27.537  43.817  50.546  1.00  0.00    -0.268 OA
HETATM    4  H   UNL     1      26.674  45.373  53.188  1.00  0.00     0.163 HD
ENDROOT
BRANCH   1   5
HETATM    5  C   UNL     1      28.171  43.878  53.311  1.00  0.00     0.120 C 
BRANCH   5   6
HETATM    6  C   UNL     1      28.718  44.534  54.572  1.00  0.00    -0.033 A 
HETATM    7  C   UNL     1      28.037  45.639  55.113  1.00  0.00     0.009 A 
HETATM    8  C   UNL     1      28.528  46.300  56.238  1.00  0.00     0.003 A 
HETATM    9  C   UNL     1      29.700  45.857  56.847  1.00  0.00     0.037 A 
HETATM   10  C   UNL     1      30.380  44.748  56.344  1.00  0.00     0.068 A 
HETATM   11  C   UNL     1      29.902  44.104  55.199  1.00  0.00     0.046 A 
BRANCH  10  12
HETATM   12  O   UNL     1      31.511  44.404  57.035  1.00  0.00    -0.356 OA
HETATM   13  C   UNL     1      31.778  43.010  57.137  1.00  0.00     0.210 C 
ENDBRANCH  10  12
ENDBRANCH   5   6
BRANCH   5  14
HETATM   14  C   UNL     1      27.543  42.518  53.654  1.00  0.00     0.056 C 
BRANCH  14  15
HETATM   15  C   UNL     1      28.390  41.353  53.152  1.00  0.00     0.166 C 
BRANCH  15  16
HETATM   16  O   UNL     1      29.140  41.763  52.014  1.00  0.00    -0.401 OA
HETATM   17  H   UNL     1      30.068  41.858  52.291  1.00  0.00     0.209 HD
ENDBRANCH  15  16
ENDBRANCH  14  15
ENDBRANCH   5  14
ENDBRANCH   1   5
BRANCH   2  18
HETATM   18  C   UNL     1      25.947  45.551  50.699  1.00  0.00     0.032 A 
HETATM   19  C   UNL     1      24.769  45.092  50.100  1.00  0.00     0.018 A 
HETATM   20  C   UNL     1      23.863  46.002  49.539  1.00  0.00     0.013 A 
HETATM   21  C   UNL     1      24.102  47.387  49.573  1.00  0.00    -0.026 A 
HETATM   22  C   UNL     1      25.271  47.833  50.210  1.00  0.00     0.013 A 
HETATM   23  C   UNL     1      26.181  46.929  50.769  1.00  0.00     0.018 A 
BRANCH  21  24
HETATM   24  C   UNL     1      23.163  48.337  48.949  1.00  0.00    -0.023 A 
HETATM   25  C   UNL     1      21.857  47.960  48.612  1.00  0.00     0.031 A 
HETATM   26  C   UNL     1      21.018  48.889  48.015  1.00  0.00     0.117 A 
HETATM   27  N   UNL     1      21.381  50.155  47.730  1.00  0.00    -0.273 NA
HETATM   28  C   UNL     1      22.639  50.509  48.061  1.00  0.00     0.117 A 
HETATM   29  C   UNL     1      23.549  49.652  48.661  1.00  0.00     0.031 A 
ENDBRANCH  21  24
ENDBRANCH   2  18
TORSDOF 8
ENDMDL
MODEL 6
REMARK VINA RESULT:      -8.0      4.174      6.151
REMARK  8 active torsions:
REMARK  status: ('A' for Active; 'I' for Inactive)
REMARK    1  A    between atoms: O_2  and  C_3 
REMARK    2  A    between atoms: C_7  and  C_9 
REMARK    3  A    between atoms: C_9  and  C_10 
REMARK    4  A    between atoms: C_9  and  N_13 
REMARK    5  A    between atoms: C_10  and  C_11 
REMARK    6  A    between atoms: C_11  and  O_12 
REMARK       I    between atoms: N_13  and  C_14 
REMARK    7  A    between atoms: C_14  and  C_16 
REMARK    8  A    between atoms: C_19  and  C_22 
ROOT
HETATM    1  N   UNL     1      26.866  42.341  50.417  1.00  0.00    -0.348 N 
HETATM    2  C   UNL     1      27.443  43.564  50.685  1.00  0.00     0.252 C 
HETATM    3  O   UNL     1      27.401  44.511  49.909  1.00  0.00    -0.268 OA
HETATM    4  H   UNL     1      26.875  41.609  51.111  1.00  0.00     0.163 HD
ENDROOT
BRANCH   1   5
HETATM    5  C   UNL     1      26.193  42.057  49.156  1.00  0.00     0.120 C 
BRANCH   5   6
HETATM    6  C   UNL     1      26.730  40.799  48.485  1.00  0.00    -0.033 A 
HETATM    7  C   UNL     1      27.212  39.753  49.292  1.00  0.00     0.009 A 
HETATM    8  C   UNL     1      27.757  38.604  48.721  1.00  0.00     0.003 A 
HETATM    9  C   UNL     1      27.814  38.478  47.335  1.00  0.00     0.037 A 
HETATM   10  C   UNL     1      27.320  39.490  46.514  1.00  0.00     0.068 A 
HETATM   11  C   UNL     1      26.800  40.655  47.087  1.00  0.00     0.046 A 
BRANCH  10  12
HETATM   12  O   UNL     1      27.422  39.245  45.171  1.00  0.00    -0.356 OA
HETATM   13  C   UNL     1      28.359  40.046  44.460  1.00  0.00     0.210 C 
ENDBRANCH  10  12
ENDBRANCH   5   6
BRANCH   5  14
HETATM   14  C   UNL     1      24.677  41.931  49.377  1.00  0.00     0.056 C 
BRANCH  14  15
HETATM   15  C   UNL     1      23.929  43.192  48.957  1.00  0.00     0.166 C 
BRANCH  15  16
HETATM   16  O   UNL     1      24.849  44.138  48.423  1.00  0.00    -0.401 OA
HETATM   17  H   UNL     1      24.520  45.026  48.641  1.00  0.00     0.209 HD
ENDBRANCH  15  16
ENDBRANCH  14  15
ENDBRANCH   5  14
ENDBRANCH   1   5
BRANCH   2  18
HETATM   18  C   UNL     1      28.086  43.720  52.022  1.00  0.00     0.032 A 
HETATM   19  C   UNL     1      27.585  44.572  53.011  1.00  0.00     0.018 A 
HETATM   20  C   UNL     1      28.262  44.715  54.229  1.00  0.00     0.013 A 
HETATM   21  C   UNL     1      29.446  44.004  54.495  1.00  0.00    -0.026 A 
HETATM   22  C   UNL     1      29.916  43.125  53.505  1.00  0.00     0.013 A 
HETATM   23  C   UNL     1      29.245  42.983  52.285  1.00  0.00     0.018 A 
BRANCH  21  24
HETATM   24  C   UNL     1      30.175  44.185  55.763  1.00  0.00    -0.023 A 
HETATM   25  C   UNL     1      31.146  43.270  56.185  1.00  0.00     0.031 A 
HETATM   26  C   UNL     1      31.793  43.480  57.393  1.00  0.00     0.117 A 
HETATM   27  N   UNL     1      31.546  44.526  58.206  1.00  0.00    -0.273 NA
HETATM   28  C   UNL     1      30.611  45.403  57.790  1.00  0.00     0.117 A 
HETATM   29  C   UNL     1      29.912  45.278  56.599  1.00  0.00     0.031 A 
ENDBRANCH  21  24
ENDBRANCH   2  18
TORSDOF 8
ENDMDL
MODEL 7
REMARK VINA RESULT:      -7.9      2.092      3.367
REMARK  8 active torsions:
REMARK  status: ('A' for Active; 'I' for Inactive)
REMARK    1  A    between atoms: O_2  and  C_3 
REMARK    2  A    between atoms: C_7  and  C_9 
REMARK    3  A    between atoms: C_9  and  C_10 
REMARK    4  A    between atoms: C_9  and  N_13 
REMARK    5  A    between atoms: C_10  and  C_11 
REMARK    6  A    between atoms: C_11  and  O_12 
REMARK       I    between atoms: N_13  and  C_14 
REMARK    7  A    between atoms: C_14  and  C_16 
REMARK    8  A    between atoms: C_19  and  C_22 
ROOT
HETATM    1  N   UNL     1      24.495  44.784  50.122  1.00  0.00    -0.348 N 
HETATM    2  C   UNL     1      24.612  43.850  51.128  1.00  0.00     0.252 C 
HETATM    3  O   UNL     1      23.839  42.910  51.265  1.00  0.00    -0.268 OA
HETATM    4  H   UNL     1      25.190  45.507  50.013  1.00  0.00     0.163 HD
ENDROOT
BRANCH   1   5
HETATM    5  C   UNL     1      23.402  44.758  49.158  1.00  0.00     0.120 C 
BRANCH   5   6
HETATM    6  C   UNL     1      22.925  46.157  48.788  1.00  0.00    -0.033 A 
HETATM    7  C   UNL     1      21.847  46.292  47.896  1.00  0.00     0.009 A 
HETATM    8  C   UNL     1      21.407  47.552  47.493  1.00  0.00     0.003 A 
HETATM    9  C   UNL     1      22.031  48.696  47.986  1.00  0.00     0.037 A 
HETATM   10  C   UNL     1      23.087  48.588  48.891  1.00  0.00     0.068 A 
HETATM   11  C   UNL     1      23.545  47.323  49.273  1.00  0.00     0.046 A 
BRANCH  10  12
HETATM   12  O   UNL     1      23.609  49.781  49.312  1.00  0.00    -0.356 OA
HETATM   13  C   UNL     1      23.804  50.767  48.305  1.00  0.00     0.210 C 
ENDBRANCH  10  12
ENDBRANCH   5   6
BRANCH   5  14
HETATM   14  C   UNL     1      23.824  43.994  47.894  1.00  0.00     0.056 C 
BRANCH  14  15
HETATM   15  C   UNL     1      23.088  42.666  47.754  1.00  0.00     0.166 C 
BRANCH  15  16
HETATM   16  O   UNL     1      22.391  42.376  48.961  1.00  0.00    -0.401 OA
HETATM   17  H   UNL     1      21.467  42.182  48.729  1.00  0.00     0.209 HD
ENDBRANCH  15  16
ENDBRANCH  14  15
ENDBRANCH   5  14
ENDBRANCH   1   5
BRANCH   2  18
HETATM   18  C   UNL     1      25.788  43.989  52.036  1.00  0.00     0.032 A 
HETATM   19  C   UNL     1      27.101  43.741  51.621  1.00  0.00     0.018 A 
HETATM   20  C   UNL     1      28.160  43.840  52.533  1.00  0.00     0.013 A 
HETATM   21  C   UNL     1      27.937  44.199  53.875  1.00  0.00    -0.026 A 
HETATM   22  C   UNL     1      26.618  44.479  54.266  1.00  0.00     0.013 A 
HETATM   23  C   UNL     1      25.557  44.378  53.359  1.00  0.00     0.018 A 
BRANCH  21  24
HETATM   24  C   UNL     1      29.050  44.266  54.839  1.00  0.00    -0.023 A 
HETATM   25  C   UNL     1      29.239  45.384  55.661  1.00  0.00     0.031 A 
HETATM   26  C   UNL     1      30.309  45.401  56.542  1.00  0.00     0.117 A 
HETATM   27  N   UNL     1      31.198  44.396  56.665  1.00  0.00    -0.273 NA
HETATM   28  C   UNL     1      31.006  43.323  55.872  1.00  0.00     0.117 A 
HETATM   29  C   UNL     1      29.966  43.213  54.961  1.00  0.00     0.031 A 
ENDBRANCH  21  24
ENDBRANCH   2  18
TORSDOF 8
ENDMDL
MODEL 8
REMARK VINA RESULT:      -7.8      3.273      9.745
REMARK  8 active torsions:
REMARK  status: ('A' for Active; 'I' for Inactive)
REMARK    1  A    between atoms: O_2  and  C_3 
REMARK    2  A    between atoms: C_7  and  C_9 
REMARK    3  A    between atoms: C_9  and  C_10 
REMARK    4  A    between atoms: C_9  and  N_13 
REMARK    5  A    between atoms: C_10  and  C_11 
REMARK    6  A    between atoms: C_11  and  O_12 
REMARK       I    between atoms: N_13  and  C_14 
REMARK    7  A    between atoms: C_14  and  C_16 
REMARK    8  A    between atoms: C_19  and  C_22 
ROOT
HETATM    1  N   UNL     1      24.958  46.712  50.303  1.00  0.00    -0.348 N 
HETATM    2  C   UNL     1      25.196  47.872  49.599  1.00  0.00     0.252 C 
HETATM    3  O   UNL     1      26.320  48.267  49.314  1.00  0.00    -0.268 OA
HETATM    4  H   UNL     1      24.014  46.396  50.463  1.00  0.00     0.163 HD
ENDROOT
BRANCH   1   5
HETATM    5  C   UNL     1      26.038  45.876  50.814  1.00  0.00     0.120 C 
BRANCH   5   6
HETATM    6  C   UNL     1      26.316  46.130  52.290  1.00  0.00    -0.033 A 
HETATM    7  C   UNL     1      26.863  45.093  53.066  1.00  0.00     0.009 A 
HETATM    8  C   UNL     1      27.090  45.266  54.431  1.00  0.00     0.003 A 
HETATM    9  C   UNL     1      26.784  46.482  55.037  1.00  0.00     0.037 A 
HETATM   10  C   UNL     1      26.263  47.534  54.284  1.00  0.00     0.068 A 
HETATM   11  C   UNL     1      26.010  47.350  52.921  1.00  0.00     0.046 A 
BRANCH  10  12
HETATM   12  O   UNL     1      26.015  48.680  54.989  1.00  0.00    -0.356 OA
HETATM   13  C   UNL     1      26.136  48.581  56.403  1.00  0.00     0.210 C 
ENDBRANCH  10  12
ENDBRANCH   5   6
BRANCH   5  14
HETATM   14  C   UNL     1      25.716  44.391  50.586  1.00  0.00     0.056 C 
BRANCH  14  15
HETATM   15  C   UNL     1      24.287  44.181  50.097  1.00  0.00     0.166 C 
BRANCH  15  16
HETATM   16  O   UNL     1      23.380  44.363  51.179  1.00  0.00    -0.401 OA
HETATM   17  H   UNL     1      22.723  45.026  50.906  1.00  0.00     0.209 HD
ENDBRANCH  15  16
ENDBRANCH  14  15
ENDBRANCH   5  14
ENDBRANCH   1   5
BRANCH   2  18
HETATM   18  C   UNL     1      23.997  48.622  49.124  1.00  0.00     0.032 A 
HETATM   19  C   UNL     1      24.065  49.929  48.631  1.00  0.00     0.018 A 
HETATM   20  C   UNL     1      22.896  50.599  48.246  1.00  0.00     0.013 A 
HETATM   21  C   UNL     1      21.636  49.980  48.331  1.00  0.00    -0.026 A 
HETATM   22  C   UNL     1      21.590  48.655  48.794  1.00  0.00     0.013 A 
HETATM   23  C   UNL     1      22.754  47.983  49.183  1.00  0.00     0.018 A 
BRANCH  21  24
HETATM   24  C   UNL     1      20.406  50.702  47.960  1.00  0.00    -0.023 A 
HETATM   25  C   UNL     1      19.559  50.231  46.949  1.00  0.00     0.031 A 
HETATM   26  C   UNL     1      18.421  50.955  46.629  1.00  0.00     0.117 A 
HETATM   27  N   UNL     1      18.066  52.105  47.236  1.00  0.00    -0.273 NA
HETATM   28  C   UNL     1      18.886  52.549  48.210  1.00  0.00     0.117 A 
HETATM   29  C   UNL     1      20.045  51.895  48.600  1.00  0.00     0.031 A 
ENDBRANCH  21  24
ENDBRANCH   2  18
TORSDOF 8
ENDMDL
MODEL 9
REMARK VINA RESULT:      -7.7      2.204      3.410
REMARK  8 active torsions:
REMARK  status: ('A' for Active; 'I' for Inactive)
REMARK    1  A    between atoms: O_2  and  C_3 
REMARK    2  A    between atoms: C_7  and  C_9 
REMARK    3  A    between atoms: C_9  and  C_10 
REMARK    4  A    between atoms: C_9  and  N_13 
REMARK    5  A    between atoms: C_10  and  C_11 
REMARK    6  A    between atoms: C_11  and  O_12 
REMARK       I    between atoms: N_13  and  C_14 
REMARK    7  A    between atoms: C_14  and  C_16 
REMARK    8  A    between atoms: C_19  and  C_22 
ROOT
HETATM    1  N   UNL     1      25.458  43.458  51.149  1.00  0.00    -0.348 N 
HETATM    2  C   UNL     1      26.798  43.655  50.891  1.00  0.00     0.252 C 
HETATM    3  O   UNL     1      27.255  43.768  49.760  1.00  0.00    -0.268 OA
HETATM    4  H   UNL     1      25.120  43.430  52.099  1.00  0.00     0.163 HD
ENDROOT
BRANCH   1   5
HETATM    5  C   UNL     1      24.473  43.317  50.084  1.00  0.00     0.120 C 
BRANCH   5   6
HETATM    6  C   UNL     1      23.941  44.663  49.609  1.00  0.00    -0.033 A 
HETATM    7  C   UNL     1      22.900  44.686  48.664  1.00  0.00     0.009 A 
HETATM    8  C   UNL     1      22.415  45.894  48.165  1.00  0.00     0.003 A 
HETATM    9  C   UNL     1      22.955  47.097  48.614  1.00  0.00     0.037 A 
HETATM   10  C   UNL     1      23.972  47.102  49.568  1.00  0.00     0.068 A 
HETATM   11  C   UNL     1      24.477  45.889  50.046  1.00  0.00     0.046 A 
BRANCH  10  12
HETATM   12  O   UNL     1      24.412  48.344  49.936  1.00  0.00    -0.356 OA
HETATM   13  C   UNL     1      23.950  49.430  49.141  1.00  0.00     0.210 C 
ENDBRANCH  10  12
ENDBRANCH   5   6
BRANCH   5  14
HETATM   14  C   UNL     1      25.072  42.539  48.902  1.00  0.00     0.056 C 
BRANCH  14  15
HETATM   15  C   UNL     1      24.268  41.285  48.575  1.00  0.00     0.166 C 
BRANCH  15  16
HETATM   16  O   UNL     1      25.110  40.141  48.668  1.00  0.00    -0.401 OA
HETATM   17  H   UNL     1      25.073  39.821  49.586  1.00  0.00     0.209 HD
ENDBRANCH  15  16
ENDBRANCH  14  15
ENDBRANCH   5  14
ENDBRANCH   1   5
BRANCH   2  18
HETATM   18  C   UNL     1      27.693  43.796  52.077  1.00  0.00     0.032 A 
HETATM   19  C   UNL     1      28.889  43.085  52.214  1.00  0.00     0.018 A 
HETATM   20  C   UNL     1      29.662  43.224  53.375  1.00  0.00     0.013 A 
HETATM   21  C   UNL     1      29.268  44.081  54.418  1.00  0.00    -0.026 A 
HETATM   22  C   UNL     1      28.083  44.814  54.248  1.00  0.00     0.013 A 
HETATM   23  C   UNL     1      27.305  44.677  53.092  1.00  0.00     0.018 A 
BRANCH  21  24
HETATM   24  C   UNL     1      30.066  44.195  55.652  1.00  0.00    -0.023 A 
HETATM   25  C   UNL     1      31.016  43.227  56.000  1.00  0.00     0.031 A 
HETATM   26  C   UNL     1      31.730  43.375  57.179  1.00  0.00     0.117 A 
HETATM   27  N   UNL     1      31.569  44.407  58.031  1.00  0.00    -0.273 NA
HETATM   28  C   UNL     1      30.654  45.335  57.686  1.00  0.00     0.117 A 
HETATM   29  C   UNL     1      29.893  45.273  56.529  1.00  0.00     0.031 A 
ENDBRANCH  21  24
ENDBRANCH   2  18
TORSDOF 8
ENDMDL
MODEL 10
REMARK VINA RESULT:      -7.5      4.046      4.843
REMARK  8 active torsions:
REMARK  status: ('A' for Active; 'I' for Inactive)
REMARK    1  A    between atoms: O_2  and  C_3 
REMARK    2  A    between atoms: C_7  and  C_9 
REMARK    3  A    between atoms: C_9  and  C_10 
REMARK    4  A    between atoms: C_9  and  N_13 
REMARK    5  A    between atoms: C_10  and  C_11 
REMARK    6  A    between atoms: C_11  and  O_12 
REMARK       I    between atoms: N_13  and  C_14 
REMARK    7  A    between atoms: C_14  and  C_16 
REMARK    8  A    between atoms: C_19  and  C_22 
ROOT
HETATM    1  N   UNL     1      26.204  41.593  51.122  1.00  0.00    -0.348 N 
HETATM    2  C   UNL     1      27.181  42.561  51.032  1.00  0.00     0.252 C 
HETATM    3  O   UNL     1      27.437  43.163  49.996  1.00  0.00    -0.268 OA
HETATM    4  H   UNL     1      25.989  41.166  52.010  1.00  0.00     0.163 HD
ENDROOT
BRANCH   1   5
HETATM    5  C   UNL     1      25.422  41.167  49.968  1.00  0.00     0.120 C 
BRANCH   5   6
HETATM    6  C   UNL     1      24.481  42.260  49.474  1.00  0.00    -0.033 A 
HETATM    7  C   UNL     1      23.621  42.882  50.396  1.00  0.00     0.009 A 
HETATM    8  C   UNL     1      22.711  43.853  49.980  1.00  0.00     0.003 A 
HETATM    9  C   UNL     1      22.657  44.224  48.639  1.00  0.00     0.037 A 
HETATM   10  C   UNL     1      23.516  43.639  47.709  1.00  0.00     0.068 A 
HETATM   11  C   UNL     1      24.409  42.645  48.123  1.00  0.00     0.046 A 
BRANCH  10  12
HETATM   12  O   UNL     1      23.375  44.094  46.427  1.00  0.00    -0.356 OA
HETATM   13  C   UNL     1      22.630  43.260  45.547  1.00  0.00     0.210 C 
ENDBRANCH  10  12
ENDBRANCH   5   6
BRANCH   5  14
HETATM   14  C   UNL     1      26.350  40.717  48.830  1.00  0.00     0.056 C 
BRANCH  14  15
HETATM   15  C   UNL     1      26.525  39.203  48.797  1.00  0.00     0.166 C 
BRANCH  15  16
HETATM   16  O   UNL     1      26.373  38.676  50.111  1.00  0.00    -0.401 OA
HETATM   17  H   UNL     1      26.682  37.754  50.097  1.00  0.00     0.209 HD
ENDBRANCH  15  16
ENDBRANCH  14  15
ENDBRANCH   5  14
ENDBRANCH   1   5
BRANCH   2  18
HETATM   18  C   UNL     1      27.895  42.909  52.295  1.00  0.00     0.032 A 
HETATM   19  C   UNL     1      27.283  43.597  53.348  1.00  0.00     0.018 A 
HETATM   20  C   UNL     1      28.021  43.939  54.490  1.00  0.00     0.013 A 
HETATM   21  C   UNL     1      29.378  43.594  54.614  1.00  0.00    -0.026 A 
HETATM   22  C   UNL     1      29.967  42.872  53.563  1.00  0.00     0.013 A 
HETATM   23  C   UNL     1      29.236  42.531  52.420  1.00  0.00     0.018 A 
BRANCH  21  24
HETATM   24  C   UNL     1      30.159  43.989  55.800  1.00  0.00    -0.023 A 
HETATM   25  C   UNL     1      31.169  43.168  56.316  1.00  0.00     0.031 A 
HETATM   26  C   UNL     1      31.865  43.581  57.442  1.00  0.00     0.117 A 
HETATM   27  N   UNL     1      31.631  44.740  58.088  1.00  0.00    -0.273 NA
HETATM   28  C   UNL     1      30.658  45.525  57.582  1.00  0.00     0.117 A 
HETATM   29  C   UNL     1      29.909  45.198  56.461  1.00  0.00     0.031 A 
ENDBRANCH  21  24
ENDBRANCH   2  18
TORSDOF 8
ENDMDL
