MODEL 1
REMARK VINA RESULT:      -8.5      0.000      0.000
REMARK  6 active torsions:
REMARK  status: ('A' for Active; 'I' for Inactive)
REMARK    1  A    between atoms: C_2  and  C_3 
REMARK    2  A    between atoms: C_3  and  O_4 
REMARK    3  A    between atoms: O_4  and  C_5 
REMARK    4  A    between atoms: C_7  and  N_8 
REMARK       I    between atoms: N_8  and  C_9 
REMARK       I    between atoms: C_9  and  N_10 
REMARK    5  A    between atoms: N_10  and  C_11 
REMARK    6  A    between atoms: C_11  and  C_12 
ROOT
HETATM    1  N   UNL     1      26.101  46.826  50.700  1.00  0.00    -0.309 N 
HETATM    2  C   UNL     1      26.720  45.617  50.473  1.00  0.00     0.320 C 
HETATM    3  N   UNL     1      26.634  44.815  51.591  1.00  0.00    -0.339 N 
HETATM    4  O   UNL     1      27.332  45.283  49.469  1.00  0.00    -0.247 OA
HETATM    5  H   UNL     1      25.862  47.012  51.660  1.00  0.00     0.170 HD
HETATM    6  H   UNL     1      25.839  44.938  52.198  1.00  0.00     0.164 HD
ENDROOT
BRANCH   1   7
HETATM    7  C   UNL     1      26.036  47.925  49.820  1.00  0.00     0.039 A 
HETATM    8  C   UNL     1      24.772  48.283  49.340  1.00  0.00     0.066 A 
HETATM    9  C   UNL     1      24.605  49.398  48.512  1.00  0.00     0.070 A 
HETATM   10  C   UNL     1      25.721  50.127  48.108  1.00  0.00     0.037 A 
HETATM   11  C   UNL     1      26.990  49.759  48.561  1.00  0.00     0.005 A 
HETATM   12  C   UNL     1      27.147  48.668  49.420  1.00  0.00     0.030 A 
BRANCH   9  13
HETATM   13  O   UNL     1      23.309  49.661  48.165  1.00  0.00    -0.351 OA
BRANCH  13  14
HETATM   14  C   UNL     1      22.803  50.950  48.520  1.00  0.00     0.179 C 
BRANCH  14  15
HETATM   15  C   UNL     1      21.438  50.793  49.210  1.00  0.00     0.002 C 
HETATM   16  C   UNL     1      20.983  49.331  49.206  1.00  0.00     0.011 C 
HETATM   17  C   UNL     1      20.373  51.672  48.554  1.00  0.00     0.011 C 
ENDBRANCH  14  15
ENDBRANCH  13  14
ENDBRANCH   9  13
ENDBRANCH   1   7
BRANCH   3  18
HETATM   18  C   UNL     1      27.367  43.570  51.693  1.00  0.00     0.164 C 
BRANCH  18  19
HETATM   19  C   UNL     1      28.399  43.592  52.792  1.00  0.00    -0.023 A 
HETATM   20  C   UNL     1      28.183  44.394  53.911  1.00  0.00     0.127 A 
HETATM   21  N   UNL     1      29.021  44.474  54.970  1.00  0.00    -0.248 NA
HETATM   22  C   UNL     1      30.125  43.704  54.916  1.00  0.00     0.125 A 
HETATM   23 CL   UNL     1      31.155  43.828  56.282  1.00  0.00    -0.063 Cl
HETATM   24  C   UNL     1      30.440  42.862  53.866  1.00  0.00     0.045 A 
HETATM   25  C   UNL     1      29.556  42.804  52.791  1.00  0.00     0.013 A 
ENDBRANCH  18  19
ENDBRANCH   3  18
TORSDOF 6
ENDMDL
MODEL 2
REMARK VINA RESULT:      -7.8      4.434      9.768
REMARK  6 active torsions:
REMARK  status: ('A' for Active; 'I' for Inactive)
REMARK    1  A    between atoms: C_2  and  C_3 
REMARK    2  A    between atoms: C_3  and  O_4 
REMARK    3  A    between atoms: O_4  and  C_5 
REMARK    4  A    between atoms: C_7  and  N_8 
REMARK       I    between atoms: N_8  and  C_9 
REMARK       I    between atoms: C_9  and  N_10 
REMARK    5  A    between atoms: N_10  and  C_11 
REMARK    6  A    between atoms: C_11  and  C_12 
ROOT
HETATM    1  N   UNL     1      23.968  46.799  50.269  1.00  0.00    -0.309 N 
HETATM    2  C   UNL     1      24.023  48.086  49.782  1.00  0.00     0.320 C 
HETATM    3  N   UNL     1      22.752  48.577  49.574  1.00  0.00    -0.339 N 
HETATM    4  O   UNL     1      25.028  48.718  49.494  1.00  0.00    -0.247 OA
HETATM    5  H   UNL     1      23.063  46.359  50.218  1.00  0.00     0.170 HD
HETATM    6  H   UNL     1      22.010  48.224  50.159  1.00  0.00     0.164 HD
ENDROOT
BRANCH   1   7
HETATM    7  C   UNL     1      25.056  45.947  50.543  1.00  0.00     0.039 A 
HETATM    8  C   UNL     1      25.548  45.943  51.853  1.00  0.00     0.066 A 
HETATM    9  C   UNL     1      26.586  45.085  52.231  1.00  0.00     0.070 A 
HETATM   10  C   UNL     1      27.181  44.265  51.275  1.00  0.00     0.037 A 
HETATM   11  C   UNL     1      26.713  44.282  49.960  1.00  0.00     0.005 A 
HETATM   12  C   UNL     1      25.650  45.114  49.596  1.00  0.00     0.030 A 
BRANCH   9  13
HETATM   13  O   UNL     1      26.926  45.150  53.554  1.00  0.00    -0.351 OA
BRANCH  13  14
HETATM   14  C   UNL     1      27.565  43.997  54.104  1.00  0.00     0.179 C 
BRANCH  14  15
HETATM   15  C   UNL     1      29.029  44.331  54.437  1.00  0.00     0.002 C 
HETATM   16  C   UNL     1      29.819  43.064  54.776  1.00  0.00     0.011 C 
HETATM   17  C   UNL     1      29.128  45.331  55.589  1.00  0.00     0.011 C 
ENDBRANCH  14  15
ENDBRANCH  13  14
ENDBRANCH   9  13
ENDBRANCH   1   7
BRANCH   3  18
HETATM   18  C   UNL     1      22.523  49.830  48.886  1.00  0.00     0.164 C 
BRANCH  18  19
HETATM   19  C   UNL     1      21.121  50.349  49.077  1.00  0.00    -0.023 A 
HETATM   20  C   UNL     1      20.207  49.588  49.803  1.00  0.00     0.127 A 
HETATM   21  N   UNL     1      18.933  49.963  50.064  1.00  0.00    -0.248 NA
HETATM   22  C   UNL     1      18.556  51.165  49.587  1.00  0.00     0.125 A 
HETATM   23 CL   UNL     1      16.938  51.605  49.948  1.00  0.00    -0.063 Cl
HETATM   24  C   UNL     1      19.376  52.011  48.865  1.00  0.00     0.045 A 
HETATM   25  C   UNL     1      20.681  51.595  48.613  1.00  0.00     0.013 A 
ENDBRANCH  18  19
ENDBRANCH   3  18
TORSDOF 6
ENDMDL
MODEL 3
REMARK VINA RESULT:      -7.8      4.084      9.171
REMARK  6 active torsions:
REMARK  status: ('A' for Active; 'I' for Inactive)
REMARK    1  A    between atoms: C_2  and  C_3 
REMARK    2  A    between atoms: C_3  and  O_4 
REMARK    3  A    between atoms: O_4  and  C_5 
REMARK    4  A    between atoms: C_7  and  N_8 
REMARK       I    between atoms: N_8  and  C_9 
REMARK       I    between atoms: C_9  and  N_10 
REMARK    5  A    between atoms: N_10  and  C_11 
REMARK    6  A    between atoms: C_11  and  C_12 
ROOT
HETATM    1  N   UNL     1      25.270  46.557  52.364  1.00  0.00    -0.309 N 
HETATM    2  C   UNL     1      25.333  47.265  51.184  1.00  0.00     0.320 C 
HETATM    3  N   UNL     1      24.160  47.124  50.476  1.00  0.00    -0.339 N 
HETATM    4  O   UNL     1      26.294  47.885  50.752  1.00  0.00    -0.247 OA
HETATM    5  H   UNL     1      24.496  45.917  52.440  1.00  0.00     0.170 HD
HETATM    6  H   UNL     1      23.311  46.968  50.997  1.00  0.00     0.164 HD
ENDROOT
BRANCH   1   7
HETATM    7  C   UNL     1      26.295  46.407  53.321  1.00  0.00     0.039 A 
HETATM    8  C   UNL     1      26.997  45.197  53.317  1.00  0.00     0.066 A 
HETATM    9  C   UNL     1      28.069  44.984  54.190  1.00  0.00     0.070 A 
HETATM   10  C   UNL     1      28.404  45.966  55.119  1.00  0.00     0.037 A 
HETATM   11  C   UNL     1      27.690  47.166  55.146  1.00  0.00     0.005 A 
HETATM   12  C   UNL     1      26.645  47.389  54.246  1.00  0.00     0.030 A 
BRANCH   9  13
HETATM   13  O   UNL     1      28.697  43.779  54.038  1.00  0.00    -0.351 OA
BRANCH  13  14
HETATM   14  C   UNL     1      29.163  43.464  52.725  1.00  0.00     0.179 C 
BRANCH  14  15
HETATM   15  C   UNL     1      28.802  42.008  52.386  1.00  0.00     0.002 C 
HETATM   16  C   UNL     1      27.824  41.943  51.210  1.00  0.00     0.011 C 
HETATM   17  C   UNL     1      28.213  41.281  53.595  1.00  0.00     0.011 C 
ENDBRANCH  14  15
ENDBRANCH  13  14
ENDBRANCH   9  13
ENDBRANCH   1   7
BRANCH   3  18
HETATM   18  C   UNL     1      24.030  47.603  49.115  1.00  0.00     0.164 C 
BRANCH  18  19
HETATM   19  C   UNL     1      23.063  48.752  48.994  1.00  0.00    -0.023 A 
HETATM   20  C   UNL     1      21.693  48.496  49.041  1.00  0.00     0.127 A 
HETATM   21  N   UNL     1      20.733  49.447  48.972  1.00  0.00    -0.248 NA
HETATM   22  C   UNL     1      21.160  50.720  48.862  1.00  0.00     0.125 A 
HETATM   23 CL   UNL     1      19.912  51.893  48.787  1.00  0.00    -0.063 Cl
HETATM   24  C   UNL     1      22.490  51.096  48.817  1.00  0.00     0.045 A 
HETATM   25  C   UNL     1      23.453  50.093  48.890  1.00  0.00     0.013 A 
ENDBRANCH  18  19
ENDBRANCH   3  18
TORSDOF 6
ENDMDL
MODEL 4
REMARK VINA RESULT:      -7.8      5.321      8.070
REMARK  6 active torsions:
REMARK  status: ('A' for Active; 'I' for Inactive)
REMARK    1  A    between atoms: C_2  and  C_3 
REMARK    2  A    between atoms: C_3  and  O_4 
REMARK    3  A    between atoms: O_4  and  C_5 
REMARK    4  A    between atoms: C_7  and  N_8 
REMARK       I    between atoms: N_8  and  C_9 
REMARK       I    between atoms: C_9  and  N_10 
REMARK    5  A    between atoms: N_10  and  C_11 
REMARK    6  A    between atoms: C_11  and  C_12 
ROOT
HETATM    1  N   UNL     1      26.163  44.016  53.330  1.00  0.00    -0.309 N 
HETATM    2  C   UNL     1      25.971  43.791  51.985  1.00  0.00     0.320 C 
HETATM    3  N   UNL     1      25.566  42.492  51.768  1.00  0.00    -0.339 N 
HETATM    4  O   UNL     1      26.183  44.576  51.073  1.00  0.00    -0.247 OA
HETATM    5  H   UNL     1      26.170  43.191  53.907  1.00  0.00     0.170 HD
HETATM    6  H   UNL     1      25.044  42.033  52.499  1.00  0.00     0.164 HD
ENDROOT
BRANCH   1   7
HETATM    7  C   UNL     1      26.636  45.199  53.935  1.00  0.00     0.039 A 
HETATM    8  C   UNL     1      27.849  45.120  54.627  1.00  0.00     0.066 A 
HETATM    9  C   UNL     1      28.423  46.256  55.205  1.00  0.00     0.070 A 
HETATM   10  C   UNL     1      27.749  47.473  55.145  1.00  0.00     0.037 A 
HETATM   11  C   UNL     1      26.525  47.554  54.479  1.00  0.00     0.005 A 
HETATM   12  C   UNL     1      25.973  46.424  53.869  1.00  0.00     0.030 A 
BRANCH   9  13
HETATM   13  O   UNL     1      29.635  46.041  55.801  1.00  0.00    -0.351 OA
BRANCH  13  14
HETATM   14  C   UNL     1      30.136  44.703  55.764  1.00  0.00     0.179 C 
BRANCH  14  15
HETATM   15  C   UNL     1      31.141  44.499  56.910  1.00  0.00     0.002 C 
HETATM   16  C   UNL     1      31.403  43.011  57.153  1.00  0.00     0.011 C 
HETATM   17  C   UNL     1      30.662  45.163  58.202  1.00  0.00     0.011 C 
ENDBRANCH  14  15
ENDBRANCH  13  14
ENDBRANCH   9  13
ENDBRANCH   1   7
BRANCH   3  18
HETATM   18  C   UNL     1      25.481  41.933  50.435  1.00  0.00     0.164 C 
BRANCH  18  19
HETATM   19  C   UNL     1      26.514  40.865  50.186  1.00  0.00    -0.023 A 
HETATM   20  C   UNL     1      27.676  40.849  50.956  1.00  0.00     0.127 A 
HETATM   21  N   UNL     1      28.657  39.925  50.844  1.00  0.00    -0.248 NA
HETATM   22  C   UNL     1      28.465  38.959  49.925  1.00  0.00     0.125 A 
HETATM   23 CL   UNL     1      29.729  37.804  49.822  1.00  0.00    -0.063 Cl
HETATM   24  C   UNL     1      27.351  38.865  49.112  1.00  0.00     0.045 A 
HETATM   25  C   UNL     1      26.359  39.832  49.253  1.00  0.00     0.013 A 
ENDBRANCH  18  19
ENDBRANCH   3  18
TORSDOF 6
ENDMDL
MODEL 5
REMARK VINA RESULT:      -7.7      1.943      2.975
REMARK  6 active torsions:
REMARK  status: ('A' for Active; 'I' for Inactive)
REMARK    1  A    between atoms: C_2  and  C_3 
REMARK    2  A    between atoms: C_3  and  O_4 
REMARK    3  A    between atoms: O_4  and  C_5 
REMARK    4  A    between atoms: C_7  and  N_8 
REMARK       I    between atoms: N_8  and  C_9 
REMARK       I    between atoms: C_9  and  N_10 
REMARK    5  A    between atoms: N_10  and  C_11 
REMARK    6  A    between atoms: C_11  and  C_12 
ROOT
HETATM    1  N   UNL     1      27.229  44.649  50.919  1.00  0.00    -0.309 N 
HETATM    2  C   UNL     1      27.355  43.972  52.112  1.00  0.00     0.320 C 
HETATM    3  N   UNL     1      28.681  43.719  52.384  1.00  0.00    -0.339 N 
HETATM    4  O   UNL     1      26.448  43.571  52.826  1.00  0.00    -0.247 OA
HETATM    5  H   UNL     1      28.063  44.684  50.355  1.00  0.00     0.170 HD
HETATM    6  H   UNL     1      29.367  44.366  52.025  1.00  0.00     0.164 HD
ENDROOT
BRANCH   1   7
HETATM    7  C   UNL     1      26.032  45.026  50.278  1.00  0.00     0.039 A 
HETATM    8  C   UNL     1      25.562  46.322  50.516  1.00  0.00     0.066 A 
HETATM    9  C   UNL     1      24.416  46.802  49.875  1.00  0.00     0.070 A 
HETATM   10  C   UNL     1      23.695  45.958  49.034  1.00  0.00     0.037 A 
HETATM   11  C   UNL     1      24.142  44.654  48.812  1.00  0.00     0.005 A 
HETATM   12  C   UNL     1      25.310  44.191  49.425  1.00  0.00     0.030 A 
BRANCH   9  13
HETATM   13  O   UNL     1      24.106  48.103  50.160  1.00  0.00    -0.351 OA
BRANCH  13  14
HETATM   14  C   UNL     1      23.782  48.939  49.048  1.00  0.00     0.179 C 
BRANCH  14  15
HETATM   15  C   UNL     1      22.456  49.668  49.321  1.00  0.00     0.002 C 
HETATM   16  C   UNL     1      21.259  48.795  48.934  1.00  0.00     0.011 C 
HETATM   17  C   UNL     1      22.387  51.005  48.584  1.00  0.00     0.011 C 
ENDBRANCH  14  15
ENDBRANCH  13  14
ENDBRANCH   9  13
ENDBRANCH   1   7
BRANCH   3  18
HETATM   18  C   UNL     1      29.084  42.855  53.474  1.00  0.00     0.164 C 
BRANCH  18  19
HETATM   19  C   UNL     1      29.607  43.622  54.661  1.00  0.00    -0.023 A 
HETATM   20  C   UNL     1      28.960  44.792  55.054  1.00  0.00     0.127 A 
HETATM   21  N   UNL     1      29.319  45.548  56.117  1.00  0.00    -0.248 NA
HETATM   22  C   UNL     1      30.371  45.106  56.834  1.00  0.00     0.125 A 
HETATM   23 CL   UNL     1      30.787  46.087  58.177  1.00  0.00    -0.063 Cl
HETATM   24  C   UNL     1      31.084  43.957  56.548  1.00  0.00     0.045 A 
HETATM   25  C   UNL     1      30.688  43.202  55.446  1.00  0.00     0.013 A 
ENDBRANCH  18  19
ENDBRANCH   3  18
TORSDOF 6
ENDMDL
MODEL 6
REMARK VINA RESULT:      -7.4      4.203      9.489
REMARK  6 active torsions:
REMARK  status: ('A' for Active; 'I' for Inactive)
REMARK    1  A    between atoms: C_2  and  C_3 
REMARK    2  A    between atoms: C_3  and  O_4 
REMARK    3  A    between atoms: O_4  and  C_5 
REMARK    4  A    between atoms: C_7  and  N_8 
REMARK       I    between atoms: N_8  and  C_9 
REMARK       I    between atoms: C_9  and  N_10 
REMARK    5  A    between atoms: N_10  and  C_11 
REMARK    6  A    between atoms: C_11  and  C_12 
ROOT
HETATM    1  N   UNL     1      25.195  46.355  52.589  1.00  0.00    -0.309 N 
HETATM    2  C   UNL     1      25.148  46.960  51.353  1.00  0.00     0.320 C 
HETATM    3  N   UNL     1      24.115  46.442  50.603  1.00  0.00    -0.339 N 
HETATM    4  O   UNL     1      25.930  47.790  50.912  1.00  0.00    -0.247 OA
HETATM    5  H   UNL     1      24.623  45.532  52.687  1.00  0.00     0.170 HD
HETATM    6  H   UNL     1      23.305  46.094  51.094  1.00  0.00     0.164 HD
ENDROOT
BRANCH   1   7
HETATM    7  C   UNL     1      26.147  46.573  53.606  1.00  0.00     0.039 A 
HETATM    8  C   UNL     1      27.213  45.670  53.683  1.00  0.00     0.066 A 
HETATM    9  C   UNL     1      28.237  45.843  54.621  1.00  0.00     0.070 A 
HETATM   10  C   UNL     1      28.163  46.894  55.532  1.00  0.00     0.037 A 
HETATM   11  C   UNL     1      27.089  47.783  55.478  1.00  0.00     0.005 A 
HETATM   12  C   UNL     1      26.088  47.629  54.514  1.00  0.00     0.030 A 
BRANCH   9  13
HETATM   13  O   UNL     1      29.241  44.918  54.545  1.00  0.00    -0.351 OA
BRANCH  13  14
HETATM   14  C   UNL     1      29.444  44.102  55.701  1.00  0.00     0.179 C 
BRANCH  14  15
HETATM   15  C   UNL     1      30.762  44.501  56.386  1.00  0.00     0.002 C 
HETATM   16  C   UNL     1      31.564  43.264  56.800  1.00  0.00     0.011 C 
HETATM   17  C   UNL     1      30.514  45.394  57.602  1.00  0.00     0.011 C 
ENDBRANCH  14  15
ENDBRANCH  13  14
ENDBRANCH   9  13
ENDBRANCH   1   7
BRANCH   3  18
HETATM   18  C   UNL     1      23.959  46.759  49.198  1.00  0.00     0.164 C 
BRANCH  18  19
HETATM   19  C   UNL     1      22.977  47.878  48.961  1.00  0.00    -0.023 A 
HETATM   20  C   UNL     1      23.384  49.195  49.168  1.00  0.00     0.127 A 
HETATM   21  N   UNL     1      22.602  50.279  48.961  1.00  0.00    -0.248 NA
HETATM   22  C   UNL     1      21.356  50.040  48.511  1.00  0.00     0.125 A 
HETATM   23 CL   UNL     1      20.403  51.442  48.253  1.00  0.00    -0.063 Cl
HETATM   24  C   UNL     1      20.846  48.780  48.258  1.00  0.00     0.045 A 
HETATM   25  C   UNL     1      21.676  47.684  48.483  1.00  0.00     0.013 A 
ENDBRANCH  18  19
ENDBRANCH   3  18
TORSDOF 6
ENDMDL
MODEL 7
REMARK VINA RESULT:      -7.4      3.375      5.630
REMARK  6 active torsions:
REMARK  status: ('A' for Active; 'I' for Inactive)
REMARK    1  A    between atoms: C_2  and  C_3 
REMARK    2  A    between atoms: C_3  and  O_4 
REMARK    3  A    between atoms: O_4  and  C_5 
REMARK    4  A    between atoms: C_7  and  N_8 
REMARK       I    between atoms: N_8  and  C_9 
REMARK       I    between atoms: C_9  and  N_10 
REMARK    5  A    between atoms: N_10  and  C_11 
REMARK    6  A    between atoms: C_11  and  C_12 
ROOT
HETATM    1  N   UNL     1      21.654  48.724  49.435  1.00  0.00    -0.309 N 
HETATM    2  C   UNL     1      23.027  48.775  49.526  1.00  0.00     0.320 C 
HETATM    3  N   UNL     1      23.531  47.547  49.897  1.00  0.00    -0.339 N 
HETATM    4  O   UNL     1      23.736  49.760  49.378  1.00  0.00    -0.247 OA
HETATM    5  H   UNL     1      21.228  47.897  49.822  1.00  0.00     0.170 HD
HETATM    6  H   UNL     1      23.011  46.725  49.630  1.00  0.00     0.164 HD
ENDROOT
BRANCH   1   7
HETATM    7  C   UNL     1      20.782  49.793  49.145  1.00  0.00     0.039 A 
HETATM    8  C   UNL     1      20.231  49.834  47.859  1.00  0.00     0.066 A 
HETATM    9  C   UNL     1      19.309  50.822  47.502  1.00  0.00     0.070 A 
HETATM   10  C   UNL     1      18.979  51.818  48.419  1.00  0.00     0.037 A 
HETATM   11  C   UNL     1      19.545  51.799  49.695  1.00  0.00     0.005 A 
HETATM   12  C   UNL     1      20.437  50.786  50.060  1.00  0.00     0.030 A 
BRANCH   9  13
HETATM   13  O   UNL     1      18.812  50.707  46.233  1.00  0.00    -0.351 OA
BRANCH  13  14
HETATM   14  C   UNL     1      17.700  51.543  45.906  1.00  0.00     0.179 C 
BRANCH  14  15
HETATM   15  C   UNL     1      17.415  51.450  44.397  1.00  0.00     0.002 C 
HETATM   16  C   UNL     1      18.588  50.806  43.654  1.00  0.00     0.011 C 
HETATM   17  C   UNL     1      17.108  52.822  43.798  1.00  0.00     0.011 C 
ENDBRANCH  14  15
ENDBRANCH  13  14
ENDBRANCH   9  13
ENDBRANCH   1   7
BRANCH   3  18
HETATM   18  C   UNL     1      24.923  47.371  50.255  1.00  0.00     0.164 C 
BRANCH  18  19
HETATM   19  C   UNL     1      25.103  46.541  51.500  1.00  0.00    -0.023 A 
HETATM   20  C   UNL     1      24.635  45.228  51.515  1.00  0.00     0.127 A 
HETATM   21  N   UNL     1      24.764  44.381  52.562  1.00  0.00    -0.248 NA
HETATM   22  C   UNL     1      25.405  44.863  53.645  1.00  0.00     0.125 A 
HETATM   23 CL   UNL     1      25.555  43.754  54.944  1.00  0.00    -0.063 Cl
HETATM   24  C   UNL     1      25.920  46.142  53.741  1.00  0.00     0.045 A 
HETATM   25  C   UNL     1      25.770  46.990  52.646  1.00  0.00     0.013 A 
ENDBRANCH  18  19
ENDBRANCH   3  18
TORSDOF 6
ENDMDL
MODEL 8
REMARK VINA RESULT:      -7.2      5.387      7.631
REMARK  6 active torsions:
REMARK  status: ('A' for Active; 'I' for Inactive)
REMARK    1  A    between atoms: C_2  and  C_3 
REMARK    2  A    between atoms: C_3  and  O_4 
REMARK    3  A    between atoms: O_4  and  C_5 
REMARK    4  A    between atoms: C_7  and  N_8 
REMARK       I    between atoms: N_8  and  C_9 
REMARK       I    between atoms: C_9  and  N_10 
REMARK    5  A    between atoms: N_10  and  C_11 
REMARK    6  A    between atoms: C_11  and  C_12 
ROOT
HETATM    1  N   UNL     1      27.004  42.638  53.094  1.00  0.00    -0.309 N 
HETATM    2  C   UNL     1      26.778  42.754  51.740  1.00  0.00     0.320 C 
HETATM    3  N   UNL     1      25.648  42.054  51.379  1.00  0.00    -0.339 N 
HETATM    4  O   UNL     1      27.487  43.325  50.925  1.00  0.00    -0.247 OA
HETATM    5  H   UNL     1      26.453  41.937  53.563  1.00  0.00     0.170 HD
HETATM    6  H   UNL     1      24.918  41.951  52.068  1.00  0.00     0.164 HD
ENDROOT
BRANCH   1   7
HETATM    7  C   UNL     1      28.093  43.160  53.822  1.00  0.00     0.039 A 
HETATM    8  C   UNL     1      28.034  44.513  54.173  1.00  0.00     0.066 A 
HETATM    9  C   UNL     1      29.041  45.100  54.947  1.00  0.00     0.070 A 
HETATM   10  C   UNL     1      30.148  44.343  55.322  1.00  0.00     0.037 A 
HETATM   11  C   UNL     1      30.226  42.999  54.952  1.00  0.00     0.005 A 
HETATM   12  C   UNL     1      29.199  42.407  54.212  1.00  0.00     0.030 A 
BRANCH   9  13
HETATM   13  O   UNL     1      28.825  46.413  55.260  1.00  0.00    -0.351 OA
BRANCH  13  14
HETATM   14  C   UNL     1      27.545  46.737  55.806  1.00  0.00     0.179 C 
BRANCH  14  15
HETATM   15  C   UNL     1      26.945  47.926  55.037  1.00  0.00     0.002 C 
HETATM   16  C   UNL     1      26.284  48.922  55.994  1.00  0.00     0.011 C 
HETATM   17  C   UNL     1      25.935  47.464  53.987  1.00  0.00     0.011 C 
ENDBRANCH  14  15
ENDBRANCH  13  14
ENDBRANCH   9  13
ENDBRANCH   1   7
BRANCH   3  18
HETATM   18  C   UNL     1      25.291  41.847  49.991  1.00  0.00     0.164 C 
BRANCH  18  19
HETATM   19  C   UNL     1      26.108  40.763  49.337  1.00  0.00    -0.023 A 
HETATM   20  C   UNL     1      26.656  40.991  48.075  1.00  0.00     0.127 A 
HETATM   21  N   UNL     1      27.428  40.107  47.403  1.00  0.00    -0.248 NA
HETATM   22  C   UNL     1      27.679  38.940  48.027  1.00  0.00     0.125 A 
HETATM   23 CL   UNL     1      28.669  37.852  47.145  1.00  0.00    -0.063 Cl
HETATM   24  C   UNL     1      27.201  38.605  49.280  1.00  0.00     0.045 A 
HETATM   25  C   UNL     1      26.408  39.538  49.945  1.00  0.00     0.013 A 
ENDBRANCH  18  19
ENDBRANCH   3  18
TORSDOF 6
ENDMDL
MODEL 9
REMARK VINA RESULT:      -7.1      3.988      9.041
REMARK  6 active torsions:
REMARK  status: ('A' for Active; 'I' for Inactive)
REMARK    1  A    between atoms: C_2  and  C_3 
REMARK    2  A    between atoms: C_3  and  O_4 
REMARK    3  A    between atoms: O_4  and  C_5 
REMARK    4  A    between atoms: C_7  and  N_8 
REMARK       I    between atoms: N_8  and  C_9 
REMARK       I    between atoms: C_9  and  N_10 
REMARK    5  A    between atoms: N_10  and  C_11 
REMARK    6  A    between atoms: C_11  and  C_12 
ROOT
HETATM    1  N   UNL     1      26.621  43.628  50.688  1.00  0.00    -0.309 N 
HETATM    2  C   UNL     1      25.256  43.810  50.703  1.00  0.00     0.320 C 
HETATM    3  N   UNL     1      24.877  44.689  49.711  1.00  0.00    -0.339 N 
HETATM    4  O   UNL     1      24.462  43.339  51.503  1.00  0.00    -0.247 OA
HETATM    5  H   UNL     1      27.135  44.278  50.115  1.00  0.00     0.170 HD
HETATM    6  H   UNL     1      25.445  44.732  48.879  1.00  0.00     0.164 HD
ENDROOT
BRANCH   1   7
HETATM    7  C   UNL     1      27.385  42.856  51.586  1.00  0.00     0.039 A 
HETATM    8  C   UNL     1      27.839  43.491  52.747  1.00  0.00     0.066 A 
HETATM    9  C   UNL     1      28.551  42.786  53.722  1.00  0.00     0.070 A 
HETATM   10  C   UNL     1      28.867  41.447  53.508  1.00  0.00     0.037 A 
HETATM   11  C   UNL     1      28.441  40.813  52.340  1.00  0.00     0.005 A 
HETATM   12  C   UNL     1      27.696  41.511  51.385  1.00  0.00     0.030 A 
BRANCH   9  13
HETATM   13  O   UNL     1      28.882  43.520  54.828  1.00  0.00    -0.351 OA
BRANCH  13  14
HETATM   14  C   UNL     1      28.591  44.918  54.776  1.00  0.00     0.179 C 
BRANCH  14  15
HETATM   15  C   UNL     1      29.504  45.670  55.759  1.00  0.00     0.002 C 
HETATM   16  C   UNL     1      30.688  44.798  56.186  1.00  0.00     0.011 C 
HETATM   17  C   UNL     1      28.733  46.144  56.991  1.00  0.00     0.011 C 
ENDBRANCH  14  15
ENDBRANCH  13  14
ENDBRANCH   9  13
ENDBRANCH   1   7
BRANCH   3  18
HETATM   18  C   UNL     1      23.527  45.207  49.627  1.00  0.00     0.164 C 
BRANCH  18  19
HETATM   19  C   UNL     1      23.482  46.636  49.151  1.00  0.00    -0.023 A 
HETATM   20  C   UNL     1      22.491  47.022  48.251  1.00  0.00     0.127 A 
HETATM   21  N   UNL     1      22.334  48.280  47.777  1.00  0.00    -0.248 NA
HETATM   22  C   UNL     1      23.202  49.203  48.235  1.00  0.00     0.125 A 
HETATM   23 CL   UNL     1      22.961  50.784  47.617  1.00  0.00    -0.063 Cl
HETATM   24  C   UNL     1      24.217  48.941  49.136  1.00  0.00     0.045 A 
HETATM   25  C   UNL     1      24.352  47.636  49.604  1.00  0.00     0.013 A 
ENDBRANCH  18  19
ENDBRANCH   3  18
TORSDOF 6
ENDMDL
MODEL 10
REMARK VINA RESULT:      -7.1      3.013      5.269
REMARK  6 active torsions:
REMARK  status: ('A' for Active; 'I' for Inactive)
REMARK    1  A    between atoms: C_2  and  C_3 
REMARK    2  A    between atoms: C_3  and  O_4 
REMARK    3  A    between atoms: O_4  and  C_5 
REMARK    4  A    between atoms: C_7  and  N_8 
REMARK       I    between atoms: N_8  and  C_9 
REMARK       I    between atoms: C_9  and  N_10 
REMARK    5  A    between atoms: N_10  and  C_11 
REMARK    6  A    between atoms: C_11  and  C_12 
ROOT
HETATM    1  N   UNL     1      21.907  48.699  49.633  1.00  0.00    -0.309 N 
HETATM    2  C   UNL     1      23.177  48.367  49.215  1.00  0.00     0.320 C 
HETATM    3  N   UNL     1      23.758  47.483  50.096  1.00  0.00    -0.339 N 
HETATM    4  O   UNL     1      23.772  48.820  48.248  1.00  0.00    -0.247 OA
HETATM    5  H   UNL     1      21.676  48.416  50.572  1.00  0.00     0.170 HD
HETATM    6  H   UNL     1      23.151  46.861  50.609  1.00  0.00     0.164 HD
ENDROOT
BRANCH   1   7
HETATM    7  C   UNL     1      21.028  49.621  49.030  1.00  0.00     0.039 A 
HETATM    8  C   UNL     1      19.983  49.096  48.262  1.00  0.00     0.066 A 
HETATM    9  C   UNL     1      19.028  49.933  47.677  1.00  0.00     0.070 A 
HETATM   10  C   UNL     1      19.151  51.314  47.810  1.00  0.00     0.037 A 
HETATM   11  C   UNL     1      20.206  51.847  48.553  1.00  0.00     0.005 A 
HETATM   12  C   UNL     1      21.137  51.004  49.168  1.00  0.00     0.030 A 
BRANCH   9  13
HETATM   13  O   UNL     1      18.034  49.280  47.001  1.00  0.00    -0.351 OA
BRANCH  13  14
HETATM   14  C   UNL     1      16.956  50.084  46.519  1.00  0.00     0.179 C 
BRANCH  14  15
HETATM   15  C   UNL     1      15.724  49.882  47.417  1.00  0.00     0.002 C 
HETATM   16  C   UNL     1      15.623  50.990  48.469  1.00  0.00     0.011 C 
HETATM   17  C   UNL     1      15.744  48.515  48.100  1.00  0.00     0.011 C 
ENDBRANCH  14  15
ENDBRANCH  13  14
ENDBRANCH   9  13
ENDBRANCH   1   7
BRANCH   3  18
HETATM   18  C   UNL     1      25.157  47.122  50.002  1.00  0.00     0.164 C 
BRANCH  18  19
HETATM   19  C   UNL     1      25.682  46.495  51.269  1.00  0.00    -0.023 A 
HETATM   20  C   UNL     1      26.240  45.218  51.215  1.00  0.00     0.127 A 
HETATM   21  N   UNL     1      26.767  44.568  52.277  1.00  0.00    -0.248 NA
HETATM   22  C   UNL     1      26.749  45.229  53.451  1.00  0.00     0.125 A 
HETATM   23 CL   UNL     1      27.436  44.372  54.769  1.00  0.00    -0.063 Cl
HETATM   24  C   UNL     1      26.234  46.499  53.624  1.00  0.00     0.045 A 
HETATM   25  C   UNL     1      25.698  47.142  52.510  1.00  0.00     0.013 A 
ENDBRANCH  18  19
ENDBRANCH   3  18
TORSDOF 6
ENDMDL
