MODEL 1
REMARK VINA RESULT:      -8.9      0.000      0.000
REMARK  8 active torsions:
REMARK  status: ('A' for Active; 'I' for Inactive)
REMARK    1  A    between atoms: O_2  and  C_3 
REMARK    2  A    between atoms: C_4  and  O_5 
REMARK    3  A    between atoms: C_8  and  C_9 
REMARK    4  A    between atoms: C_9  and  N_10 
REMARK    5  A    between atoms: C_19  and  C_20 
REMARK    6  A    between atoms: C_20  and  N_21 
REMARK    7  A    between atoms: C_25  and  O_26 
REMARK    8  A    between atoms: C_25  and  C_27 
ROOT
HETATM    1  N   UNL     1      25.469  46.720  50.449  1.00  0.00    -0.061 N 
HETATM    2  H   UNL     1      25.525  45.704  50.585  1.00  0.00     0.280 HD
HETATM    3  C   UNL     1      24.317  46.899  49.479  1.00  0.00     0.276 C 
HETATM    4  C   UNL     1      23.901  48.319  49.212  1.00  0.00     0.002 A 
HETATM    5  C   UNL     1      24.797  49.224  48.642  1.00  0.00     0.076 A 
HETATM    6  O   UNL     1      26.053  48.833  48.277  1.00  0.00    -0.349 OA
HETATM    7  C   UNL     1      26.887  48.575  49.414  1.00  0.00     0.203 C 
HETATM    8  C   UNL     1      26.811  47.105  49.841  1.00  0.00     0.262 C 
HETATM    9  C   UNL     1      22.596  48.765  49.498  1.00  0.00     0.020 A 
HETATM   10  C   UNL     1      22.207  50.098  49.270  1.00  0.00    -0.032 A 
HETATM   11  C   UNL     1      23.130  50.976  48.684  1.00  0.00     0.011 A 
HETATM   12  C   UNL     1      24.413  50.532  48.354  1.00  0.00     0.038 A 
ENDROOT
BRANCH  10  13
HETATM   13  C   UNL     1      20.833  50.577  49.677  1.00  0.00     0.273 C 
BRANCH  13  14
HETATM   14  N   UNL     1      19.677  49.855  49.008  1.00  0.00    -0.067 N 
HETATM   15  H   UNL     1      18.870  50.493  49.036  1.00  0.00     0.280 HD
HETATM   16  C   UNL     1      19.954  49.541  47.557  1.00  0.00     0.238 C 
HETATM   17  C   UNL     1      18.777  48.795  46.952  1.00  0.00     0.071 C 
HETATM   18  C   UNL     1      18.493  47.473  47.694  1.00  0.00     0.089 C 
HETATM   19  C   UNL     1      18.171  47.866  49.150  1.00  0.00     0.071 C 
HETATM   20  C   UNL     1      19.307  48.626  49.813  1.00  0.00     0.238 C 
BRANCH  18  21
HETATM   21  O   UNL     1      17.284  46.953  47.139  1.00  0.00    -0.385 OA
HETATM   22  H   UNL     1      17.332  46.950  46.164  1.00  0.00     0.211 HD
ENDBRANCH  18  21
BRANCH  18  23
HETATM   23  C   UNL     1      19.591  46.430  47.518  1.00  0.00    -0.006 A 
HETATM   24  C   UNL     1      19.751  45.348  48.384  1.00  0.00     0.126 A 
HETATM   25  N   UNL     1      20.751  44.443  48.310  1.00  0.00    -0.272 NA
HETATM   26  C   UNL     1      21.608  44.549  47.278  1.00  0.00     0.116 A 
HETATM   27  C   UNL     1      21.511  45.537  46.317  1.00  0.00     0.020 A 
HETATM   28  C   UNL     1      20.489  46.478  46.439  1.00  0.00     0.013 A 
ENDBRANCH  18  23
ENDBRANCH  13  14
ENDBRANCH  10  13
BRANCH   1  29
HETATM   29  C   UNL     1      25.264  47.279  51.844  1.00  0.00     0.274 C 
BRANCH  29  30
HETATM   30  C   UNL     1      26.157  46.661  52.886  1.00  0.00    -0.030 A 
HETATM   31  C   UNL     1      26.477  45.300  52.811  1.00  0.00     0.048 A 
HETATM   32  C   UNL     1      27.418  44.739  53.674  1.00  0.00     0.102 A 
HETATM   33  C   UNL     1      28.043  45.518  54.656  1.00  0.00     0.101 A 
HETATM   34  C   UNL     1      27.676  46.861  54.778  1.00  0.00     0.040 A 
HETATM   35  C   UNL     1      26.744  47.431  53.898  1.00  0.00     0.012 A 
BRANCH  32  36
HETATM   36  O   UNL     1      27.781  43.442  53.409  1.00  0.00    -0.353 OA
HETATM   37  C   UNL     1      28.551  43.355  52.206  1.00  0.00     0.210 C 
ENDBRANCH  32  36
BRANCH  33  38
HETATM   38  O   UNL     1      29.016  44.908  55.399  1.00  0.00    -0.353 OA
HETATM   39  C   UNL     1      29.806  45.736  56.246  1.00  0.00     0.210 C 
ENDBRANCH  33  38
ENDBRANCH  29  30
ENDBRANCH   1  29
TORSDOF 8
ENDMDL
MODEL 2
REMARK VINA RESULT:      -8.7      2.638     10.091
REMARK  8 active torsions:
REMARK  status: ('A' for Active; 'I' for Inactive)
REMARK    1  A    between atoms: O_2  and  C_3 
REMARK    2  A    between atoms: C_4  and  O_5 
REMARK    3  A    between atoms: C_8  and  C_9 
REMARK    4  A    between atoms: C_9  and  N_10 
REMARK    5  A    between atoms: C_19  and  C_20 
REMARK    6  A    between atoms: C_20  and  N_21 
REMARK    7  A    between atoms: C_25  and  O_26 
REMARK    8  A    between atoms: C_25  and  C_27 
ROOT
HETATM    1  N   UNL     1      21.273  49.585  47.959  1.00  0.00    -0.061 N 
HETATM    2  H   UNL     1      21.207  50.548  47.609  1.00  0.00     0.280 HD
HETATM    3  C   UNL     1      22.764  49.306  47.989  1.00  0.00     0.276 C 
HETATM    4  C   UNL     1      23.172  48.001  48.616  1.00  0.00     0.002 A 
HETATM    5  C   UNL     1      22.743  46.790  48.072  1.00  0.00     0.076 A 
HETATM    6  O   UNL     1      21.980  46.759  46.939  1.00  0.00    -0.349 OA
HETATM    7  C   UNL     1      20.649  47.236  47.176  1.00  0.00     0.203 C 
HETATM    8  C   UNL     1      20.541  48.743  46.923  1.00  0.00     0.262 C 
HETATM    9  C   UNL     1      24.018  47.964  49.741  1.00  0.00     0.020 A 
HETATM   10  C   UNL     1      24.387  46.746  50.344  1.00  0.00    -0.032 A 
HETATM   11  C   UNL     1      23.947  45.549  49.762  1.00  0.00     0.011 A 
HETATM   12  C   UNL     1      23.145  45.574  48.618  1.00  0.00     0.038 A 
ENDROOT
BRANCH  10  13
HETATM   13  C   UNL     1      25.213  46.736  51.609  1.00  0.00     0.273 C 
BRANCH  13  14
HETATM   14  N   UNL     1      25.487  45.359  52.186  1.00  0.00    -0.067 N 
HETATM   15  H   UNL     1      24.822  44.712  51.742  1.00  0.00     0.280 HD
HETATM   16  C   UNL     1      26.879  44.864  51.868  1.00  0.00     0.238 C 
HETATM   17  C   UNL     1      27.101  43.499  52.494  1.00  0.00     0.071 C 
HETATM   18  C   UNL     1      26.934  43.536  54.027  1.00  0.00     0.089 C 
HETATM   19  C   UNL     1      25.485  43.998  54.282  1.00  0.00     0.071 C 
HETATM   20  C   UNL     1      25.191  45.358  53.672  1.00  0.00     0.238 C 
BRANCH  18  21
HETATM   21  O   UNL     1      27.010  42.182  54.473  1.00  0.00    -0.385 OA
HETATM   22  H   UNL     1      27.401  42.141  55.367  1.00  0.00     0.211 HD
ENDBRANCH  18  21
BRANCH  18  23
HETATM   23  C   UNL     1      28.019  44.338  54.737  1.00  0.00    -0.006 A 
HETATM   24  C   UNL     1      27.782  45.586  55.313  1.00  0.00     0.126 A 
HETATM   25  N   UNL     1      28.726  46.363  55.886  1.00  0.00    -0.272 NA
HETATM   26  C   UNL     1      29.971  45.859  55.978  1.00  0.00     0.116 A 
HETATM   27  C   UNL     1      30.313  44.607  55.506  1.00  0.00     0.020 A 
HETATM   28  C   UNL     1      29.325  43.842  54.888  1.00  0.00     0.013 A 
ENDBRANCH  18  23
ENDBRANCH  13  14
ENDBRANCH  10  13
BRANCH   1  29
HETATM   29  C   UNL     1      20.570  49.622  49.303  1.00  0.00     0.274 C 
BRANCH  29  30
HETATM   30  C   UNL     1      19.274  50.387  49.292  1.00  0.00    -0.030 A 
HETATM   31  C   UNL     1      18.116  49.788  48.781  1.00  0.00     0.048 A 
HETATM   32  C   UNL     1      16.876  50.417  48.896  1.00  0.00     0.102 A 
HETATM   33  C   UNL     1      16.766  51.678  49.498  1.00  0.00     0.101 A 
HETATM   34  C   UNL     1      17.930  52.308  49.947  1.00  0.00     0.040 A 
HETATM   35  C   UNL     1      19.175  51.668  49.850  1.00  0.00     0.012 A 
BRANCH  32  36
HETATM   36  O   UNL     1      15.786  49.675  48.515  1.00  0.00    -0.353 OA
HETATM   37  C   UNL     1      16.186  48.448  47.898  1.00  0.00     0.210 C 
ENDBRANCH  32  36
BRANCH  33  38
HETATM   38  O   UNL     1      15.503  52.180  49.647  1.00  0.00    -0.353 OA
HETATM   39  C   UNL     1      15.085  53.180  48.723  1.00  0.00     0.210 C 
ENDBRANCH  33  38
ENDBRANCH  29  30
ENDBRANCH   1  29
TORSDOF 8
ENDMDL
MODEL 3
REMARK VINA RESULT:      -8.6      3.204      8.236
REMARK  8 active torsions:
REMARK  status: ('A' for Active; 'I' for Inactive)
REMARK    1  A    between atoms: O_2  and  C_3 
REMARK    2  A    between atoms: C_4  and  O_5 
REMARK    3  A    between atoms: C_8  and  C_9 
REMARK    4  A    between atoms: C_9  and  N_10 
REMARK    5  A    between atoms: C_19  and  C_20 
REMARK    6  A    between atoms: C_20  and  N_21 
REMARK    7  A    between atoms: C_25  and  O_26 
REMARK    8  A    between atoms: C_25  and  C_27 
ROOT
HETATM    1  N   UNL     1      25.661  46.427  53.035  1.00  0.00    -0.061 N 
HETATM    2  H   UNL     1      24.712  46.810  52.947  1.00  0.00     0.280 HD
HETATM    3  C   UNL     1      25.465  45.134  53.805  1.00  0.00     0.276 C 
HETATM    4  C   UNL     1      26.686  44.268  53.949  1.00  0.00     0.002 A 
HETATM    5  C   UNL     1      27.815  44.742  54.618  1.00  0.00     0.076 A 
HETATM    6  O   UNL     1      27.823  45.982  55.191  1.00  0.00    -0.349 OA
HETATM    7  C   UNL     1      27.848  47.027  54.210  1.00  0.00     0.203 C 
HETATM    8  C   UNL     1      26.431  47.472  53.831  1.00  0.00     0.262 C 
HETATM    9  C   UNL     1      26.713  42.954  53.445  1.00  0.00     0.020 A 
HETATM   10  C   UNL     1      27.861  42.146  53.560  1.00  0.00    -0.032 A 
HETATM   11  C   UNL     1      28.971  42.651  54.249  1.00  0.00     0.011 A 
HETATM   12  C   UNL     1      28.938  43.937  54.794  1.00  0.00     0.038 A 
ENDROOT
BRANCH  10  13
HETATM   13  C   UNL     1      27.900  40.775  52.923  1.00  0.00     0.273 C 
BRANCH  13  14
HETATM   14  N   UNL     1      27.746  40.764  51.414  1.00  0.00    -0.067 N 
HETATM   15  H   UNL     1      28.578  40.293  51.032  1.00  0.00     0.280 HD
HETATM   16  C   UNL     1      26.536  39.980  50.961  1.00  0.00     0.238 C 
HETATM   17  C   UNL     1      26.420  40.030  49.448  1.00  0.00     0.071 C 
HETATM   18  C   UNL     1      26.287  41.476  48.929  1.00  0.00     0.089 C 
HETATM   19  C   UNL     1      27.569  42.205  49.379  1.00  0.00     0.071 C 
HETATM   20  C   UNL     1      27.752  42.185  50.888  1.00  0.00     0.238 C 
BRANCH  18  21
HETATM   21  O   UNL     1      26.345  41.400  47.505  1.00  0.00    -0.385 OA
HETATM   22  H   UNL     1      25.690  42.004  47.106  1.00  0.00     0.211 HD
ENDBRANCH  18  21
BRANCH  18  23
HETATM   23  C   UNL     1      24.974  42.143  49.322  1.00  0.00    -0.006 A 
HETATM   24  C   UNL     1      23.742  41.759  48.790  1.00  0.00     0.126 A 
HETATM   25  N   UNL     1      22.566  42.369  49.053  1.00  0.00    -0.272 NA
HETATM   26  C   UNL     1      22.573  43.369  49.954  1.00  0.00     0.116 A 
HETATM   27  C   UNL     1      23.719  43.793  50.597  1.00  0.00     0.020 A 
HETATM   28  C   UNL     1      24.924  43.169  50.281  1.00  0.00     0.013 A 
ENDBRANCH  18  23
ENDBRANCH  13  14
ENDBRANCH  10  13
BRANCH   1  29
HETATM   29  C   UNL     1      26.147  46.289  51.605  1.00  0.00     0.274 C 
BRANCH  29  30
HETATM   30  C   UNL     1      25.539  47.285  50.655  1.00  0.00    -0.030 A 
HETATM   31  C   UNL     1      26.359  48.212  50.000  1.00  0.00     0.048 A 
HETATM   32  C   UNL     1      25.842  49.045  49.006  1.00  0.00     0.102 A 
HETATM   33  C   UNL     1      24.485  48.993  48.663  1.00  0.00     0.101 A 
HETATM   34  C   UNL     1      23.651  48.117  49.363  1.00  0.00     0.040 A 
HETATM   35  C   UNL     1      24.172  47.266  50.349  1.00  0.00     0.012 A 
BRANCH  32  36
HETATM   36  O   UNL     1      26.759  49.795  48.313  1.00  0.00    -0.353 OA
HETATM   37  C   UNL     1      28.030  49.796  48.970  1.00  0.00     0.210 C 
ENDBRANCH  32  36
BRANCH  33  38
HETATM   38  O   UNL     1      24.084  49.781  47.619  1.00  0.00    -0.353 OA
HETATM   39  C   UNL     1      22.729  50.219  47.616  1.00  0.00     0.210 C 
ENDBRANCH  33  38
ENDBRANCH  29  30
ENDBRANCH   1  29
TORSDOF 8
ENDMDL
MODEL 4
REMARK VINA RESULT:      -8.4      5.373      8.662
REMARK  8 active torsions:
REMARK  status: ('A' for Active; 'I' for Inactive)
REMARK    1  A    between atoms: O_2  and  C_3 
REMARK    2  A    between atoms: C_4  and  O_5 
REMARK    3  A    between atoms: C_8  and  C_9 
REMARK    4  A    between atoms: C_9  and  N_10 
REMARK    5  A    between atoms: C_19  and  C_20 
REMARK    6  A    between atoms: C_20  and  N_21 
REMARK    7  A    between atoms: C_25  and  O_26 
REMARK    8  A    between atoms: C_25  and  C_27 
ROOT
HETATM    1  N   UNL     1      20.206  47.951  49.377  1.00  0.00    -0.061 N 
HETATM    2  H   UNL     1      20.931  47.762  50.080  1.00  0.00     0.280 HD
HETATM    3  C   UNL     1      19.093  48.615  50.165  1.00  0.00     0.276 C 
HETATM    4  C   UNL     1      17.946  49.149  49.353  1.00  0.00     0.002 A 
HETATM    5  C   UNL     1      17.169  48.290  48.575  1.00  0.00     0.076 A 
HETATM    6  O   UNL     1      17.404  46.945  48.565  1.00  0.00    -0.349 OA
HETATM    7  C   UNL     1      18.622  46.618  47.882  1.00  0.00     0.203 C 
HETATM    8  C   UNL     1      19.811  46.579  48.848  1.00  0.00     0.262 C 
HETATM    9  C   UNL     1      17.606  50.516  49.378  1.00  0.00     0.020 A 
HETATM   10  C   UNL     1      16.546  51.025  48.604  1.00  0.00    -0.032 A 
HETATM   11  C   UNL     1      15.780  50.131  47.845  1.00  0.00     0.011 A 
HETATM   12  C   UNL     1      16.079  48.766  47.849  1.00  0.00     0.038 A 
ENDROOT
BRANCH  10  13
HETATM   13  C   UNL     1      16.265  52.510  48.572  1.00  0.00     0.273 C 
BRANCH  13  14
HETATM   14  N   UNL     1      14.885  52.911  49.059  1.00  0.00    -0.067 N 
HETATM   15  H   UNL     1      14.231  52.184  48.739  1.00  0.00     0.280 HD
HETATM   16  C   UNL     1      14.797  52.966  50.566  1.00  0.00     0.238 C 
HETATM   17  C   UNL     1      13.404  53.401  50.991  1.00  0.00     0.071 C 
HETATM   18  C   UNL     1      13.040  54.790  50.429  1.00  0.00     0.089 C 
HETATM   19  C   UNL     1      13.100  54.654  48.894  1.00  0.00     0.071 C 
HETATM   20  C   UNL     1      14.468  54.211  48.401  1.00  0.00     0.238 C 
BRANCH  18  21
HETATM   21  O   UNL     1      11.670  55.012  50.761  1.00  0.00    -0.385 OA
HETATM   22  H   UNL     1      11.272  55.657  50.145  1.00  0.00     0.211 HD
ENDBRANCH  18  21
BRANCH  18  23
HETATM   23  C   UNL     1      13.869  55.923  51.025  1.00  0.00    -0.006 A 
HETATM   24  C   UNL     1      14.338  55.906  52.339  1.00  0.00     0.126 A 
HETATM   25  N   UNL     1      15.010  56.917  52.930  1.00  0.00    -0.272 NA
HETATM   26  C   UNL     1      15.319  57.984  52.171  1.00  0.00     0.116 A 
HETATM   27  C   UNL     1      14.970  58.086  50.839  1.00  0.00     0.020 A 
HETATM   28  C   UNL     1      14.245  57.042  50.264  1.00  0.00     0.013 A 
ENDBRANCH  18  23
ENDBRANCH  13  14
ENDBRANCH  10  13
BRANCH   1  29
HETATM   29  C   UNL     1      20.901  48.813  48.340  1.00  0.00     0.274 C 
BRANCH  29  30
HETATM   30  C   UNL     1      22.383  48.954  48.558  1.00  0.00    -0.030 A 
HETATM   31  C   UNL     1      23.052  48.054  49.397  1.00  0.00     0.048 A 
HETATM   32  C   UNL     1      24.443  48.072  49.498  1.00  0.00     0.102 A 
HETATM   33  C   UNL     1      25.201  49.011  48.786  1.00  0.00     0.101 A 
HETATM   34  C   UNL     1      24.532  49.954  48.001  1.00  0.00     0.040 A 
HETATM   35  C   UNL     1      23.134  49.925  47.883  1.00  0.00     0.012 A 
BRANCH  32  36
HETATM   36  O   UNL     1      25.009  47.045  50.213  1.00  0.00    -0.353 OA
HETATM   37  C   UNL     1      24.769  45.783  49.584  1.00  0.00     0.210 C 
ENDBRANCH  32  36
BRANCH  33  38
HETATM   38  O   UNL     1      26.562  48.898  48.875  1.00  0.00    -0.353 OA
HETATM   39  C   UNL     1      27.326  50.089  48.711  1.00  0.00     0.210 C 
ENDBRANCH  33  38
ENDBRANCH  29  30
ENDBRANCH   1  29
TORSDOF 8
ENDMDL
MODEL 5
REMARK VINA RESULT:      -8.4      2.685      5.038
REMARK  8 active torsions:
REMARK  status: ('A' for Active; 'I' for Inactive)
REMARK    1  A    between atoms: O_2  and  C_3 
REMARK    2  A    between atoms: C_4  and  O_5 
REMARK    3  A    between atoms: C_8  and  C_9 
REMARK    4  A    between atoms: C_9  and  N_10 
REMARK    5  A    between atoms: C_19  and  C_20 
REMARK    6  A    between atoms: C_20  and  N_21 
REMARK    7  A    between atoms: C_25  and  O_26 
REMARK    8  A    between atoms: C_25  and  C_27 
ROOT
HETATM    1  N   UNL     1      25.673  42.134  50.779  1.00  0.00    -0.061 N 
HETATM    2  H   UNL     1      25.920  41.863  51.737  1.00  0.00     0.280 HD
HETATM    3  C   UNL     1      24.217  42.547  50.876  1.00  0.00     0.276 C 
HETATM    4  C   UNL     1      23.623  43.148  49.632  1.00  0.00     0.002 A 
HETATM    5  C   UNL     1      23.552  42.406  48.452  1.00  0.00     0.076 A 
HETATM    6  O   UNL     1      23.980  41.110  48.410  1.00  0.00    -0.349 OA
HETATM    7  C   UNL     1      25.408  41.014  48.499  1.00  0.00     0.203 C 
HETATM    8  C   UNL     1      25.869  40.870  49.953  1.00  0.00     0.262 C 
HETATM    9  C   UNL     1      23.096  44.454  49.630  1.00  0.00     0.020 A 
HETATM   10  C   UNL     1      22.558  45.029  48.463  1.00  0.00    -0.032 A 
HETATM   11  C   UNL     1      22.492  44.250  47.300  1.00  0.00     0.011 A 
HETATM   12  C   UNL     1      22.969  42.936  47.303  1.00  0.00     0.038 A 
ENDROOT
BRANCH  10  13
HETATM   13  C   UNL     1      22.090  46.466  48.461  1.00  0.00     0.273 C 
BRANCH  13  14
HETATM   14  N   UNL     1      20.693  46.686  47.912  1.00  0.00    -0.067 N 
HETATM   15  H   UNL     1      20.438  45.834  47.394  1.00  0.00     0.280 HD
HETATM   16  C   UNL     1      19.665  46.874  49.004  1.00  0.00     0.238 C 
HETATM   17  C   UNL     1      18.296  47.117  48.394  1.00  0.00     0.071 C 
HETATM   18  C   UNL     1      18.284  48.367  47.490  1.00  0.00     0.089 C 
HETATM   19  C   UNL     1      19.312  48.092  46.375  1.00  0.00     0.071 C 
HETATM   20  C   UNL     1      20.707  47.830  46.919  1.00  0.00     0.238 C 
BRANCH  18  21
HETATM   21  O   UNL     1      17.003  48.396  46.861  1.00  0.00    -0.385 OA
HETATM   22  H   UNL     1      16.558  49.247  47.037  1.00  0.00     0.211 HD
ENDBRANCH  18  21
BRANCH  18  23
HETATM   23  C   UNL     1      18.473  49.672  48.256  1.00  0.00    -0.006 A 
HETATM   24  C   UNL     1      17.928  49.891  49.522  1.00  0.00     0.126 A 
HETATM   25  N   UNL     1      18.007  51.054  50.204  1.00  0.00    -0.272 NA
HETATM   26  C   UNL     1      18.732  52.047  49.655  1.00  0.00     0.116 A 
HETATM   27  C   UNL     1      19.375  51.925  48.440  1.00  0.00     0.020 A 
HETATM   28  C   UNL     1      19.247  50.725  47.742  1.00  0.00     0.013 A 
ENDBRANCH  18  23
ENDBRANCH  13  14
ENDBRANCH  10  13
BRANCH   1  29
HETATM   29  C   UNL     1      26.660  43.233  50.431  1.00  0.00     0.274 C 
BRANCH  29  30
HETATM   30  C   UNL     1      26.548  44.452  51.305  1.00  0.00    -0.030 A 
HETATM   31  C   UNL     1      26.221  45.690  50.736  1.00  0.00     0.048 A 
HETATM   32  C   UNL     1      25.966  46.800  51.540  1.00  0.00     0.102 A 
HETATM   33  C   UNL     1      26.062  46.711  52.936  1.00  0.00     0.101 A 
HETATM   34  C   UNL     1      26.455  45.496  53.502  1.00  0.00     0.040 A 
HETATM   35  C   UNL     1      26.692  44.373  52.696  1.00  0.00     0.012 A 
BRANCH  32  36
HETATM   36  O   UNL     1      25.493  47.916  50.895  1.00  0.00    -0.353 OA
HETATM   37  C   UNL     1      26.214  48.157  49.683  1.00  0.00     0.210 C 
ENDBRANCH  32  36
BRANCH  33  38
HETATM   38  O   UNL     1      25.709  47.824  53.649  1.00  0.00    -0.353 OA
HETATM   39  C   UNL     1      26.278  47.975  54.945  1.00  0.00     0.210 C 
ENDBRANCH  33  38
ENDBRANCH  29  30
ENDBRANCH   1  29
TORSDOF 8
ENDMDL
MODEL 6
REMARK VINA RESULT:      -8.3      2.758      5.423
REMARK  8 active torsions:
REMARK  status: ('A' for Active; 'I' for Inactive)
REMARK    1  A    between atoms: O_2  and  C_3 
REMARK    2  A    between atoms: C_4  and  O_5 
REMARK    3  A    between atoms: C_8  and  C_9 
REMARK    4  A    between atoms: C_9  and  N_10 
REMARK    5  A    between atoms: C_19  and  C_20 
REMARK    6  A    between atoms: C_20  and  N_21 
REMARK    7  A    between atoms: C_25  and  O_26 
REMARK    8  A    between atoms: C_25  and  C_27 
ROOT
HETATM    1  N   UNL     1      27.720  41.343  51.314  1.00  0.00    -0.061 N 
HETATM    2  H   UNL     1      28.106  40.968  52.188  1.00  0.00     0.280 HD
HETATM    3  C   UNL     1      26.229  41.089  51.432  1.00  0.00     0.276 C 
HETATM    4  C   UNL     1      25.377  41.683  50.344  1.00  0.00     0.002 A 
HETATM    5  C   UNL     1      25.552  41.292  49.016  1.00  0.00     0.076 A 
HETATM    6  O   UNL     1      26.467  40.336  48.679  1.00  0.00    -0.349 OA
HETATM    7  C   UNL     1      27.813  40.810  48.818  1.00  0.00     0.203 C 
HETATM    8  C   UNL     1      28.370  40.513  50.215  1.00  0.00     0.262 C 
HETATM    9  C   UNL     1      24.365  42.618  50.636  1.00  0.00     0.020 A 
HETATM   10  C   UNL     1      23.578  43.191  49.619  1.00  0.00    -0.032 A 
HETATM   11  C   UNL     1      23.774  42.766  48.298  1.00  0.00     0.011 A 
HETATM   12  C   UNL     1      24.743  41.803  48.003  1.00  0.00     0.038 A 
ENDROOT
BRANCH  10  13
HETATM   13  C   UNL     1      22.567  44.266  49.945  1.00  0.00     0.273 C 
BRANCH  13  14
HETATM   14  N   UNL     1      21.928  44.933  48.742  1.00  0.00    -0.067 N 
HETATM   15  H   UNL     1      22.167  44.361  47.921  1.00  0.00     0.280 HD
HETATM   16  C   UNL     1      20.420  44.976  48.837  1.00  0.00     0.238 C 
HETATM   17  C   UNL     1      19.842  45.679  47.620  1.00  0.00     0.071 C 
HETATM   18  C   UNL     1      20.365  47.123  47.489  1.00  0.00     0.089 C 
HETATM   19  C   UNL     1      21.896  47.007  47.347  1.00  0.00     0.071 C 
HETATM   20  C   UNL     1      22.540  46.303  48.530  1.00  0.00     0.238 C 
BRANCH  18  21
HETATM   21  O   UNL     1      19.880  47.615  46.240  1.00  0.00    -0.385 OA
HETATM   22  H   UNL     1      18.956  47.918  46.330  1.00  0.00     0.211 HD
ENDBRANCH  18  21
BRANCH  18  23
HETATM   23  C   UNL     1      19.872  48.051  48.595  1.00  0.00    -0.006 A 
HETATM   24  C   UNL     1      20.536  49.226  48.947  1.00  0.00     0.126 A 
HETATM   25  N   UNL     1      20.179  50.037  49.965  1.00  0.00    -0.272 NA
HETATM   26  C   UNL     1      19.054  49.730  50.638  1.00  0.00     0.116 A 
HETATM   27  C   UNL     1      18.275  48.630  50.337  1.00  0.00     0.020 A 
HETATM   28  C   UNL     1      18.687  47.791  49.303  1.00  0.00     0.013 A 
ENDBRANCH  18  23
ENDBRANCH  13  14
ENDBRANCH  10  13
BRANCH   1  29
HETATM   29  C   UNL     1      28.154  42.796  51.300  1.00  0.00     0.274 C 
BRANCH  29  30
HETATM   30  C   UNL     1      28.820  43.246  52.573  1.00  0.00    -0.030 A 
HETATM   31  C   UNL     1      28.188  44.188  53.394  1.00  0.00     0.048 A 
HETATM   32  C   UNL     1      28.711  44.509  54.647  1.00  0.00     0.102 A 
HETATM   33  C   UNL     1      29.898  43.917  55.099  1.00  0.00     0.101 A 
HETATM   34  C   UNL     1      30.567  43.028  54.254  1.00  0.00     0.040 A 
HETATM   35  C   UNL     1      30.032  42.690  53.002  1.00  0.00     0.012 A 
BRANCH  32  36
HETATM   36  O   UNL     1      27.931  45.314  55.438  1.00  0.00    -0.353 OA
HETATM   37  C   UNL     1      27.431  46.435  54.702  1.00  0.00     0.210 C 
ENDBRANCH  32  36
BRANCH  33  38
HETATM   38  O   UNL     1      30.291  44.222  56.374  1.00  0.00    -0.353 OA
HETATM   39  C   UNL     1      31.527  43.678  56.823  1.00  0.00     0.210 C 
ENDBRANCH  33  38
ENDBRANCH  29  30
ENDBRANCH   1  29
TORSDOF 8
ENDMDL
MODEL 7
REMARK VINA RESULT:      -8.3      2.913      5.359
REMARK  8 active torsions:
REMARK  status: ('A' for Active; 'I' for Inactive)
REMARK    1  A    between atoms: O_2  and  C_3 
REMARK    2  A    between atoms: C_4  and  O_5 
REMARK    3  A    between atoms: C_8  and  C_9 
REMARK    4  A    between atoms: C_9  and  N_10 
REMARK    5  A    between atoms: C_19  and  C_20 
REMARK    6  A    between atoms: C_20  and  N_21 
REMARK    7  A    between atoms: C_25  and  O_26 
REMARK    8  A    between atoms: C_25  and  C_27 
ROOT
HETATM    1  N   UNL     1      24.529  42.373  49.641  1.00  0.00    -0.061 N 
HETATM    2  H   UNL     1      24.697  42.132  50.625  1.00  0.00     0.280 HD
HETATM    3  C   UNL     1      23.079  42.816  49.613  1.00  0.00     0.276 C 
HETATM    4  C   UNL     1      22.593  43.382  48.308  1.00  0.00     0.002 A 
HETATM    5  C   UNL     1      22.596  42.600  47.152  1.00  0.00     0.076 A 
HETATM    6  O   UNL     1      22.999  41.296  47.188  1.00  0.00    -0.349 OA
HETATM    7  C   UNL     1      24.414  41.176  47.388  1.00  0.00     0.203 C 
HETATM    8  C   UNL     1      24.761  41.076  48.878  1.00  0.00     0.262 C 
HETATM    9  C   UNL     1      22.096  44.697  48.221  1.00  0.00     0.020 A 
HETATM   10  C   UNL     1      21.659  45.239  46.997  1.00  0.00    -0.032 A 
HETATM   11  C   UNL     1      21.665  44.420  45.860  1.00  0.00     0.011 A 
HETATM   12  C   UNL     1      22.112  43.099  45.945  1.00  0.00     0.038 A 
ENDROOT
BRANCH  10  13
HETATM   13  C   UNL     1      21.223  46.684  46.910  1.00  0.00     0.273 C 
BRANCH  13  14
HETATM   14  N   UNL     1      20.887  47.333  48.240  1.00  0.00    -0.067 N 
HETATM   15  H   UNL     1      21.352  46.778  48.970  1.00  0.00     0.280 HD
HETATM   16  C   UNL     1      21.413  48.746  48.343  1.00  0.00     0.238 C 
HETATM   17  C   UNL     1      21.020  49.351  49.680  1.00  0.00     0.071 C 
HETATM   18  C   UNL     1      19.490  49.384  49.868  1.00  0.00     0.089 C 
HETATM   19  C   UNL     1      19.024  47.916  49.802  1.00  0.00     0.071 C 
HETATM   20  C   UNL     1      19.395  47.245  48.490  1.00  0.00     0.238 C 
BRANCH  18  21
HETATM   21  O   UNL     1      19.259  49.822  51.207  1.00  0.00    -0.385 OA
HETATM   22  H   UNL     1      19.934  49.450  51.807  1.00  0.00     0.211 HD
ENDBRANCH  18  21
BRANCH  18  23
HETATM   23  C   UNL     1      18.782  50.346  48.919  1.00  0.00    -0.006 A 
HETATM   24  C   UNL     1      17.604  50.015  48.248  1.00  0.00     0.126 A 
HETATM   25  N   UNL     1      16.984  50.804  47.346  1.00  0.00    -0.272 NA
HETATM   26  C   UNL     1      17.498  52.032  47.138  1.00  0.00     0.116 A 
HETATM   27  C   UNL     1      18.620  52.498  47.794  1.00  0.00     0.020 A 
HETATM   28  C   UNL     1      19.260  51.648  48.695  1.00  0.00     0.013 A 
ENDBRANCH  18  23
ENDBRANCH  13  14
ENDBRANCH  10  13
BRANCH   1  29
HETATM   29  C   UNL     1      25.562  43.440  49.332  1.00  0.00     0.274 C 
BRANCH  29  30
HETATM   30  C   UNL     1      25.674  44.506  50.388  1.00  0.00    -0.030 A 
HETATM   31  C   UNL     1      25.816  45.847  50.011  1.00  0.00     0.048 A 
HETATM   32  C   UNL     1      25.771  46.865  50.965  1.00  0.00     0.102 A 
HETATM   33  C   UNL     1      25.614  46.566  52.325  1.00  0.00     0.101 A 
HETATM   34  C   UNL     1      25.541  45.224  52.710  1.00  0.00     0.040 A 
HETATM   35  C   UNL     1      25.566  44.201  51.751  1.00  0.00     0.012 A 
BRANCH  32  36
HETATM   36  O   UNL     1      25.752  48.148  50.476  1.00  0.00    -0.353 OA
HETATM   37  C   UNL     1      24.893  48.254  49.337  1.00  0.00     0.210 C 
ENDBRANCH  32  36
BRANCH  33  38
HETATM   38  O   UNL     1      25.492  47.628  53.178  1.00  0.00    -0.353 OA
HETATM   39  C   UNL     1      26.130  47.522  54.447  1.00  0.00     0.210 C 
ENDBRANCH  33  38
ENDBRANCH  29  30
ENDBRANCH   1  29
TORSDOF 8
ENDMDL
MODEL 8
REMARK VINA RESULT:      -8.2      3.731      6.020
REMARK  8 active torsions:
REMARK  status: ('A' for Active; 'I' for Inactive)
REMARK    1  A    between atoms: O_2  and  C_3 
REMARK    2  A    between atoms: C_4  and  O_5 
REMARK    3  A    between atoms: C_8  and  C_9 
REMARK    4  A    between atoms: C_9  and  N_10 
REMARK    5  A    between atoms: C_19  and  C_20 
REMARK    6  A    between atoms: C_20  and  N_21 
REMARK    7  A    between atoms: C_25  and  O_26 
REMARK    8  A    between atoms: C_25  and  C_27 
ROOT
HETATM    1  N   UNL     1      20.743  51.315  48.828  1.00  0.00    -0.061 N 
HETATM    2  H   UNL     1      21.495  52.014  48.834  1.00  0.00     0.280 HD
HETATM    3  C   UNL     1      19.568  52.043  48.202  1.00  0.00     0.276 C 
HETATM    4  C   UNL     1      18.353  51.204  47.921  1.00  0.00     0.002 A 
HETATM    5  C   UNL     1      17.675  50.569  48.962  1.00  0.00     0.076 A 
HETATM    6  O   UNL     1      18.072  50.727  50.259  1.00  0.00    -0.349 OA
HETATM    7  C   UNL     1      19.311  50.056  50.527  1.00  0.00     0.203 C 
HETATM    8  C   UNL     1      20.510  50.981  50.296  1.00  0.00     0.262 C 
HETATM    9  C   UNL     1      17.850  51.061  46.613  1.00  0.00     0.020 A 
HETATM   10  C   UNL     1      16.724  50.260  46.342  1.00  0.00    -0.032 A 
HETATM   11  C   UNL     1      16.062  49.648  47.414  1.00  0.00     0.011 A 
HETATM   12  C   UNL     1      16.525  49.821  48.721  1.00  0.00     0.038 A 
ENDROOT
BRANCH  10  13
HETATM   13  C   UNL     1      16.263  50.043  44.919  1.00  0.00     0.273 C 
BRANCH  13  14
HETATM   14  N   UNL     1      16.754  48.760  44.274  1.00  0.00    -0.067 N 
HETATM   15  H   UNL     1      16.468  48.793  43.287  1.00  0.00     0.280 HD
HETATM   16  C   UNL     1      18.260  48.637  44.304  1.00  0.00     0.238 C 
HETATM   17  C   UNL     1      18.687  47.323  43.672  1.00  0.00     0.071 C 
HETATM   18  C   UNL     1      18.083  46.110  44.407  1.00  0.00     0.089 C 
HETATM   19  C   UNL     1      16.553  46.268  44.298  1.00  0.00     0.071 C 
HETATM   20  C   UNL     1      16.057  47.571  44.905  1.00  0.00     0.238 C 
BRANCH  18  21
HETATM   21  O   UNL     1      18.425  44.959  43.633  1.00  0.00    -0.385 OA
HETATM   22  H   UNL     1      19.378  44.763  43.721  1.00  0.00     0.211 HD
ENDBRANCH  18  21
BRANCH  18  23
HETATM   23  C   UNL     1      18.630  45.920  45.818  1.00  0.00    -0.006 A 
HETATM   24  C   UNL     1      18.418  44.758  46.561  1.00  0.00     0.126 A 
HETATM   25  N   UNL     1      18.819  44.576  47.837  1.00  0.00    -0.272 NA
HETATM   26  C   UNL     1      19.544  45.557  48.405  1.00  0.00     0.116 A 
HETATM   27  C   UNL     1      19.876  46.725  47.747  1.00  0.00     0.020 A 
HETATM   28  C   UNL     1      19.419  46.900  46.442  1.00  0.00     0.013 A 
ENDBRANCH  18  23
ENDBRANCH  13  14
ENDBRANCH  10  13
BRANCH   1  29
HETATM   29  C   UNL     1      21.312  50.154  48.035  1.00  0.00     0.274 C 
BRANCH  29  30
HETATM   30  C   UNL     1      22.697  49.746  48.459  1.00  0.00    -0.030 A 
HETATM   31  C   UNL     1      22.880  48.576  49.206  1.00  0.00     0.048 A 
HETATM   32  C   UNL     1      24.162  48.099  49.483  1.00  0.00     0.102 A 
HETATM   33  C   UNL     1      25.295  48.797  49.045  1.00  0.00     0.101 A 
HETATM   34  C   UNL     1      25.116  50.001  48.358  1.00  0.00     0.040 A 
HETATM   35  C   UNL     1      23.828  50.471  48.063  1.00  0.00     0.012 A 
BRANCH  32  36
HETATM   36  O   UNL     1      24.230  46.862  50.075  1.00  0.00    -0.353 OA
HETATM   37  C   UNL     1      23.573  45.871  49.278  1.00  0.00     0.210 C 
ENDBRANCH  32  36
BRANCH  33  38
HETATM   38  O   UNL     1      26.508  48.211  49.284  1.00  0.00    -0.353 OA
HETATM   39  C   UNL     1      27.669  49.014  49.090  1.00  0.00     0.210 C 
ENDBRANCH  33  38
ENDBRANCH  29  30
ENDBRANCH   1  29
TORSDOF 8
ENDMDL
MODEL 9
REMARK VINA RESULT:      -8.1      4.960      8.282
REMARK  8 active torsions:
REMARK  status: ('A' for Active; 'I' for Inactive)
REMARK    1  A    between atoms: O_2  and  C_3 
REMARK    2  A    between atoms: C_4  and  O_5 
REMARK    3  A    between atoms: C_8  and  C_9 
REMARK    4  A    between atoms: C_9  and  N_10 
REMARK    5  A    between atoms: C_19  and  C_20 
REMARK    6  A    between atoms: C_20  and  N_21 
REMARK    7  A    between atoms: C_25  and  O_26 
REMARK    8  A    between atoms: C_25  and  C_27 
ROOT
HETATM    1  N   UNL     1      20.693  51.384  49.023  1.00  0.00    -0.061 N 
HETATM    2  H   UNL     1      21.497  52.008  49.155  1.00  0.00     0.280 HD
HETATM    3  C   UNL     1      19.634  52.274  48.400  1.00  0.00     0.276 C 
HETATM    4  C   UNL     1      18.379  51.579  47.948  1.00  0.00     0.002 A 
HETATM    5  C   UNL     1      17.573  50.905  48.867  1.00  0.00     0.076 A 
HETATM    6  O   UNL     1      17.880  50.896  50.197  1.00  0.00    -0.349 OA
HETATM    7  C   UNL     1      19.035  50.093  50.475  1.00  0.00     0.203 C 
HETATM    8  C   UNL     1      20.321  50.926  50.427  1.00  0.00     0.262 C 
HETATM    9  C   UNL     1      17.968  51.615  46.601  1.00  0.00     0.020 A 
HETATM   10  C   UNL     1      16.805  50.949  46.170  1.00  0.00    -0.032 A 
HETATM   11  C   UNL     1      16.014  50.294  47.122  1.00  0.00     0.011 A 
HETATM   12  C   UNL     1      16.388  50.291  48.469  1.00  0.00     0.038 A 
ENDROOT
BRANCH  10  13
HETATM   13  C   UNL     1      16.439  50.919  44.703  1.00  0.00     0.273 C 
BRANCH  13  14
HETATM   14  N   UNL     1      15.455  51.988  44.265  1.00  0.00    -0.067 N 
HETATM   15  H   UNL     1      15.275  51.836  43.264  1.00  0.00     0.280 HD
HETATM   16  C   UNL     1      14.129  51.882  44.982  1.00  0.00     0.238 C 
HETATM   17  C   UNL     1      13.200  52.993  44.524  1.00  0.00     0.071 C 
HETATM   18  C   UNL     1      13.794  54.389  44.799  1.00  0.00     0.089 C 
HETATM   19  C   UNL     1      15.114  54.450  44.004  1.00  0.00     0.071 C 
HETATM   20  C   UNL     1      16.089  53.357  44.407  1.00  0.00     0.238 C 
BRANCH  18  21
HETATM   21  O   UNL     1      12.911  55.330  44.188  1.00  0.00    -0.385 OA
HETATM   22  H   UNL     1      13.082  56.228  44.533  1.00  0.00     0.211 HD
ENDBRANCH  18  21
BRANCH  18  23
HETATM   23  C   UNL     1      13.901  54.722  46.283  1.00  0.00    -0.006 A 
HETATM   24  C   UNL     1      13.580  55.978  46.800  1.00  0.00     0.126 A 
HETATM   25  N   UNL     1      13.729  56.340  48.093  1.00  0.00    -0.272 NA
HETATM   26  C   UNL     1      14.142  55.394  48.958  1.00  0.00     0.116 A 
HETATM   27  C   UNL     1      14.424  54.098  48.577  1.00  0.00     0.020 A 
HETATM   28  C   UNL     1      14.294  53.762  47.229  1.00  0.00     0.013 A 
ENDBRANCH  18  23
ENDBRANCH  13  14
ENDBRANCH  10  13
BRANCH   1  29
HETATM   29  C   UNL     1      21.224  50.262  48.151  1.00  0.00     0.274 C 
BRANCH  29  30
HETATM   30  C   UNL     1      22.638  49.858  48.471  1.00  0.00    -0.030 A 
HETATM   31  C   UNL     1      22.876  48.717  49.248  1.00  0.00     0.048 A 
HETATM   32  C   UNL     1      24.174  48.238  49.433  1.00  0.00     0.102 A 
HETATM   33  C   UNL     1      25.270  48.906  48.872  1.00  0.00     0.101 A 
HETATM   34  C   UNL     1      25.041  50.083  48.154  1.00  0.00     0.040 A 
HETATM   35  C   UNL     1      23.735  50.555  47.950  1.00  0.00     0.012 A 
BRANCH  32  36
HETATM   36  O   UNL     1      24.284  47.026  50.067  1.00  0.00    -0.353 OA
HETATM   37  C   UNL     1      23.731  45.974  49.271  1.00  0.00     0.210 C 
ENDBRANCH  32  36
BRANCH  33  38
HETATM   38  O   UNL     1      26.495  48.319  49.030  1.00  0.00    -0.353 OA
HETATM   39  C   UNL     1      27.636  49.170  48.997  1.00  0.00     0.210 C 
ENDBRANCH  33  38
ENDBRANCH  29  30
ENDBRANCH   1  29
TORSDOF 8
ENDMDL
MODEL 10
REMARK VINA RESULT:      -8.1      4.278      8.906
REMARK  8 active torsions:
REMARK  status: ('A' for Active; 'I' for Inactive)
REMARK    1  A    between atoms: O_2  and  C_3 
REMARK    2  A    between atoms: C_4  and  O_5 
REMARK    3  A    between atoms: C_8  and  C_9 
REMARK    4  A    between atoms: C_9  and  N_10 
REMARK    5  A    between atoms: C_19  and  C_20 
REMARK    6  A    between atoms: C_20  and  N_21 
REMARK    7  A    between atoms: C_25  and  O_26 
REMARK    8  A    between atoms: C_25  and  C_27 
ROOT
HETATM    1  N   UNL     1      25.989  46.306  53.880  1.00  0.00    -0.061 N 
HETATM    2  H   UNL     1      25.031  46.655  54.000  1.00  0.00     0.280 HD
HETATM    3  C   UNL     1      25.894  44.837  54.245  1.00  0.00     0.276 C 
HETATM    4  C   UNL     1      27.136  44.023  54.009  1.00  0.00     0.002 A 
HETATM    5  C   UNL     1      28.321  44.330  54.678  1.00  0.00     0.076 A 
HETATM    6  O   UNL     1      28.370  45.344  55.591  1.00  0.00    -0.349 OA
HETATM    7  C   UNL     1      28.277  46.632  54.966  1.00  0.00     0.203 C 
HETATM    8  C   UNL     1      26.822  47.104  54.874  1.00  0.00     0.262 C 
HETATM    9  C   UNL     1      27.131  42.917  53.136  1.00  0.00     0.020 A 
HETATM   10  C   UNL     1      28.296  42.164  52.896  1.00  0.00    -0.032 A 
HETATM   11  C   UNL     1      29.464  42.494  53.596  1.00  0.00     0.011 A 
HETATM   12  C   UNL     1      29.468  43.560  54.499  1.00  0.00     0.038 A 
ENDROOT
BRANCH  10  13
HETATM   13  C   UNL     1      28.290  41.045  51.880  1.00  0.00     0.273 C 
BRANCH  13  14
HETATM   14  N   UNL     1      27.451  41.306  50.643  1.00  0.00    -0.067 N 
HETATM   15  H   UNL     1      27.041  42.244  50.752  1.00  0.00     0.280 HD
HETATM   16  C   UNL     1      28.276  41.319  49.376  1.00  0.00     0.238 C 
HETATM   17  C   UNL     1      27.378  41.555  48.174  1.00  0.00     0.071 C 
HETATM   18  C   UNL     1      26.296  40.465  48.041  1.00  0.00     0.089 C 
HETATM   19  C   UNL     1      25.463  40.537  49.337  1.00  0.00     0.071 C 
HETATM   20  C   UNL     1      26.304  40.318  50.584  1.00  0.00     0.238 C 
BRANCH  18  21
HETATM   21  O   UNL     1      25.433  40.880  46.983  1.00  0.00    -0.385 OA
HETATM   22  H   UNL     1      24.666  41.366  47.342  1.00  0.00     0.211 HD
ENDBRANCH  18  21
BRANCH  18  23
HETATM   23  C   UNL     1      26.858  39.090  47.692  1.00  0.00    -0.006 A 
HETATM   24  C   UNL     1      26.274  37.902  48.131  1.00  0.00     0.126 A 
HETATM   25  N   UNL     1      26.777  36.669  47.909  1.00  0.00    -0.272 NA
HETATM   26  C   UNL     1      27.879  36.577  47.140  1.00  0.00     0.116 A 
HETATM   27  C   UNL     1      28.506  37.678  46.592  1.00  0.00     0.020 A 
HETATM   28  C   UNL     1      27.985  38.941  46.867  1.00  0.00     0.013 A 
ENDBRANCH  18  23
ENDBRANCH  13  14
ENDBRANCH  10  13
BRANCH   1  29
HETATM   29  C   UNL     1      26.326  46.617  52.433  1.00  0.00     0.274 C 
BRANCH  29  30
HETATM   30  C   UNL     1      25.244  46.235  51.460  1.00  0.00    -0.030 A 
HETATM   31  C   UNL     1      24.721  47.198  50.587  1.00  0.00     0.048 A 
HETATM   32  C   UNL     1      23.828  46.836  49.578  1.00  0.00     0.102 A 
HETATM   33  C   UNL     1      23.411  45.506  49.433  1.00  0.00     0.101 A 
HETATM   34  C   UNL     1      23.879  44.556  50.345  1.00  0.00     0.040 A 
HETATM   35  C   UNL     1      24.791  44.914  51.348  1.00  0.00     0.012 A 
BRANCH  32  36
HETATM   36  O   UNL     1      23.506  47.821  48.677  1.00  0.00    -0.353 OA
HETATM   37  C   UNL     1      23.699  49.122  49.242  1.00  0.00     0.210 C 
ENDBRANCH  32  36
BRANCH  33  38
HETATM   38  O   UNL     1      22.605  45.227  48.364  1.00  0.00    -0.353 OA
HETATM   39  C   UNL     1      21.227  44.984  48.632  1.00  0.00     0.210 C 
ENDBRANCH  33  38
ENDBRANCH  29  30
ENDBRANCH   1  29
TORSDOF 8
ENDMDL
