MODEL 1
REMARK VINA RESULT:      -8.5      0.000      0.000
REMARK  1 active torsions:
REMARK  status: ('A' for Active; 'I' for Inactive)
REMARK    1  A    between atoms: C_11  and  N_12 
REMARK       I    between atoms: N_12  and  C_13 
REMARK       I    between atoms: C_13  and  N_14 
ROOT
HETATM    1  N   UNL     1      27.856  45.009  53.609  1.00  0.00    -0.308 N 
HETATM    2  C   UNL     1      26.621  44.453  53.386  1.00  0.00     0.323 C 
HETATM    3  N   UNL     1      25.923  45.010  52.300  1.00  0.00    -0.332 N 
HETATM    4  C   UNL     1      24.557  44.528  52.097  1.00  0.00     0.160 C 
HETATM    5  C   UNL     1      24.444  43.411  51.030  1.00  0.00     0.204 C 
HETATM    6  N   UNL     1      24.171  44.031  49.675  1.00  0.00    -0.069 N 
HETATM    7  H   UNL     1      23.294  44.569  49.710  1.00  0.00     0.277 HD
HETATM    8  H   UNL     1      23.976  43.261  49.017  1.00  0.00     0.277 HD
HETATM    9  C   UNL     1      25.264  44.876  49.107  1.00  0.00     0.239 C 
HETATM   10  C   UNL     1      26.572  44.737  49.888  1.00  0.00     0.029 C 
HETATM   11  C   UNL     1      26.579  45.631  51.148  1.00  0.00     0.134 C 
HETATM   12  C   UNL     1      25.683  42.527  50.858  1.00  0.00     0.035 C 
HETATM   13  C   UNL     1      26.867  43.262  50.204  1.00  0.00     0.010 C 
HETATM   14  O   UNL     1      26.122  43.535  54.028  1.00  0.00    -0.247 OA
HETATM   15  H   UNL     1      27.927  45.973  53.335  1.00  0.00     0.170 HD
ENDROOT
BRANCH   1  16
HETATM   16  C   UNL     1      28.901  44.515  54.440  1.00  0.00     0.049 A 
HETATM   17  C   UNL     1      29.110  45.095  55.737  1.00  0.00     0.021 A 
HETATM   18  C   UNL     1      30.166  44.622  56.558  1.00  0.00     0.090 A 
HETATM   19  C   UNL     1      28.327  46.148  56.280  1.00  0.00     0.017 A 
HETATM   20  N   UNL     1      30.407  45.143  57.784  1.00  0.00    -0.259 NA
HETATM   21  C   UNL     1      30.975  43.592  56.067  1.00  0.00     0.063 A 
HETATM   22  C   UNL     1      29.634  46.139  58.253  1.00  0.00     0.117 A 
HETATM   23  C   UNL     1      28.589  46.674  57.541  1.00  0.00     0.020 A 
HETATM   24 CL   UNL     1      32.286  42.956  57.010  1.00  0.00    -0.082 Cl
HETATM   25  C   UNL     1      30.781  43.037  54.804  1.00  0.00     0.028 A 
HETATM   26  C   UNL     1      29.756  43.504  53.993  1.00  0.00     0.032 A 
ENDBRANCH   1  16
TORSDOF 1
ENDMDL
MODEL 2
REMARK VINA RESULT:      -8.3      1.124      2.449
REMARK  1 active torsions:
REMARK  status: ('A' for Active; 'I' for Inactive)
REMARK    1  A    between atoms: C_11  and  N_12 
REMARK       I    between atoms: N_12  and  C_13 
REMARK       I    between atoms: C_13  and  N_14 
ROOT
HETATM    1  N   UNL     1      26.986  46.057  53.831  1.00  0.00    -0.308 N 
HETATM    2  C   UNL     1      25.959  45.212  53.494  1.00  0.00     0.323 C 
HETATM    3  N   UNL     1      25.436  45.421  52.205  1.00  0.00    -0.332 N 
HETATM    4  C   UNL     1      24.265  44.620  51.847  1.00  0.00     0.160 C 
HETATM    5  C   UNL     1      24.606  43.353  51.026  1.00  0.00     0.204 C 
HETATM    6  N   UNL     1      24.539  43.675  49.547  1.00  0.00    -0.069 N 
HETATM    7  H   UNL     1      23.594  44.002  49.306  1.00  0.00     0.277 HD
HETATM    8  H   UNL     1      24.645  42.788  49.033  1.00  0.00     0.277 HD
HETATM    9  C   UNL     1      25.558  44.643  49.039  1.00  0.00     0.239 C 
HETATM   10  C   UNL     1      26.656  44.924  50.066  1.00  0.00     0.029 C 
HETATM   11  C   UNL     1      26.211  45.984  51.099  1.00  0.00     0.134 C 
HETATM   12  C   UNL     1      25.993  42.752  51.274  1.00  0.00     0.035 C 
HETATM   13  C   UNL     1      27.139  43.621  50.722  1.00  0.00     0.010 C 
HETATM   14  O   UNL     1      25.506  44.318  54.201  1.00  0.00    -0.247 OA
HETATM   15  H   UNL     1      26.939  46.957  53.387  1.00  0.00     0.170 HD
ENDROOT
BRANCH   1  16
HETATM   16  C   UNL     1      27.887  45.946  54.927  1.00  0.00     0.049 A 
HETATM   17  C   UNL     1      28.908  44.937  54.907  1.00  0.00     0.021 A 
HETATM   18  C   UNL     1      29.793  44.808  56.010  1.00  0.00     0.090 A 
HETATM   19  C   UNL     1      29.106  44.017  53.845  1.00  0.00     0.017 A 
HETATM   20  N   UNL     1      30.765  43.867  56.041  1.00  0.00    -0.259 NA
HETATM   21  C   UNL     1      29.635  45.684  57.090  1.00  0.00     0.063 A 
HETATM   22  C   UNL     1      30.911  43.020  55.006  1.00  0.00     0.117 A 
HETATM   23  C   UNL     1      30.109  43.054  53.892  1.00  0.00     0.020 A 
HETATM   24 CL   UNL     1      30.677  45.593  58.476  1.00  0.00    -0.082 Cl
HETATM   25  C   UNL     1      28.636  46.654  57.116  1.00  0.00     0.028 A 
HETATM   26  C   UNL     1      27.764  46.778  56.044  1.00  0.00     0.032 A 
ENDBRANCH   1  16
TORSDOF 1
ENDMDL
MODEL 3
REMARK VINA RESULT:      -8.2      1.679      2.496
REMARK  1 active torsions:
REMARK  status: ('A' for Active; 'I' for Inactive)
REMARK    1  A    between atoms: C_11  and  N_12 
REMARK       I    between atoms: N_12  and  C_13 
REMARK       I    between atoms: C_13  and  N_14 
ROOT
HETATM    1  N   UNL     1      27.422  43.061  52.738  1.00  0.00    -0.308 N 
HETATM    2  C   UNL     1      27.374  43.507  51.441  1.00  0.00     0.323 C 
HETATM    3  N   UNL     1      26.192  43.174  50.757  1.00  0.00    -0.332 N 
HETATM    4  C   UNL     1      26.147  43.529  49.338  1.00  0.00     0.160 C 
HETATM    5  C   UNL     1      25.413  44.864  49.055  1.00  0.00     0.204 C 
HETATM    6  N   UNL     1      23.948  44.588  48.787  1.00  0.00    -0.069 N 
HETATM    7  H   UNL     1      23.856  43.961  47.975  1.00  0.00     0.277 HD
HETATM    8  H   UNL     1      23.519  45.474  48.479  1.00  0.00     0.277 HD
HETATM    9  C   UNL     1      23.159  44.053  49.936  1.00  0.00     0.239 C 
HETATM   10  C   UNL     1      23.926  44.136  51.257  1.00  0.00     0.029 C 
HETATM   11  C   UNL     1      24.907  42.953  51.421  1.00  0.00     0.134 C 
HETATM   12  C   UNL     1      25.458  45.900  50.182  1.00  0.00     0.035 C 
HETATM   13  C   UNL     1      24.614  45.503  51.406  1.00  0.00     0.010 C 
HETATM   14  O   UNL     1      28.244  44.163  50.877  1.00  0.00    -0.247 OA
HETATM   15  H   UNL     1      26.903  42.216  52.899  1.00  0.00     0.170 HD
ENDROOT
BRANCH   1  16
HETATM   16  C   UNL     1      28.335  43.440  53.761  1.00  0.00     0.049 A 
HETATM   17  C   UNL     1      28.150  44.686  54.451  1.00  0.00     0.021 A 
HETATM   18  C   UNL     1      29.073  45.078  55.456  1.00  0.00     0.090 A 
HETATM   19  C   UNL     1      27.090  45.595  54.195  1.00  0.00     0.017 A 
HETATM   20  N   UNL     1      28.945  46.246  56.127  1.00  0.00    -0.259 NA
HETATM   21  C   UNL     1      30.143  44.223  55.741  1.00  0.00     0.063 A 
HETATM   22  C   UNL     1      27.921  47.072  55.847  1.00  0.00     0.117 A 
HETATM   23  C   UNL     1      26.974  46.792  54.893  1.00  0.00     0.020 A 
HETATM   24 CL   UNL     1      31.314  44.630  56.957  1.00  0.00    -0.082 Cl
HETATM   25  C   UNL     1      30.330  43.021  55.063  1.00  0.00     0.028 A 
HETATM   26  C   UNL     1      29.436  42.638  54.074  1.00  0.00     0.032 A 
ENDBRANCH   1  16
TORSDOF 1
ENDMDL
MODEL 4
REMARK VINA RESULT:      -8.1      6.484      8.994
REMARK  1 active torsions:
REMARK  status: ('A' for Active; 'I' for Inactive)
REMARK    1  A    between atoms: C_11  and  N_12 
REMARK       I    between atoms: N_12  and  C_13 
REMARK       I    between atoms: C_13  and  N_14 
ROOT
HETATM    1  N   UNL     1      22.674  48.908  48.438  1.00  0.00    -0.308 N 
HETATM    2  C   UNL     1      22.026  49.955  49.046  1.00  0.00     0.323 C 
HETATM    3  N   UNL     1      20.882  50.403  48.362  1.00  0.00    -0.332 N 
HETATM    4  C   UNL     1      20.227  51.590  48.912  1.00  0.00     0.160 C 
HETATM    5  C   UNL     1      19.017  51.266  49.824  1.00  0.00     0.204 C 
HETATM    6  N   UNL     1      17.750  51.245  48.994  1.00  0.00    -0.069 N 
HETATM    7  H   UNL     1      17.613  52.162  48.547  1.00  0.00     0.277 HD
HETATM    8  H   UNL     1      16.956  51.154  49.646  1.00  0.00     0.277 HD
HETATM    9  C   UNL     1      17.652  50.160  47.972  1.00  0.00     0.239 C 
HETATM   10  C   UNL     1      18.744  49.102  48.140  1.00  0.00     0.029 C 
HETATM   11  C   UNL     1      20.073  49.550  47.490  1.00  0.00     0.134 C 
HETATM   12  C   UNL     1      19.076  49.921  50.555  1.00  0.00     0.035 C 
HETATM   13  C   UNL     1      18.907  48.712  49.618  1.00  0.00     0.010 C 
HETATM   14  O   UNL     1      22.354  50.483  50.104  1.00  0.00    -0.247 OA
HETATM   15  H   UNL     1      22.579  48.893  47.438  1.00  0.00     0.170 HD
ENDROOT
BRANCH   1  16
HETATM   16  C   UNL     1      23.685  48.069  48.984  1.00  0.00     0.049 A 
HETATM   17  C   UNL     1      25.052  48.511  48.983  1.00  0.00     0.021 A 
HETATM   18  C   UNL     1      26.066  47.666  49.505  1.00  0.00     0.090 A 
HETATM   19  C   UNL     1      25.489  49.762  48.474  1.00  0.00     0.017 A 
HETATM   20  N   UNL     1      27.368  48.036  49.517  1.00  0.00    -0.259 NA
HETATM   21  C   UNL     1      25.690  46.417  50.010  1.00  0.00     0.063 A 
HETATM   22  C   UNL     1      27.729  49.233  49.023  1.00  0.00     0.117 A 
HETATM   23  C   UNL     1      26.831  50.126  48.492  1.00  0.00     0.020 A 
HETATM   24 CL   UNL     1      26.870  45.326  50.668  1.00  0.00    -0.082 Cl
HETATM   25  C   UNL     1      24.367  45.982  50.000  1.00  0.00     0.028 A 
HETATM   26  C   UNL     1      23.373  46.801  49.482  1.00  0.00     0.032 A 
ENDBRANCH   1  16
TORSDOF 1
ENDMDL
MODEL 5
REMARK VINA RESULT:      -8.0      6.641      9.183
REMARK  1 active torsions:
REMARK  status: ('A' for Active; 'I' for Inactive)
REMARK    1  A    between atoms: C_11  and  N_12 
REMARK       I    between atoms: N_12  and  C_13 
REMARK       I    between atoms: C_13  and  N_14 
ROOT
HETATM    1  N   UNL     1      22.150  48.526  49.524  1.00  0.00    -0.308 N 
HETATM    2  C   UNL     1      21.195  48.488  48.539  1.00  0.00     0.323 C 
HETATM    3  N   UNL     1      19.885  48.715  48.994  1.00  0.00    -0.332 N 
HETATM    4  C   UNL     1      18.823  48.570  47.999  1.00  0.00     0.160 C 
HETATM    5  C   UNL     1      18.369  49.913  47.374  1.00  0.00     0.204 C 
HETATM    6  N   UNL     1      17.213  50.478  48.174  1.00  0.00    -0.069 N 
HETATM    7  H   UNL     1      16.430  49.810  48.171  1.00  0.00     0.277 HD
HETATM    8  H   UNL     1      16.855  51.298  47.662  1.00  0.00     0.277 HD
HETATM    9  C   UNL     1      17.524  50.891  49.575  1.00  0.00     0.239 C 
HETATM   10  C   UNL     1      19.027  50.914  49.855  1.00  0.00     0.029 C 
HETATM   11  C   UNL     1      19.567  49.504  50.185  1.00  0.00     0.134 C 
HETATM   12  C   UNL     1      19.433  51.014  47.317  1.00  0.00     0.035 C 
HETATM   13  C   UNL     1      19.789  51.586  48.700  1.00  0.00     0.010 C 
HETATM   14  O   UNL     1      21.405  48.299  47.345  1.00  0.00    -0.247 OA
HETATM   15  H   UNL     1      21.817  48.244  50.429  1.00  0.00     0.170 HD
ENDROOT
BRANCH   1  16
HETATM   16  C   UNL     1      23.564  48.595  49.371  1.00  0.00     0.049 A 
HETATM   17  C   UNL     1      24.373  47.466  49.738  1.00  0.00     0.021 A 
HETATM   18  C   UNL     1      25.785  47.541  49.609  1.00  0.00     0.090 A 
HETATM   19  C   UNL     1      23.861  46.245  50.248  1.00  0.00     0.017 A 
HETATM   20  N   UNL     1      26.589  46.507  49.950  1.00  0.00    -0.259 NA
HETATM   21  C   UNL     1      26.343  48.727  49.120  1.00  0.00     0.063 A 
HETATM   22  C   UNL     1      26.053  45.370  50.428  1.00  0.00     0.117 A 
HETATM   23  C   UNL     1      24.702  45.192  50.595  1.00  0.00     0.020 A 
HETATM   24 CL   UNL     1      28.060  48.898  48.931  1.00  0.00    -0.082 Cl
HETATM   25  C   UNL     1      25.559  49.826  48.776  1.00  0.00     0.028 A 
HETATM   26  C   UNL     1      24.180  49.761  48.910  1.00  0.00     0.032 A 
ENDBRANCH   1  16
TORSDOF 1
ENDMDL
MODEL 6
REMARK VINA RESULT:      -7.9     13.853     15.307
REMARK  1 active torsions:
REMARK  status: ('A' for Active; 'I' for Inactive)
REMARK    1  A    between atoms: C_11  and  N_12 
REMARK       I    between atoms: N_12  and  C_13 
REMARK       I    between atoms: C_13  and  N_14 
ROOT
HETATM    1  N   UNL     1      32.510  50.392  39.932  1.00  0.00    -0.308 N 
HETATM    2  C   UNL     1      31.658  51.188  39.208  1.00  0.00     0.323 C 
HETATM    3  N   UNL     1      30.459  50.559  38.830  1.00  0.00    -0.332 N 
HETATM    4  C   UNL     1      29.572  51.332  37.961  1.00  0.00     0.160 C 
HETATM    5  C   UNL     1      28.436  52.061  38.721  1.00  0.00     0.204 C 
HETATM    6  N   UNL     1      27.212  51.171  38.777  1.00  0.00    -0.069 N 
HETATM    7  H   UNL     1      26.902  50.946  37.821  1.00  0.00     0.277 HD
HETATM    8  H   UNL     1      26.442  51.729  39.173  1.00  0.00     0.277 HD
HETATM    9  C   UNL     1      27.348  49.916  39.576  1.00  0.00     0.239 C 
HETATM   10  C   UNL     1      28.626  49.897  40.416  1.00  0.00     0.029 C 
HETATM   11  C   UNL     1      29.850  49.459  39.580  1.00  0.00     0.134 C 
HETATM   12  C   UNL     1      28.750  52.454  40.168  1.00  0.00     0.035 C 
HETATM   13  C   UNL     1      28.839  51.247  41.120  1.00  0.00     0.010 C 
HETATM   14  O   UNL     1      31.857  52.360  38.904  1.00  0.00    -0.247 OA
HETATM   15  H   UNL     1      32.437  49.413  39.718  1.00  0.00     0.170 HD
ENDROOT
BRANCH   1  16
HETATM   16  C   UNL     1      33.659  50.787  40.673  1.00  0.00     0.049 A 
HETATM   17  C   UNL     1      33.512  51.214  42.036  1.00  0.00     0.021 A 
HETATM   18  C   UNL     1      34.654  51.631  42.770  1.00  0.00     0.090 A 
HETATM   19  C   UNL     1      32.276  51.266  42.731  1.00  0.00     0.017 A 
HETATM   20  N   UNL     1      34.563  52.049  44.054  1.00  0.00    -0.259 NA
HETATM   21  C   UNL     1      35.897  51.609  42.129  1.00  0.00     0.063 A 
HETATM   22  C   UNL     1      33.367  52.078  44.667  1.00  0.00     0.117 A 
HETATM   23  C   UNL     1      32.200  51.700  44.050  1.00  0.00     0.020 A 
HETATM   24 CL   UNL     1      37.340  52.102  42.958  1.00  0.00    -0.082 Cl
HETATM   25  C   UNL     1      36.038  51.207  40.803  1.00  0.00     0.028 A 
HETATM   26  C   UNL     1      34.924  50.808  40.078  1.00  0.00     0.032 A 
ENDBRANCH   1  16
TORSDOF 1
ENDMDL
MODEL 7
REMARK VINA RESULT:      -7.8     13.368     14.951
REMARK  1 active torsions:
REMARK  status: ('A' for Active; 'I' for Inactive)
REMARK    1  A    between atoms: C_11  and  N_12 
REMARK       I    between atoms: N_12  and  C_13 
REMARK       I    between atoms: C_13  and  N_14 
ROOT
HETATM    1  N   UNL     1      30.260  51.331  42.001  1.00  0.00    -0.308 N 
HETATM    2  C   UNL     1      29.577  50.161  41.778  1.00  0.00     0.323 C 
HETATM    3  N   UNL     1      28.320  50.331  41.173  1.00  0.00    -0.332 N 
HETATM    4  C   UNL     1      27.509  49.123  41.021  1.00  0.00     0.160 C 
HETATM    5  C   UNL     1      27.609  48.479  39.616  1.00  0.00     0.204 C 
HETATM    6  N   UNL     1      26.516  49.035  38.727  1.00  0.00    -0.069 N 
HETATM    7  H   UNL     1      25.595  48.829  39.138  1.00  0.00     0.277 HD
HETATM    8  H   UNL     1      26.531  48.497  37.847  1.00  0.00     0.277 HD
HETATM    9  C   UNL     1      26.613  50.489  38.396  1.00  0.00     0.239 C 
HETATM   10  C   UNL     1      27.959  51.089  38.805  1.00  0.00     0.029 C 
HETATM   11  C   UNL     1      27.985  51.461  40.305  1.00  0.00     0.134 C 
HETATM   12  C   UNL     1      28.928  48.707  38.872  1.00  0.00     0.035 C 
HETATM   13  C   UNL     1      29.118  50.161  38.403  1.00  0.00     0.010 C 
HETATM   14  O   UNL     1      29.983  49.034  42.041  1.00  0.00    -0.247 OA
HETATM   15  H   UNL     1      29.668  52.127  42.158  1.00  0.00     0.170 HD
ENDROOT
BRANCH   1  16
HETATM   16  C   UNL     1      31.630  51.492  42.347  1.00  0.00     0.049 A 
HETATM   17  C   UNL     1      32.624  51.535  41.311  1.00  0.00     0.021 A 
HETATM   18  C   UNL     1      33.995  51.672  41.655  1.00  0.00     0.090 A 
HETATM   19  C   UNL     1      32.340  51.438  39.924  1.00  0.00     0.017 A 
HETATM   20  N   UNL     1      34.967  51.709  40.714  1.00  0.00    -0.259 NA
HETATM   21  C   UNL     1      34.331  51.762  43.010  1.00  0.00     0.063 A 
HETATM   22  C   UNL     1      34.644  51.614  39.412  1.00  0.00     0.117 A 
HETATM   23  C   UNL     1      33.352  51.476  38.970  1.00  0.00     0.020 A 
HETATM   24 CL   UNL     1      35.984  51.932  43.513  1.00  0.00    -0.082 Cl
HETATM   25  C   UNL     1      33.369  51.707  44.016  1.00  0.00     0.028 A 
HETATM   26  C   UNL     1      32.029  51.564  43.685  1.00  0.00     0.032 A 
ENDBRANCH   1  16
TORSDOF 1
ENDMDL
MODEL 8
REMARK VINA RESULT:      -7.6     12.245     15.416
REMARK  1 active torsions:
REMARK  status: ('A' for Active; 'I' for Inactive)
REMARK    1  A    between atoms: C_11  and  N_12 
REMARK       I    between atoms: N_12  and  C_13 
REMARK       I    between atoms: C_13  and  N_14 
ROOT
HETATM    1  N   UNL     1      16.403  51.274  48.934  1.00  0.00    -0.308 N 
HETATM    2  C   UNL     1      17.637  51.397  49.522  1.00  0.00     0.323 C 
HETATM    3  N   UNL     1      18.264  50.173  49.813  1.00  0.00    -0.332 N 
HETATM    4  C   UNL     1      19.529  50.255  50.543  1.00  0.00     0.160 C 
HETATM    5  C   UNL     1      20.779  50.176  49.633  1.00  0.00     0.204 C 
HETATM    6  N   UNL     1      21.222  48.733  49.506  1.00  0.00    -0.069 N 
HETATM    7  H   UNL     1      21.446  48.356  50.437  1.00  0.00     0.277 HD
HETATM    8  H   UNL     1      22.122  48.730  49.003  1.00  0.00     0.277 HD
HETATM    9  C   UNL     1      20.279  47.816  48.798  1.00  0.00     0.239 C 
HETATM   10  C   UNL     1      19.152  48.573  48.092  1.00  0.00     0.029 C 
HETATM   11  C   UNL     1      18.013  48.938  49.070  1.00  0.00     0.134 C 
HETATM   12  C   UNL     1      20.596  50.698  48.204  1.00  0.00     0.035 C 
HETATM   13  C   UNL     1      19.702  49.794  47.337  1.00  0.00     0.010 C 
HETATM   14  O   UNL     1      18.207  52.454  49.776  1.00  0.00    -0.247 OA
HETATM   15  H   UNL     1      15.906  50.441  49.195  1.00  0.00     0.170 HD
ENDROOT
BRANCH   1  16
HETATM   16  C   UNL     1      15.635  52.285  48.290  1.00  0.00     0.049 A 
HETATM   17  C   UNL     1      14.870  53.208  49.082  1.00  0.00     0.021 A 
HETATM   18  C   UNL     1      14.085  54.202  48.442  1.00  0.00     0.090 A 
HETATM   19  C   UNL     1      14.824  53.200  50.500  1.00  0.00     0.017 A 
HETATM   20  N   UNL     1      13.341  55.087  49.145  1.00  0.00    -0.259 NA
HETATM   21  C   UNL     1      14.086  54.247  47.043  1.00  0.00     0.063 A 
HETATM   22  C   UNL     1      13.333  55.037  50.489  1.00  0.00     0.117 A 
HETATM   23  C   UNL     1      14.053  54.116  51.208  1.00  0.00     0.020 A 
HETATM   24 CL   UNL     1      13.153  55.433  46.185  1.00  0.00    -0.082 Cl
HETATM   25  C   UNL     1      14.817  53.345  46.275  1.00  0.00     0.028 A 
HETATM   26  C   UNL     1      15.580  52.365  46.896  1.00  0.00     0.032 A 
ENDBRANCH   1  16
TORSDOF 1
ENDMDL
MODEL 9
REMARK VINA RESULT:      -7.6     14.210     15.572
REMARK  1 active torsions:
REMARK  status: ('A' for Active; 'I' for Inactive)
REMARK    1  A    between atoms: C_11  and  N_12 
REMARK       I    between atoms: N_12  and  C_13 
REMARK       I    between atoms: C_13  and  N_14 
ROOT
HETATM    1  N   UNL     1      32.511  50.741  41.207  1.00  0.00    -0.308 N 
HETATM    2  C   UNL     1      31.853  51.422  40.213  1.00  0.00     0.323 C 
HETATM    3  N   UNL     1      30.675  50.797  39.765  1.00  0.00    -0.332 N 
HETATM    4  C   UNL     1      30.004  51.428  38.629  1.00  0.00     0.160 C 
HETATM    5  C   UNL     1      28.833  52.357  39.036  1.00  0.00     0.204 C 
HETATM    6  N   UNL     1      27.542  51.565  39.053  1.00  0.00    -0.069 N 
HETATM    7  H   UNL     1      27.364  51.171  38.119  1.00  0.00     0.277 HD
HETATM    8  H   UNL     1      26.772  52.235  39.201  1.00  0.00     0.277 HD
HETATM    9  C   UNL     1      27.443  50.491  40.086  1.00  0.00     0.239 C 
HETATM   10  C   UNL     1      28.570  50.571  41.117  1.00  0.00     0.029 C 
HETATM   11  C   UNL     1      29.865  49.906  40.597  1.00  0.00     0.134 C 
HETATM   12  C   UNL     1      28.954  53.015  40.414  1.00  0.00     0.035 C 
HETATM   13  C   UNL     1      28.790  52.021  41.578  1.00  0.00     0.010 C 
HETATM   14  O   UNL     1      32.198  52.495  39.731  1.00  0.00    -0.247 OA
HETATM   15  H   UNL     1      32.385  49.745  41.173  1.00  0.00     0.170 HD
ENDROOT
BRANCH   1  16
HETATM   16  C   UNL     1      33.562  51.212  42.042  1.00  0.00     0.049 A 
HETATM   17  C   UNL     1      34.913  51.209  41.553  1.00  0.00     0.021 A 
HETATM   18  C   UNL     1      35.967  51.656  42.392  1.00  0.00     0.090 A 
HETATM   19  C   UNL     1      35.296  50.770  40.258  1.00  0.00     0.017 A 
HETATM   20  N   UNL     1      37.256  51.663  41.978  1.00  0.00    -0.259 NA
HETATM   21  C   UNL     1      35.646  52.090  43.683  1.00  0.00     0.063 A 
HETATM   22  C   UNL     1      37.565  51.237  40.740  1.00  0.00     0.117 A 
HETATM   23  C   UNL     1      36.625  50.782  39.849  1.00  0.00     0.020 A 
HETATM   24 CL   UNL     1      36.877  52.653  44.770  1.00  0.00    -0.082 Cl
HETATM   25  C   UNL     1      34.338  52.082  44.162  1.00  0.00     0.028 A 
HETATM   26  C   UNL     1      33.306  51.637  43.349  1.00  0.00     0.032 A 
ENDBRANCH   1  16
TORSDOF 1
ENDMDL
MODEL 10
REMARK VINA RESULT:      -7.6     13.529     15.934
REMARK  1 active torsions:
REMARK  status: ('A' for Active; 'I' for Inactive)
REMARK    1  A    between atoms: C_11  and  N_12 
REMARK       I    between atoms: N_12  and  C_13 
REMARK       I    between atoms: C_13  and  N_14 
ROOT
HETATM    1  N   UNL     1      29.714  51.541  40.235  1.00  0.00    -0.308 N 
HETATM    2  C   UNL     1      31.048  51.275  40.054  1.00  0.00     0.323 C 
HETATM    3  N   UNL     1      31.894  51.900  40.987  1.00  0.00    -0.332 N 
HETATM    4  C   UNL     1      33.331  51.738  40.763  1.00  0.00     0.160 C 
HETATM    5  C   UNL     1      33.968  50.605  41.604  1.00  0.00     0.204 C 
HETATM    6  N   UNL     1      34.479  51.172  42.912  1.00  0.00    -0.069 N 
HETATM    7  H   UNL     1      35.180  51.902  42.724  1.00  0.00     0.277 HD
HETATM    8  H   UNL     1      35.005  50.424  43.389  1.00  0.00     0.277 HD
HETATM    9  C   UNL     1      33.442  51.694  43.852  1.00  0.00     0.239 C 
HETATM   10  C   UNL     1      32.024  51.310  43.425  1.00  0.00     0.029 C 
HETATM   11  C   UNL     1      31.477  52.266  42.341  1.00  0.00     0.134 C 
HETATM   12  C   UNL     1      33.037  49.445  41.971  1.00  0.00     0.035 C 
HETATM   13  C   UNL     1      31.961  49.833  43.002  1.00  0.00     0.010 C 
HETATM   14  O   UNL     1      31.523  50.548  39.188  1.00  0.00    -0.247 OA
HETATM   15  H   UNL     1      29.527  52.439  40.645  1.00  0.00     0.170 HD
ENDROOT
BRANCH   1  16
HETATM   16  C   UNL     1      28.602  50.878  39.645  1.00  0.00     0.049 A 
HETATM   17  C   UNL     1      28.215  49.579  40.121  1.00  0.00     0.021 A 
HETATM   18  C   UNL     1      27.121  48.905  39.518  1.00  0.00     0.090 A 
HETATM   19  C   UNL     1      28.866  48.884  41.174  1.00  0.00     0.017 A 
HETATM   20  N   UNL     1      26.725  47.676  39.926  1.00  0.00    -0.259 NA
HETATM   21  C   UNL     1      26.450  49.541  38.468  1.00  0.00     0.063 A 
HETATM   22  C   UNL     1      27.377  47.062  40.930  1.00  0.00     0.117 A 
HETATM   23  C   UNL     1      28.448  47.621  41.580  1.00  0.00     0.020 A 
HETATM   24 CL   UNL     1      25.101  48.784  37.679  1.00  0.00    -0.082 Cl
HETATM   25  C   UNL     1      26.832  50.794  37.997  1.00  0.00     0.028 A 
HETATM   26  C   UNL     1      27.907  51.453  38.577  1.00  0.00     0.032 A 
ENDBRANCH   1  16
TORSDOF 1
ENDMDL
