MODEL 1
REMARK VINA RESULT:      -9.3      0.000      0.000
REMARK  6 active torsions:
REMARK  status: ('A' for Active; 'I' for Inactive)
REMARK    1  A    between atoms: C_4  and  C_5 
REMARK    2  A    between atoms: C_7  and  C_8 
REMARK    3  A    between atoms: C_11  and  C_12 
REMARK       I    between atoms: C_12  and  N_13 
REMARK    4  A    between atoms: N_13  and  C_14 
REMARK    5  A    between atoms: C_14  and  C_15 
REMARK    6  A    between atoms: C_18  and  N_19 
REMARK       I    between atoms: N_19  and  C_20 
REMARK       I    between atoms: C_20  and  N_21 
ROOT
HETATM    1  C   UNL     1      25.205  45.859  50.310  1.00  0.00     0.273 C 
HETATM    2  N   UNL     1      25.413  45.857  51.670  1.00  0.00    -0.351 N 
HETATM    3  O   UNL     1      25.441  44.886  49.599  1.00  0.00    -0.266 OA
HETATM    4  H   UNL     1      25.095  46.666  52.192  1.00  0.00     0.163 HD
ENDROOT
BRANCH   1   5
HETATM    5  C   UNL     1      24.680  47.124  49.809  1.00  0.00     0.157 A 
HETATM    6  C   UNL     1      25.358  48.314  49.624  1.00  0.00     0.094 A 
HETATM    7  O   UNL     1      24.459  49.233  49.156  1.00  0.00    -0.293 OA
HETATM    8  C   UNL     1      23.272  48.559  49.076  1.00  0.00     0.180 A 
HETATM    9  N   UNL     1      23.346  47.292  49.440  1.00  0.00    -0.216 NA
BRANCH   6  10
HETATM   10  C   UNL     1      26.825  48.620  49.868  1.00  0.00     0.046 A 
HETATM   11  C   UNL     1      27.836  48.046  48.896  1.00  0.00     0.012 A 
HETATM   12  C   UNL     1      27.540  49.506  48.868  1.00  0.00     0.012 A 
ENDBRANCH   6  10
BRANCH   8  13
HETATM   13  C   UNL     1      22.117  49.328  48.621  1.00  0.00     0.017 A 
HETATM   14  C   UNL     1      21.942  50.677  48.968  1.00  0.00     0.016 A 
HETATM   15  C   UNL     1      20.823  51.391  48.530  1.00  0.00     0.001 A 
HETATM   16  C   UNL     1      19.863  50.765  47.739  1.00  0.00     0.000 A 
HETATM   17  C   UNL     1      20.020  49.427  47.384  1.00  0.00     0.001 A 
HETATM   18  C   UNL     1      21.140  48.714  47.822  1.00  0.00     0.016 A 
ENDBRANCH   8  13
ENDBRANCH   1   5
BRANCH   2  19
HETATM   19  C   UNL     1      25.879  44.670  52.340  1.00  0.00     0.161 C 
BRANCH  19  20
HETATM   20  C   UNL     1      26.964  44.937  53.349  1.00  0.00    -0.040 A 
HETATM   21  C   UNL     1      27.014  46.172  54.007  1.00  0.00     0.011 A 
HETATM   22  C   UNL     1      27.965  46.420  55.003  1.00  0.00     0.030 A 
HETATM   23  C   UNL     1      28.881  45.435  55.367  1.00  0.00     0.035 A 
HETATM   24  C   UNL     1      28.841  44.200  54.708  1.00  0.00     0.030 A 
HETATM   25  C   UNL     1      27.885  43.948  53.717  1.00  0.00     0.011 A 
BRANCH  23  26
HETATM   26  N   UNL     1      29.857  45.609  56.367  1.00  0.00    -0.314 N 
HETATM   27  C   UNL     1      29.656  45.960  57.676  1.00  0.00     0.296 C 
HETATM   28  N   UNL     1      30.835  46.100  58.349  1.00  0.00    -0.254 NA
HETATM   29  O   UNL     1      28.601  46.134  58.267  1.00  0.00    -0.254 OA
HETATM   30  H   UNL     1      31.586  46.561  57.856  1.00  0.00     0.128 HD
HETATM   31  H   UNL     1      30.695  46.441  59.294  1.00  0.00     0.128 HD
HETATM   32  H   UNL     1      30.794  45.307  56.148  1.00  0.00     0.170 HD
ENDBRANCH  23  26
ENDBRANCH  19  20
ENDBRANCH   2  19
TORSDOF 6
ENDMDL
MODEL 2
REMARK VINA RESULT:      -9.1      1.991      2.824
REMARK  6 active torsions:
REMARK  status: ('A' for Active; 'I' for Inactive)
REMARK    1  A    between atoms: C_4  and  C_5 
REMARK    2  A    between atoms: C_7  and  C_8 
REMARK    3  A    between atoms: C_11  and  C_12 
REMARK       I    between atoms: C_12  and  N_13 
REMARK    4  A    between atoms: N_13  and  C_14 
REMARK    5  A    between atoms: C_14  and  C_15 
REMARK    6  A    between atoms: C_18  and  N_19 
REMARK       I    between atoms: N_19  and  C_20 
REMARK       I    between atoms: C_20  and  N_21 
ROOT
HETATM    1  C   UNL     1      25.673  44.478  51.067  1.00  0.00     0.273 C 
HETATM    2  N   UNL     1      27.046  44.400  51.012  1.00  0.00    -0.351 N 
HETATM    3  O   UNL     1      24.961  43.506  51.302  1.00  0.00    -0.266 OA
HETATM    4  H   UNL     1      27.559  45.270  50.915  1.00  0.00     0.163 HD
ENDROOT
BRANCH   1   5
HETATM    5  C   UNL     1      25.161  45.821  50.821  1.00  0.00     0.157 A 
HETATM    6  C   UNL     1      25.392  46.968  51.557  1.00  0.00     0.094 A 
HETATM    7  O   UNL     1      24.693  47.985  50.965  1.00  0.00    -0.293 OA
HETATM    8  C   UNL     1      24.069  47.410  49.893  1.00  0.00     0.180 A 
HETATM    9  N   UNL     1      24.323  46.122  49.749  1.00  0.00    -0.216 NA
BRANCH   6  10
HETATM   10  C   UNL     1      26.250  47.145  52.797  1.00  0.00     0.046 A 
HETATM   11  C   UNL     1      25.657  47.915  53.959  1.00  0.00     0.012 A 
HETATM   12  C   UNL     1      25.816  46.438  54.065  1.00  0.00     0.012 A 
ENDBRANCH   6  10
BRANCH   8  13
HETATM   13  C   UNL     1      23.219  48.285  49.089  1.00  0.00     0.017 A 
HETATM   14  C   UNL     1      21.870  47.984  48.841  1.00  0.00     0.016 A 
HETATM   15  C   UNL     1      21.079  48.831  48.060  1.00  0.00     0.001 A 
HETATM   16  C   UNL     1      21.627  49.990  47.516  1.00  0.00     0.000 A 
HETATM   17  C   UNL     1      22.963  50.305  47.752  1.00  0.00     0.001 A 
HETATM   18  C   UNL     1      23.753  49.458  48.534  1.00  0.00     0.016 A 
ENDBRANCH   8  13
ENDBRANCH   1   5
BRANCH   2  19
HETATM   19  C   UNL     1      27.723  43.158  51.284  1.00  0.00     0.161 C 
BRANCH  19  20
HETATM   20  C   UNL     1      28.611  43.212  52.498  1.00  0.00    -0.040 A 
HETATM   21  C   UNL     1      28.288  44.067  53.559  1.00  0.00     0.011 A 
HETATM   22  C   UNL     1      29.053  44.084  54.730  1.00  0.00     0.030 A 
HETATM   23  C   UNL     1      30.152  43.238  54.869  1.00  0.00     0.035 A 
HETATM   24  C   UNL     1      30.485  42.385  53.809  1.00  0.00     0.030 A 
HETATM   25  C   UNL     1      29.716  42.363  52.640  1.00  0.00     0.011 A 
BRANCH  23  26
HETATM   26  N   UNL     1      30.959  43.190  56.022  1.00  0.00    -0.314 N 
HETATM   27  C   UNL     1      31.158  44.185  56.942  1.00  0.00     0.296 C 
HETATM   28  N   UNL     1      32.055  43.815  57.902  1.00  0.00    -0.254 NA
HETATM   29  O   UNL     1      30.638  45.290  56.997  1.00  0.00    -0.254 OA
HETATM   30  H   UNL     1      32.869  43.306  57.589  1.00  0.00     0.128 HD
HETATM   31  H   UNL     1      32.268  44.577  58.536  1.00  0.00     0.128 HD
HETATM   32  H   UNL     1      31.323  42.288  56.288  1.00  0.00     0.170 HD
ENDBRANCH  23  26
ENDBRANCH  19  20
ENDBRANCH   2  19
TORSDOF 6
ENDMDL
MODEL 3
REMARK VINA RESULT:      -9.0      2.047      3.302
REMARK  6 active torsions:
REMARK  status: ('A' for Active; 'I' for Inactive)
REMARK    1  A    between atoms: C_4  and  C_5 
REMARK    2  A    between atoms: C_7  and  C_8 
REMARK    3  A    between atoms: C_11  and  C_12 
REMARK       I    between atoms: C_12  and  N_13 
REMARK    4  A    between atoms: N_13  and  C_14 
REMARK    5  A    between atoms: C_14  and  C_15 
REMARK    6  A    between atoms: C_18  and  N_19 
REMARK       I    between atoms: N_19  and  C_20 
REMARK       I    between atoms: C_20  and  N_21 
ROOT
HETATM    1  C   UNL     1      26.813  44.908  50.362  1.00  0.00     0.273 C 
HETATM    2  N   UNL     1      26.785  44.265  51.579  1.00  0.00    -0.351 N 
HETATM    3  O   UNL     1      27.758  44.816  49.584  1.00  0.00    -0.266 OA
HETATM    4  H   UNL     1      25.923  44.312  52.112  1.00  0.00     0.163 HD
ENDROOT
BRANCH   1   5
HETATM    5  C   UNL     1      25.616  45.697  50.099  1.00  0.00     0.157 A 
HETATM    6  C   UNL     1      24.298  45.281  50.128  1.00  0.00     0.094 A 
HETATM    7  O   UNL     1      23.519  46.356  49.797  1.00  0.00    -0.293 OA
HETATM    8  C   UNL     1      24.400  47.381  49.583  1.00  0.00     0.180 A 
HETATM    9  N   UNL     1      25.665  47.049  49.763  1.00  0.00    -0.216 NA
BRANCH   6  10
HETATM   10  C   UNL     1      23.742  43.908  50.459  1.00  0.00     0.046 A 
HETATM   11  C   UNL     1      22.531  43.433  49.683  1.00  0.00     0.012 A 
HETATM   12  C   UNL     1      23.862  42.824  49.408  1.00  0.00     0.012 A 
ENDBRANCH   6  10
BRANCH   8  13
HETATM   13  C   UNL     1      23.822  48.661  49.183  1.00  0.00     0.017 A 
HETATM   14  C   UNL     1      22.497  49.007  49.494  1.00  0.00     0.016 A 
HETATM   15  C   UNL     1      21.963  50.233  49.092  1.00  0.00     0.001 A 
HETATM   16  C   UNL     1      22.746  51.131  48.371  1.00  0.00     0.000 A 
HETATM   17  C   UNL     1      24.063  50.806  48.052  1.00  0.00     0.001 A 
HETATM   18  C   UNL     1      24.597  49.579  48.457  1.00  0.00     0.016 A 
ENDBRANCH   8  13
ENDBRANCH   1   5
BRANCH   2  19
HETATM   19  C   UNL     1      27.863  43.398  51.977  1.00  0.00     0.161 C 
BRANCH  19  20
HETATM   20  C   UNL     1      28.496  43.789  53.286  1.00  0.00    -0.040 A 
HETATM   21  C   UNL     1      29.673  43.157  53.706  1.00  0.00     0.011 A 
HETATM   22  C   UNL     1      30.324  43.552  54.880  1.00  0.00     0.030 A 
HETATM   23  C   UNL     1      29.815  44.593  55.655  1.00  0.00     0.035 A 
HETATM   24  C   UNL     1      28.634  45.224  55.244  1.00  0.00     0.030 A 
HETATM   25  C   UNL     1      27.987  44.835  54.066  1.00  0.00     0.011 A 
BRANCH  23  26
HETATM   26  N   UNL     1      30.421  45.052  56.840  1.00  0.00    -0.314 N 
HETATM   27  C   UNL     1      31.209  44.338  57.704  1.00  0.00     0.296 C 
HETATM   28  N   UNL     1      31.576  45.083  58.787  1.00  0.00    -0.254 NA
HETATM   29  O   UNL     1      31.603  43.186  57.604  1.00  0.00    -0.254 OA
HETATM   30  H   UNL     1      30.865  45.676  59.191  1.00  0.00     0.128 HD
HETATM   31  H   UNL     1      32.089  44.535  59.469  1.00  0.00     0.128 HD
HETATM   32  H   UNL     1      30.400  46.046  57.009  1.00  0.00     0.170 HD
ENDBRANCH  23  26
ENDBRANCH  19  20
ENDBRANCH   2  19
TORSDOF 6
ENDMDL
MODEL 4
REMARK VINA RESULT:      -8.9      3.713     10.168
REMARK  6 active torsions:
REMARK  status: ('A' for Active; 'I' for Inactive)
REMARK    1  A    between atoms: C_4  and  C_5 
REMARK    2  A    between atoms: C_7  and  C_8 
REMARK    3  A    between atoms: C_11  and  C_12 
REMARK       I    between atoms: C_12  and  N_13 
REMARK    4  A    between atoms: N_13  and  C_14 
REMARK    5  A    between atoms: C_14  and  C_15 
REMARK    6  A    between atoms: C_18  and  N_19 
REMARK       I    between atoms: N_19  and  C_20 
REMARK       I    between atoms: C_20  and  N_21 
ROOT
HETATM    1  C   UNL     1      23.447  49.139  48.802  1.00  0.00     0.273 C 
HETATM    2  N   UNL     1      22.515  49.868  49.504  1.00  0.00    -0.351 N 
HETATM    3  O   UNL     1      23.830  49.455  47.679  1.00  0.00    -0.266 OA
HETATM    4  H   UNL     1      22.333  49.593  50.464  1.00  0.00     0.163 HD
ENDROOT
BRANCH   1   5
HETATM    5  C   UNL     1      23.925  47.966  49.524  1.00  0.00     0.157 A 
HETATM    6  C   UNL     1      23.575  46.643  49.328  1.00  0.00     0.094 A 
HETATM    7  O   UNL     1      24.256  45.895  50.249  1.00  0.00    -0.293 OA
HETATM    8  C   UNL     1      24.993  46.798  50.964  1.00  0.00     0.180 A 
HETATM    9  N   UNL     1      24.846  48.049  50.567  1.00  0.00    -0.216 NA
BRANCH   6  10
HETATM   10  C   UNL     1      22.623  46.055  48.302  1.00  0.00     0.046 A 
HETATM   11  C   UNL     1      21.771  44.876  48.727  1.00  0.00     0.012 A 
HETATM   12  C   UNL     1      21.136  46.211  48.545  1.00  0.00     0.012 A 
ENDBRANCH   6  10
BRANCH   8  13
HETATM   13  C   UNL     1      25.808  46.258  52.049  1.00  0.00     0.017 A 
HETATM   14  C   UNL     1      26.500  45.042  51.922  1.00  0.00     0.016 A 
HETATM   15  C   UNL     1      27.265  44.539  52.977  1.00  0.00     0.001 A 
HETATM   16  C   UNL     1      27.348  45.244  54.175  1.00  0.00     0.000 A 
HETATM   17  C   UNL     1      26.669  46.452  54.320  1.00  0.00     0.001 A 
HETATM   18  C   UNL     1      25.905  46.955  53.263  1.00  0.00     0.016 A 
ENDBRANCH   8  13
ENDBRANCH   1   5
BRANCH   2  19
HETATM   19  C   UNL     1      21.976  51.088  48.962  1.00  0.00     0.161 C 
BRANCH  19  20
HETATM   20  C   UNL     1      20.483  51.209  49.121  1.00  0.00    -0.040 A 
HETATM   21  C   UNL     1      19.813  50.387  50.035  1.00  0.00     0.011 A 
HETATM   22  C   UNL     1      18.439  50.528  50.258  1.00  0.00     0.030 A 
HETATM   23  C   UNL     1      17.708  51.500  49.577  1.00  0.00     0.035 A 
HETATM   24  C   UNL     1      18.371  52.320  48.657  1.00  0.00     0.030 A 
HETATM   25  C   UNL     1      19.747  52.185  48.438  1.00  0.00     0.011 A 
BRANCH  23  26
HETATM   26  N   UNL     1      16.327  51.707  49.759  1.00  0.00    -0.314 N 
HETATM   27  C   UNL     1      15.700  52.868  50.128  1.00  0.00     0.296 C 
HETATM   28  N   UNL     1      14.354  52.692  50.271  1.00  0.00    -0.254 NA
HETATM   29  O   UNL     1      16.187  53.973  50.315  1.00  0.00    -0.254 OA
HETATM   30  H   UNL     1      14.053  51.840  50.723  1.00  0.00     0.128 HD
HETATM   31  H   UNL     1      13.898  53.526  50.624  1.00  0.00     0.128 HD
HETATM   32  H   UNL     1      15.710  50.972  49.450  1.00  0.00     0.170 HD
ENDBRANCH  23  26
ENDBRANCH  19  20
ENDBRANCH   2  19
TORSDOF 6
ENDMDL
MODEL 5
REMARK VINA RESULT:      -8.8      2.952      9.445
REMARK  6 active torsions:
REMARK  status: ('A' for Active; 'I' for Inactive)
REMARK    1  A    between atoms: C_4  and  C_5 
REMARK    2  A    between atoms: C_7  and  C_8 
REMARK    3  A    between atoms: C_11  and  C_12 
REMARK       I    between atoms: C_12  and  N_13 
REMARK    4  A    between atoms: N_13  and  C_14 
REMARK    5  A    between atoms: C_14  and  C_15 
REMARK    6  A    between atoms: C_18  and  N_19 
REMARK       I    between atoms: N_19  and  C_20 
REMARK       I    between atoms: C_20  and  N_21 
ROOT
HETATM    1  C   UNL     1      25.201  43.189  51.013  1.00  0.00     0.273 C 
HETATM    2  N   UNL     1      25.452  43.660  49.744  1.00  0.00    -0.351 N 
HETATM    3  O   UNL     1      24.066  42.979  51.431  1.00  0.00    -0.266 OA
HETATM    4  H   UNL     1      26.422  43.707  49.448  1.00  0.00     0.163 HD
ENDROOT
BRANCH   1   5
HETATM    5  C   UNL     1      26.410  42.967  51.796  1.00  0.00     0.157 A 
HETATM    6  C   UNL     1      27.253  41.871  51.770  1.00  0.00     0.094 A 
HETATM    7  O   UNL     1      28.245  42.091  52.686  1.00  0.00    -0.293 OA
HETATM    8  C   UNL     1      27.962  43.315  53.228  1.00  0.00     0.180 A 
HETATM    9  N   UNL     1      26.886  43.891  52.725  1.00  0.00    -0.216 NA
BRANCH   6  10
HETATM   10  C   UNL     1      27.160  40.622  50.913  1.00  0.00     0.046 A 
HETATM   11  C   UNL     1      27.619  40.721  49.472  1.00  0.00     0.012 A 
HETATM   12  C   UNL     1      28.454  39.978  50.457  1.00  0.00     0.012 A 
ENDBRANCH   6  10
BRANCH   8  13
HETATM   13  C   UNL     1      28.868  43.789  54.271  1.00  0.00     0.017 A 
HETATM   14  C   UNL     1      28.706  45.045  54.878  1.00  0.00     0.016 A 
HETATM   15  C   UNL     1      29.591  45.482  55.868  1.00  0.00     0.001 A 
HETATM   16  C   UNL     1      30.650  44.669  56.263  1.00  0.00     0.000 A 
HETATM   17  C   UNL     1      30.826  43.419  55.672  1.00  0.00     0.001 A 
HETATM   18  C   UNL     1      29.940  42.983  54.684  1.00  0.00     0.016 A 
ENDBRANCH   8  13
ENDBRANCH   1   5
BRANCH   2  19
HETATM   19  C   UNL     1      24.375  43.884  48.816  1.00  0.00     0.161 C 
BRANCH  19  20
HETATM   20  C   UNL     1      23.772  45.260  48.916  1.00  0.00    -0.040 A 
HETATM   21  C   UNL     1      24.470  46.279  49.576  1.00  0.00     0.011 A 
HETATM   22  C   UNL     1      23.969  47.585  49.620  1.00  0.00     0.030 A 
HETATM   23  C   UNL     1      22.763  47.901  48.997  1.00  0.00     0.035 A 
HETATM   24  C   UNL     1      22.056  46.885  48.342  1.00  0.00     0.030 A 
HETATM   25  C   UNL     1      22.560  45.580  48.291  1.00  0.00     0.011 A 
BRANCH  23  26
HETATM   26  N   UNL     1      22.204  49.193  48.989  1.00  0.00    -0.314 N 
HETATM   27  C   UNL     1      22.526  50.236  48.161  1.00  0.00     0.296 C 
HETATM   28  N   UNL     1      21.828  51.366  48.476  1.00  0.00    -0.254 NA
HETATM   29  O   UNL     1      23.310  50.253  47.224  1.00  0.00    -0.254 OA
HETATM   30  H   UNL     1      21.718  51.572  49.458  1.00  0.00     0.128 HD
HETATM   31  H   UNL     1      22.124  52.161  47.921  1.00  0.00     0.128 HD
HETATM   32  H   UNL     1      21.379  49.337  49.551  1.00  0.00     0.170 HD
ENDBRANCH  23  26
ENDBRANCH  19  20
ENDBRANCH   2  19
TORSDOF 6
ENDMDL
MODEL 6
REMARK VINA RESULT:      -8.8      3.177      9.538
REMARK  6 active torsions:
REMARK  status: ('A' for Active; 'I' for Inactive)
REMARK    1  A    between atoms: C_4  and  C_5 
REMARK    2  A    between atoms: C_7  and  C_8 
REMARK    3  A    between atoms: C_11  and  C_12 
REMARK       I    between atoms: C_12  and  N_13 
REMARK    4  A    between atoms: N_13  and  C_14 
REMARK    5  A    between atoms: C_14  and  C_15 
REMARK    6  A    between atoms: C_18  and  N_19 
REMARK       I    between atoms: N_19  and  C_20 
REMARK       I    between atoms: C_20  and  N_21 
ROOT
HETATM    1  C   UNL     1      23.679  47.472  49.347  1.00  0.00     0.273 C 
HETATM    2  N   UNL     1      24.053  48.787  49.193  1.00  0.00    -0.351 N 
HETATM    3  O   UNL     1      22.791  46.951  48.679  1.00  0.00    -0.266 OA
HETATM    4  H   UNL     1      24.864  49.105  49.713  1.00  0.00     0.163 HD
ENDROOT
BRANCH   1   5
HETATM    5  C   UNL     1      24.441  46.772  50.374  1.00  0.00     0.157 A 
HETATM    6  C   UNL     1      24.624  45.409  50.519  1.00  0.00     0.094 A 
HETATM    7  O   UNL     1      25.393  45.213  51.634  1.00  0.00    -0.293 OA
HETATM    8  C   UNL     1      25.646  46.467  52.116  1.00  0.00     0.180 A 
HETATM    9  N   UNL     1      25.114  47.438  51.397  1.00  0.00    -0.216 NA
BRANCH   6  10
HETATM   10  C   UNL     1      24.104  44.282  49.645  1.00  0.00     0.046 A 
HETATM   11  C   UNL     1      24.047  42.893  50.246  1.00  0.00     0.012 A 
HETATM   12  C   UNL     1      22.782  43.646  50.023  1.00  0.00     0.012 A 
ENDBRANCH   6  10
BRANCH   8  13
HETATM   13  C   UNL     1      26.439  46.545  53.340  1.00  0.00     0.017 A 
HETATM   14  C   UNL     1      27.303  45.509  53.730  1.00  0.00     0.016 A 
HETATM   15  C   UNL     1      28.045  45.601  54.911  1.00  0.00     0.001 A 
HETATM   16  C   UNL     1      27.932  46.729  55.718  1.00  0.00     0.000 A 
HETATM   17  C   UNL     1      27.080  47.767  55.348  1.00  0.00     0.001 A 
HETATM   18  C   UNL     1      26.340  47.676  54.166  1.00  0.00     0.016 A 
ENDBRANCH   8  13
ENDBRANCH   1   5
BRANCH   2  19
HETATM   19  C   UNL     1      23.440  49.612  48.185  1.00  0.00     0.161 C 
BRANCH  19  20
HETATM   20  C   UNL     1      22.150  50.246  48.630  1.00  0.00    -0.040 A 
HETATM   21  C   UNL     1      21.937  50.509  49.989  1.00  0.00     0.011 A 
HETATM   22  C   UNL     1      20.779  51.164  50.424  1.00  0.00     0.030 A 
HETATM   23  C   UNL     1      19.814  51.578  49.507  1.00  0.00     0.035 A 
HETATM   24  C   UNL     1      20.018  51.312  48.148  1.00  0.00     0.030 A 
HETATM   25  C   UNL     1      21.179  50.663  47.711  1.00  0.00     0.011 A 
BRANCH  23  26
HETATM   26  N   UNL     1      18.633  52.253  49.869  1.00  0.00    -0.314 N 
HETATM   27  C   UNL     1      17.346  51.794  49.769  1.00  0.00     0.296 C 
HETATM   28  N   UNL     1      16.440  52.740  50.154  1.00  0.00    -0.254 NA
HETATM   29  O   UNL     1      16.953  50.694  49.408  1.00  0.00    -0.254 OA
HETATM   30  H   UNL     1      16.618  53.687  49.853  1.00  0.00     0.128 HD
HETATM   31  H   UNL     1      15.485  52.434  50.002  1.00  0.00     0.128 HD
HETATM   32  H   UNL     1      18.738  53.109  50.392  1.00  0.00     0.170 HD
ENDBRANCH  23  26
ENDBRANCH  19  20
ENDBRANCH   2  19
TORSDOF 6
ENDMDL
MODEL 7
REMARK VINA RESULT:      -8.7      3.460      9.721
REMARK  6 active torsions:
REMARK  status: ('A' for Active; 'I' for Inactive)
REMARK    1  A    between atoms: C_4  and  C_5 
REMARK    2  A    between atoms: C_7  and  C_8 
REMARK    3  A    between atoms: C_11  and  C_12 
REMARK       I    between atoms: C_12  and  N_13 
REMARK    4  A    between atoms: N_13  and  C_14 
REMARK    5  A    between atoms: C_14  and  C_15 
REMARK    6  A    between atoms: C_18  and  N_19 
REMARK       I    between atoms: N_19  and  C_20 
REMARK       I    between atoms: C_20  and  N_21 
ROOT
HETATM    1  C   UNL     1      27.242  43.477  51.460  1.00  0.00     0.273 C 
HETATM    2  N   UNL     1      26.377  42.414  51.589  1.00  0.00    -0.351 N 
HETATM    3  O   UNL     1      27.628  43.891  50.371  1.00  0.00    -0.266 OA
HETATM    4  H   UNL     1      26.030  42.205  52.519  1.00  0.00     0.163 HD
ENDROOT
BRANCH   1   5
HETATM    5  C   UNL     1      27.643  44.052  52.738  1.00  0.00     0.157 A 
HETATM    6  C   UNL     1      27.055  45.099  53.424  1.00  0.00     0.094 A 
HETATM    7  O   UNL     1      27.782  45.305  54.564  1.00  0.00    -0.293 OA
HETATM    8  C   UNL     1      28.780  44.371  54.523  1.00  0.00     0.180 A 
HETATM    9  N   UNL     1      28.740  43.586  53.462  1.00  0.00    -0.216 NA
BRANCH   6  10
HETATM   10  C   UNL     1      25.830  45.912  53.046  1.00  0.00     0.046 A 
HETATM   11  C   UNL     1      25.772  47.354  53.508  1.00  0.00     0.012 A 
HETATM   12  C   UNL     1      26.013  47.056  52.069  1.00  0.00     0.012 A 
ENDBRANCH   6  10
BRANCH   8  13
HETATM   13  C   UNL     1      29.733  44.390  55.629  1.00  0.00     0.017 A 
HETATM   14  C   UNL     1      30.715  43.397  55.778  1.00  0.00     0.016 A 
HETATM   15  C   UNL     1      31.610  43.428  56.851  1.00  0.00     0.001 A 
HETATM   16  C   UNL     1      31.535  44.454  57.790  1.00  0.00     0.000 A 
HETATM   17  C   UNL     1      30.568  45.448  57.659  1.00  0.00     0.001 A 
HETATM   18  C   UNL     1      29.674  45.416  56.585  1.00  0.00     0.016 A 
ENDBRANCH   8  13
ENDBRANCH   1   5
BRANCH   2  19
HETATM   19  C   UNL     1      25.838  41.760  50.425  1.00  0.00     0.161 C 
BRANCH  19  20
HETATM   20  C   UNL     1      24.714  42.523  49.775  1.00  0.00    -0.040 A 
HETATM   21  C   UNL     1      24.544  42.460  48.386  1.00  0.00     0.011 A 
HETATM   22  C   UNL     1      23.465  43.098  47.763  1.00  0.00     0.030 A 
HETATM   23  C   UNL     1      22.530  43.805  48.517  1.00  0.00     0.035 A 
HETATM   24  C   UNL     1      22.699  43.877  49.905  1.00  0.00     0.030 A 
HETATM   25  C   UNL     1      23.773  43.233  50.530  1.00  0.00     0.011 A 
BRANCH  23  26
HETATM   26  N   UNL     1      21.414  44.460  47.961  1.00  0.00    -0.314 N 
HETATM   27  C   UNL     1      21.394  45.664  47.308  1.00  0.00     0.296 C 
HETATM   28  N   UNL     1      20.127  46.028  46.956  1.00  0.00    -0.254 NA
HETATM   29  O   UNL     1      22.333  46.390  47.016  1.00  0.00    -0.254 OA
HETATM   30  H   UNL     1      19.401  45.859  47.638  1.00  0.00     0.128 HD
HETATM   31  H   UNL     1      20.098  46.955  46.548  1.00  0.00     0.128 HD
HETATM   32  H   UNL     1      20.557  43.932  47.903  1.00  0.00     0.170 HD
ENDBRANCH  23  26
ENDBRANCH  19  20
ENDBRANCH   2  19
TORSDOF 6
ENDMDL
MODEL 8
REMARK VINA RESULT:      -8.6      4.664      9.809
REMARK  6 active torsions:
REMARK  status: ('A' for Active; 'I' for Inactive)
REMARK    1  A    between atoms: C_4  and  C_5 
REMARK    2  A    between atoms: C_7  and  C_8 
REMARK    3  A    between atoms: C_11  and  C_12 
REMARK       I    between atoms: C_12  and  N_13 
REMARK    4  A    between atoms: N_13  and  C_14 
REMARK    5  A    between atoms: C_14  and  C_15 
REMARK    6  A    between atoms: C_18  and  N_19 
REMARK       I    between atoms: N_19  and  C_20 
REMARK       I    between atoms: C_20  and  N_21 
ROOT
HETATM    1  C   UNL     1      27.057  44.009  51.809  1.00  0.00     0.273 C 
HETATM    2  N   UNL     1      26.059  43.063  51.868  1.00  0.00    -0.351 N 
HETATM    3  O   UNL     1      27.467  44.477  50.750  1.00  0.00    -0.266 OA
HETATM    4  H   UNL     1      25.712  42.809  52.787  1.00  0.00     0.163 HD
ENDROOT
BRANCH   1   5
HETATM    5  C   UNL     1      27.568  44.392  53.120  1.00  0.00     0.157 A 
HETATM    6  C   UNL     1      27.051  45.330  53.994  1.00  0.00     0.094 A 
HETATM    7  O   UNL     1      27.869  45.367  55.090  1.00  0.00    -0.293 OA
HETATM    8  C   UNL     1      28.848  44.447  54.833  1.00  0.00     0.180 A 
HETATM    9  N   UNL     1      28.712  43.824  53.677  1.00  0.00    -0.216 NA
BRANCH   6  10
HETATM   10  C   UNL     1      25.811  46.192  53.839  1.00  0.00     0.046 A 
HETATM   11  C   UNL     1      25.917  47.654  54.223  1.00  0.00     0.012 A 
HETATM   12  C   UNL     1      25.833  47.279  52.784  1.00  0.00     0.012 A 
ENDBRANCH   6  10
BRANCH   8  13
HETATM   13  C   UNL     1      29.887  44.303  55.850  1.00  0.00     0.017 A 
HETATM   14  C   UNL     1      30.003  45.200  56.924  1.00  0.00     0.016 A 
HETATM   15  C   UNL     1      31.011  45.048  57.879  1.00  0.00     0.001 A 
HETATM   16  C   UNL     1      31.919  43.997  57.773  1.00  0.00     0.000 A 
HETATM   17  C   UNL     1      31.820  43.097  56.714  1.00  0.00     0.001 A 
HETATM   18  C   UNL     1      30.810  43.249  55.760  1.00  0.00     0.016 A 
ENDBRANCH   8  13
ENDBRANCH   1   5
BRANCH   2  19
HETATM   19  C   UNL     1      25.405  42.610  50.669  1.00  0.00     0.161 C 
BRANCH  19  20
HETATM   20  C   UNL     1      26.157  41.523  49.948  1.00  0.00    -0.040 A 
HETATM   21  C   UNL     1      26.811  41.811  48.744  1.00  0.00     0.011 A 
HETATM   22  C   UNL     1      27.579  40.841  48.090  1.00  0.00     0.030 A 
HETATM   23  C   UNL     1      27.716  39.564  48.633  1.00  0.00     0.035 A 
HETATM   24  C   UNL     1      27.059  39.268  49.833  1.00  0.00     0.030 A 
HETATM   25  C   UNL     1      26.296  40.240  50.491  1.00  0.00     0.011 A 
BRANCH  23  26
HETATM   26  N   UNL     1      28.482  38.543  48.039  1.00  0.00    -0.314 N 
HETATM   27  C   UNL     1      28.142  37.762  46.966  1.00  0.00     0.296 C 
HETATM   28  N   UNL     1      29.099  36.826  46.697  1.00  0.00    -0.254 NA
HETATM   29  O   UNL     1      27.144  37.823  46.263  1.00  0.00    -0.254 OA
HETATM   30  H   UNL     1      29.516  36.364  47.492  1.00  0.00     0.128 HD
HETATM   31  H   UNL     1      28.813  36.193  45.958  1.00  0.00     0.128 HD
HETATM   32  H   UNL     1      29.443  38.463  48.333  1.00  0.00     0.170 HD
ENDBRANCH  23  26
ENDBRANCH  19  20
ENDBRANCH   2  19
TORSDOF 6
ENDMDL
MODEL 9
REMARK VINA RESULT:      -8.5      3.989      5.396
REMARK  6 active torsions:
REMARK  status: ('A' for Active; 'I' for Inactive)
REMARK    1  A    between atoms: C_4  and  C_5 
REMARK    2  A    between atoms: C_7  and  C_8 
REMARK    3  A    between atoms: C_11  and  C_12 
REMARK       I    between atoms: C_12  and  N_13 
REMARK    4  A    between atoms: N_13  and  C_14 
REMARK    5  A    between atoms: C_14  and  C_15 
REMARK    6  A    between atoms: C_18  and  N_19 
REMARK       I    between atoms: N_19  and  C_20 
REMARK       I    between atoms: C_20  and  N_21 
ROOT
HETATM    1  C   UNL     1      24.218  48.143  49.708  1.00  0.00     0.273 C 
HETATM    2  N   UNL     1      24.275  47.273  50.774  1.00  0.00    -0.351 N 
HETATM    3  O   UNL     1      25.222  48.582  49.155  1.00  0.00    -0.266 OA
HETATM    4  H   UNL     1      23.399  46.880  51.102  1.00  0.00     0.163 HD
ENDROOT
BRANCH   1   5
HETATM    5  C   UNL     1      22.856  48.480  49.311  1.00  0.00     0.157 A 
HETATM    6  C   UNL     1      21.994  47.747  48.517  1.00  0.00     0.094 A 
HETATM    7  O   UNL     1      20.834  48.462  48.399  1.00  0.00    -0.293 OA
HETATM    8  C   UNL     1      21.042  49.600  49.129  1.00  0.00     0.180 A 
HETATM    9  N   UNL     1      22.227  49.659  49.708  1.00  0.00    -0.216 NA
BRANCH   6  10
HETATM   10  C   UNL     1      22.220  46.394  47.867  1.00  0.00     0.046 A 
HETATM   11  C   UNL     1      21.675  45.171  48.576  1.00  0.00     0.012 A 
HETATM   12  C   UNL     1      21.011  45.654  47.333  1.00  0.00     0.012 A 
ENDBRANCH   6  10
BRANCH   8  13
HETATM   13  C   UNL     1      19.949  50.568  49.149  1.00  0.00     0.017 A 
HETATM   14  C   UNL     1      18.796  50.369  49.925  1.00  0.00     0.016 A 
HETATM   15  C   UNL     1      17.758  51.304  49.921  1.00  0.00     0.001 A 
HETATM   16  C   UNL     1      17.858  52.452  49.138  1.00  0.00     0.000 A 
HETATM   17  C   UNL     1      18.994  52.667  48.361  1.00  0.00     0.001 A 
HETATM   18  C   UNL     1      20.032  51.732  48.368  1.00  0.00     0.016 A 
ENDBRANCH   8  13
ENDBRANCH   1   5
BRANCH   2  19
HETATM   19  C   UNL     1      25.540  46.792  51.263  1.00  0.00     0.161 C 
BRANCH  19  20
HETATM   20  C   UNL     1      25.686  45.296  51.181  1.00  0.00    -0.040 A 
HETATM   21  C   UNL     1      26.873  44.689  51.608  1.00  0.00     0.011 A 
HETATM   22  C   UNL     1      27.009  43.296  51.613  1.00  0.00     0.030 A 
HETATM   23  C   UNL     1      25.957  42.481  51.199  1.00  0.00     0.035 A 
HETATM   24  C   UNL     1      24.770  43.082  50.764  1.00  0.00     0.030 A 
HETATM   25  C   UNL     1      24.630  44.475  50.765  1.00  0.00     0.011 A 
BRANCH  23  26
HETATM   26  N   UNL     1      26.017  41.074  51.189  1.00  0.00    -0.314 N 
HETATM   27  C   UNL     1      26.319  40.260  50.130  1.00  0.00     0.296 C 
HETATM   28  N   UNL     1      26.222  38.940  50.462  1.00  0.00    -0.254 NA
HETATM   29  O   UNL     1      26.658  40.573  48.998  1.00  0.00    -0.254 OA
HETATM   30  H   UNL     1      25.438  38.675  51.040  1.00  0.00     0.128 HD
HETATM   31  H   UNL     1      26.363  38.335  49.660  1.00  0.00     0.128 HD
HETATM   32  H   UNL     1      25.976  40.609  52.083  1.00  0.00     0.170 HD
ENDBRANCH  23  26
ENDBRANCH  19  20
ENDBRANCH   2  19
TORSDOF 6
ENDMDL
MODEL 10
REMARK VINA RESULT:      -8.3      3.423      9.278
REMARK  6 active torsions:
REMARK  status: ('A' for Active; 'I' for Inactive)
REMARK    1  A    between atoms: C_4  and  C_5 
REMARK    2  A    between atoms: C_7  and  C_8 
REMARK    3  A    between atoms: C_11  and  C_12 
REMARK       I    between atoms: C_12  and  N_13 
REMARK    4  A    between atoms: N_13  and  C_14 
REMARK    5  A    between atoms: C_14  and  C_15 
REMARK    6  A    between atoms: C_18  and  N_19 
REMARK       I    between atoms: N_19  and  C_20 
REMARK       I    between atoms: C_20  and  N_21 
ROOT
HETATM    1  C   UNL     1      26.470  47.534  49.633  1.00  0.00     0.273 C 
HETATM    2  N   UNL     1      25.182  47.951  49.383  1.00  0.00    -0.351 N 
HETATM    3  O   UNL     1      27.454  48.219  49.371  1.00  0.00    -0.266 OA
HETATM    4  H   UNL     1      24.427  47.366  49.726  1.00  0.00     0.163 HD
ENDROOT
BRANCH   1   5
HETATM    5  C   UNL     1      26.539  46.208  50.236  1.00  0.00     0.157 A 
HETATM    6  C   UNL     1      26.199  45.839  51.525  1.00  0.00     0.094 A 
HETATM    7  O   UNL     1      26.447  44.499  51.649  1.00  0.00    -0.293 OA
HETATM    8  C   UNL     1      26.924  44.112  50.427  1.00  0.00     0.180 A 
HETATM    9  N   UNL     1      26.989  45.087  49.540  1.00  0.00    -0.216 NA
BRANCH   6  10
HETATM   10  C   UNL     1      25.647  46.701  52.645  1.00  0.00     0.046 A 
HETATM   11  C   UNL     1      25.793  46.191  54.064  1.00  0.00     0.012 A 
HETATM   12  C   UNL     1      26.635  47.331  53.607  1.00  0.00     0.012 A 
ENDBRANCH   6  10
BRANCH   8  13
HETATM   13  C   UNL     1      27.299  42.706  50.292  1.00  0.00     0.017 A 
HETATM   14  C   UNL     1      27.957  42.012  51.320  1.00  0.00     0.016 A 
HETATM   15  C   UNL     1      28.315  40.670  51.165  1.00  0.00     0.001 A 
HETATM   16  C   UNL     1      28.020  40.004  49.978  1.00  0.00     0.000 A 
HETATM   17  C   UNL     1      27.368  40.676  48.946  1.00  0.00     0.001 A 
HETATM   18  C   UNL     1      27.009  42.018  49.104  1.00  0.00     0.016 A 
ENDBRANCH   8  13
ENDBRANCH   1   5
BRANCH   2  19
HETATM   19  C   UNL     1      24.927  49.259  48.839  1.00  0.00     0.161 C 
BRANCH  19  20
HETATM   20  C   UNL     1      23.468  49.630  48.825  1.00  0.00    -0.040 A 
HETATM   21  C   UNL     1      22.500  48.654  49.090  1.00  0.00     0.011 A 
HETATM   22  C   UNL     1      21.142  48.985  49.158  1.00  0.00     0.030 A 
HETATM   23  C   UNL     1      20.724  50.301  48.969  1.00  0.00     0.035 A 
HETATM   24  C   UNL     1      21.687  51.281  48.697  1.00  0.00     0.030 A 
HETATM   25  C   UNL     1      23.046  50.952  48.637  1.00  0.00     0.011 A 
BRANCH  23  26
HETATM   26  N   UNL     1      19.379  50.710  49.035  1.00  0.00    -0.314 N 
HETATM   27  C   UNL     1      18.460  50.403  50.004  1.00  0.00     0.296 C 
HETATM   28  N   UNL     1      17.229  50.918  49.716  1.00  0.00    -0.254 NA
HETATM   29  O   UNL     1      18.622  49.770  51.037  1.00  0.00    -0.254 OA
HETATM   30  H   UNL     1      16.926  50.856  48.754  1.00  0.00     0.128 HD
HETATM   31  H   UNL     1      16.528  50.622  50.386  1.00  0.00     0.128 HD
HETATM   32  H   UNL     1      19.085  51.421  48.383  1.00  0.00     0.170 HD
ENDBRANCH  23  26
ENDBRANCH  19  20
ENDBRANCH   2  19
TORSDOF 6
ENDMDL
