MODEL 1
REMARK VINA RESULT:      -9.1      0.000      0.000
REMARK  3 active torsions:
REMARK  status: ('A' for Active; 'I' for Inactive)
REMARK    1  A    between atoms: C_2  and  C_3 
REMARK    2  A    between atoms: C_6  and  N_7 
REMARK    3  A    between atoms: C_14  and  C_15 
REMARK       I    between atoms: C_15  and  N_16 
ROOT
HETATM    1  N   UNL     1      30.047  50.894  41.619  1.00  0.00    -0.252 N 
HETATM    2  C   UNL     1      29.313  51.998  41.265  1.00  0.00     0.238 C 
HETATM    3  O   UNL     1      29.663  53.150  41.051  1.00  0.00    -0.272 OA
HETATM    4  C   UNL     1      27.910  51.575  40.965  1.00  0.00     0.135 C 
HETATM    5  C   UNL     1      27.818  50.141  41.454  1.00  0.00     0.130 C 
HETATM    6  C   UNL     1      29.254  49.767  41.723  1.00  0.00     0.238 C 
HETATM    7  O   UNL     1      29.565  48.674  42.166  1.00  0.00    -0.272 OA
HETATM    8  C   UNL     1      27.646  51.536  39.469  1.00  0.00     0.298 C 
HETATM    9  N   UNL     1      26.610  50.406  39.364  1.00  0.00    -0.028 N 
HETATM   10  H   UNL     1      25.700  50.794  39.654  1.00  0.00     0.287 HD
HETATM   11  C   UNL     1      26.969  49.353  40.436  1.00  0.00     0.242 C 
HETATM   12  C   UNL     1      26.457  49.942  38.016  1.00  0.00     0.203 C 
HETATM   13  C   UNL     1      26.816  48.709  37.652  1.00  0.00     0.037 C 
HETATM   14  C   UNL     1      27.349  47.716  38.574  1.00  0.00    -0.026 A 
HETATM   15  C   UNL     1      27.399  48.002  39.943  1.00  0.00    -0.016 A 
HETATM   16  C   UNL     1      27.748  46.462  38.096  1.00  0.00     0.012 A 
HETATM   17  C   UNL     1      28.165  45.471  38.981  1.00  0.00     0.001 A 
HETATM   18  C   UNL     1      28.149  45.719  40.348  1.00  0.00     0.001 A 
HETATM   19  C   UNL     1      27.746  46.966  40.826  1.00  0.00     0.010 A 
ENDROOT
BRANCH   1  20
HETATM   20  C   UNL     1      31.444  50.906  41.912  1.00  0.00     0.045 A 
HETATM   21  C   UNL     1      32.397  50.474  40.976  1.00  0.00     0.031 A 
HETATM   22  C   UNL     1      33.773  50.564  41.239  1.00  0.00     0.017 A 
HETATM   23  C   UNL     1      34.221  51.075  42.457  1.00  0.00     0.009 A 
HETATM   24  C   UNL     1      33.287  51.449  43.424  1.00  0.00     0.017 A 
HETATM   25  C   UNL     1      31.917  51.373  43.149  1.00  0.00     0.031 A 
BRANCH  23  26
HETATM   26  C   UNL     1      35.664  51.238  42.780  1.00  0.00     0.155 C 
HETATM   27  C   UNL     1      36.103  52.378  43.661  1.00  0.00     0.096 C 
HETATM   28  O   UNL     1      36.465  50.403  42.365  1.00  0.00    -0.293 OA
ENDBRANCH  23  26
ENDBRANCH   1  20
BRANCH   8  29
HETATM   29  C   UNL     1      28.931  51.327  38.635  1.00  0.00     0.248 C 
HETATM   30  N   UNL     1      29.388  52.399  37.930  1.00  0.00    -0.368 N 
HETATM   31  H   UNL     1      29.231  53.354  38.241  1.00  0.00     0.159 HD
HETATM   32  H   UNL     1      30.286  52.266  37.468  1.00  0.00     0.159 HD
HETATM   33  O   UNL     1      29.539  50.263  38.637  1.00  0.00    -0.271 OA
ENDBRANCH   8  29
TORSDOF 3
ENDMDL
MODEL 2
REMARK VINA RESULT:      -9.0      2.105      6.727
REMARK  3 active torsions:
REMARK  status: ('A' for Active; 'I' for Inactive)
REMARK    1  A    between atoms: C_2  and  C_3 
REMARK    2  A    between atoms: C_6  and  N_7 
REMARK    3  A    between atoms: C_14  and  C_15 
REMARK       I    between atoms: C_15  and  N_16 
ROOT
HETATM    1  N   UNL     1      29.163  48.661  38.888  1.00  0.00    -0.252 N 
HETATM    2  C   UNL     1      28.351  49.606  38.316  1.00  0.00     0.238 C 
HETATM    3  O   UNL     1      27.163  49.564  38.026  1.00  0.00    -0.272 OA
HETATM    4  C   UNL     1      29.097  50.900  38.228  1.00  0.00     0.135 C 
HETATM    5  C   UNL     1      30.537  50.547  38.549  1.00  0.00     0.130 C 
HETATM    6  C   UNL     1      30.445  49.138  39.081  1.00  0.00     0.238 C 
HETATM    7  O   UNL     1      31.434  48.509  39.417  1.00  0.00    -0.272 OA
HETATM    8  C   UNL     1      28.646  51.879  39.299  1.00  0.00     0.298 C 
HETATM    9  N   UNL     1      29.937  52.671  39.561  1.00  0.00    -0.028 N 
HETATM   10  H   UNL     1      30.045  53.348  38.793  1.00  0.00     0.287 HD
HETATM   11  C   UNL     1      31.117  51.685  39.411  1.00  0.00     0.242 C 
HETATM   12  C   UNL     1      29.865  53.425  40.778  1.00  0.00     0.203 C 
HETATM   13  C   UNL     1      30.644  53.147  41.826  1.00  0.00     0.037 C 
HETATM   14  C   UNL     1      31.654  52.097  41.827  1.00  0.00    -0.026 A 
HETATM   15  C   UNL     1      31.922  51.396  40.646  1.00  0.00    -0.016 A 
HETATM   16  C   UNL     1      32.392  51.839  42.989  1.00  0.00     0.012 A 
HETATM   17  C   UNL     1      33.427  50.907  42.972  1.00  0.00     0.001 A 
HETATM   18  C   UNL     1      33.750  50.259  41.787  1.00  0.00     0.001 A 
HETATM   19  C   UNL     1      33.019  50.520  40.628  1.00  0.00     0.010 A 
ENDROOT
BRANCH   1  20
HETATM   20  C   UNL     1      28.766  47.323  39.189  1.00  0.00     0.045 A 
HETATM   21  C   UNL     1      29.167  46.238  38.393  1.00  0.00     0.031 A 
HETATM   22  C   UNL     1      28.841  44.917  38.741  1.00  0.00     0.017 A 
HETATM   23  C   UNL     1      28.089  44.659  39.887  1.00  0.00     0.009 A 
HETATM   24  C   UNL     1      27.628  45.730  40.654  1.00  0.00     0.017 A 
HETATM   25  C   UNL     1      27.970  47.043  40.313  1.00  0.00     0.031 A 
BRANCH  23  26
HETATM   26  C   UNL     1      27.749  43.282  40.333  1.00  0.00     0.155 C 
HETATM   27  C   UNL     1      26.314  42.929  40.625  1.00  0.00     0.096 C 
HETATM   28  O   UNL     1      28.642  42.440  40.401  1.00  0.00    -0.293 OA
ENDBRANCH  23  26
ENDBRANCH   1  20
BRANCH   8  29
HETATM   29  C   UNL     1      28.042  51.181  40.538  1.00  0.00     0.248 C 
HETATM   30  N   UNL     1      26.691  51.262  40.692  1.00  0.00    -0.368 N 
HETATM   31  H   UNL     1      26.062  51.340  39.896  1.00  0.00     0.159 HD
HETATM   32  H   UNL     1      26.306  50.713  41.459  1.00  0.00     0.159 HD
HETATM   33  O   UNL     1      28.732  50.547  41.327  1.00  0.00    -0.271 OA
ENDBRANCH   8  29
TORSDOF 3
ENDMDL
MODEL 3
REMARK VINA RESULT:      -8.5     11.015     12.594
REMARK  3 active torsions:
REMARK  status: ('A' for Active; 'I' for Inactive)
REMARK    1  A    between atoms: C_2  and  C_3 
REMARK    2  A    between atoms: C_6  and  N_7 
REMARK    3  A    between atoms: C_14  and  C_15 
REMARK       I    between atoms: C_15  and  N_16 
ROOT
HETATM    1  N   UNL     1      20.439  49.350  49.119  1.00  0.00    -0.252 N 
HETATM    2  C   UNL     1      19.752  50.217  49.929  1.00  0.00     0.238 C 
HETATM    3  O   UNL     1      20.127  51.219  50.520  1.00  0.00    -0.272 OA
HETATM    4  C   UNL     1      18.295  49.881  49.876  1.00  0.00     0.135 C 
HETATM    5  C   UNL     1      18.225  48.540  49.169  1.00  0.00     0.130 C 
HETATM    6  C   UNL     1      19.617  48.360  48.615  1.00  0.00     0.238 C 
HETATM    7  O   UNL     1      19.943  47.359  48.000  1.00  0.00    -0.272 OA
HETATM    8  C   UNL     1      17.526  50.864  49.010  1.00  0.00     0.298 C 
HETATM    9  N   UNL     1      16.402  49.975  48.452  1.00  0.00    -0.028 N 
HETATM   10  H   UNL     1      15.697  49.867  49.195  1.00  0.00     0.287 HD
HETATM   11  C   UNL     1      16.997  48.566  48.237  1.00  0.00     0.242 C 
HETATM   12  C   UNL     1      15.742  50.584  47.334  1.00  0.00     0.203 C 
HETATM   13  C   UNL     1      15.818  50.068  46.105  1.00  0.00     0.037 C 
HETATM   14  C   UNL     1      16.529  48.836  45.788  1.00  0.00    -0.026 A 
HETATM   15  C   UNL     1      17.081  48.072  46.822  1.00  0.00    -0.016 A 
HETATM   16  C   UNL     1      16.600  48.393  44.461  1.00  0.00     0.012 A 
HETATM   17  C   UNL     1      17.190  47.168  44.159  1.00  0.00     0.001 A 
HETATM   18  C   UNL     1      17.676  46.367  45.185  1.00  0.00     0.001 A 
HETATM   19  C   UNL     1      17.600  46.806  46.508  1.00  0.00     0.010 A 
ENDROOT
BRANCH   1  20
HETATM   20  C   UNL     1      21.844  49.409  48.871  1.00  0.00     0.045 A 
HETATM   21  C   UNL     1      22.414  50.437  48.101  1.00  0.00     0.031 A 
HETATM   22  C   UNL     1      23.804  50.536  47.929  1.00  0.00     0.017 A 
HETATM   23  C   UNL     1      24.651  49.594  48.512  1.00  0.00     0.009 A 
HETATM   24  C   UNL     1      24.097  48.530  49.227  1.00  0.00     0.017 A 
HETATM   25  C   UNL     1      22.713  48.446  49.410  1.00  0.00     0.031 A 
BRANCH  23  26
HETATM   26  C   UNL     1      26.132  49.667  48.405  1.00  0.00     0.155 C 
HETATM   27  C   UNL     1      26.980  48.646  49.118  1.00  0.00     0.096 C 
HETATM   28  O   UNL     1      26.636  50.530  47.689  1.00  0.00    -0.293 OA
ENDBRANCH  23  26
ENDBRANCH   1  20
BRANCH   8  29
HETATM   29  C   UNL     1      18.410  51.549  47.944  1.00  0.00     0.248 C 
HETATM   30  N   UNL     1      18.725  52.857  48.153  1.00  0.00    -0.368 N 
HETATM   31  H   UNL     1      18.803  53.248  49.089  1.00  0.00     0.159 HD
HETATM   32  H   UNL     1      19.387  53.258  47.491  1.00  0.00     0.159 HD
HETATM   33  O   UNL     1      18.847  50.940  46.974  1.00  0.00    -0.271 OA
ENDBRANCH   8  29
TORSDOF 3
ENDMDL
MODEL 4
REMARK VINA RESULT:      -8.5     10.964     12.845
REMARK  3 active torsions:
REMARK  status: ('A' for Active; 'I' for Inactive)
REMARK    1  A    between atoms: C_2  and  C_3 
REMARK    2  A    between atoms: C_6  and  N_7 
REMARK    3  A    between atoms: C_14  and  C_15 
REMARK       I    between atoms: C_15  and  N_16 
ROOT
HETATM    1  N   UNL     1      19.856  49.289  48.280  1.00  0.00    -0.252 N 
HETATM    2  C   UNL     1      19.003  49.364  49.351  1.00  0.00     0.238 C 
HETATM    3  O   UNL     1      19.231  49.573  50.535  1.00  0.00    -0.272 OA
HETATM    4  C   UNL     1      17.593  49.331  48.856  1.00  0.00     0.135 C 
HETATM    5  C   UNL     1      17.698  48.942  47.392  1.00  0.00     0.130 C 
HETATM    6  C   UNL     1      19.172  49.072  47.098  1.00  0.00     0.238 C 
HETATM    7  O   UNL     1      19.638  48.804  46.003  1.00  0.00    -0.272 OA
HETATM    8  C   UNL     1      16.957  50.711  48.888  1.00  0.00     0.298 C 
HETATM    9  N   UNL     1      15.984  50.634  47.701  1.00  0.00    -0.028 N 
HETATM   10  H   UNL     1      15.161  50.097  48.010  1.00  0.00     0.287 HD
HETATM   11  C   UNL     1      16.657  49.769  46.612  1.00  0.00     0.242 C 
HETATM   12  C   UNL     1      15.514  51.931  47.308  1.00  0.00     0.203 C 
HETATM   13  C   UNL     1      15.827  52.465  46.126  1.00  0.00     0.037 C 
HETATM   14  C   UNL     1      16.627  51.782  45.116  1.00  0.00    -0.026 A 
HETATM   15  C   UNL     1      17.011  50.453  45.323  1.00  0.00    -0.016 A 
HETATM   16  C   UNL     1      16.950  52.438  43.922  1.00  0.00     0.012 A 
HETATM   17  C   UNL     1      17.628  51.762  42.910  1.00  0.00     0.001 A 
HETATM   18  C   UNL     1      17.950  50.421  43.075  1.00  0.00     0.001 A 
HETATM   19  C   UNL     1      17.622  49.766  44.262  1.00  0.00     0.010 A 
ENDROOT
BRANCH   1  20
HETATM   20  C   UNL     1      21.279  49.358  48.366  1.00  0.00     0.045 A 
HETATM   21  C   UNL     1      22.044  48.264  48.805  1.00  0.00     0.031 A 
HETATM   22  C   UNL     1      23.447  48.310  48.811  1.00  0.00     0.017 A 
HETATM   23  C   UNL     1      24.113  49.463  48.392  1.00  0.00     0.009 A 
HETATM   24  C   UNL     1      23.367  50.580  48.013  1.00  0.00     0.017 A 
HETATM   25  C   UNL     1      21.969  50.523  47.993  1.00  0.00     0.031 A 
BRANCH  23  26
HETATM   26  C   UNL     1      25.595  49.559  48.332  1.00  0.00     0.155 C 
HETATM   27  C   UNL     1      26.432  48.729  49.270  1.00  0.00     0.096 C 
HETATM   28  O   UNL     1      26.112  50.275  47.477  1.00  0.00    -0.293 OA
ENDBRANCH  23  26
ENDBRANCH   1  20
BRANCH   8  29
HETATM   29  C   UNL     1      17.993  51.855  48.814  1.00  0.00     0.248 C 
HETATM   30  N   UNL     1      18.251  52.527  49.970  1.00  0.00    -0.368 N 
HETATM   31  H   UNL     1      18.170  52.082  50.881  1.00  0.00     0.159 HD
HETATM   32  H   UNL     1      19.007  53.209  49.918  1.00  0.00     0.159 HD
HETATM   33  O   UNL     1      18.592  52.122  47.778  1.00  0.00    -0.271 OA
ENDBRANCH   8  29
TORSDOF 3
ENDMDL
MODEL 5
REMARK VINA RESULT:      -7.9     25.061     27.699
REMARK  3 active torsions:
REMARK  status: ('A' for Active; 'I' for Inactive)
REMARK    1  A    between atoms: C_2  and  C_3 
REMARK    2  A    between atoms: C_6  and  N_7 
REMARK    3  A    between atoms: C_14  and  C_15 
REMARK       I    between atoms: C_15  and  N_16 
ROOT
HETATM    1  N   UNL     1      36.090  43.406  64.958  1.00  0.00    -0.252 N 
HETATM    2  C   UNL     1      36.363  44.511  64.192  1.00  0.00     0.238 C 
HETATM    3  O   UNL     1      35.893  45.639  64.230  1.00  0.00    -0.272 OA
HETATM    4  C   UNL     1      37.545  44.222  63.323  1.00  0.00     0.135 C 
HETATM    5  C   UNL     1      37.770  42.726  63.449  1.00  0.00     0.130 C 
HETATM    6  C   UNL     1      36.885  42.332  64.605  1.00  0.00     0.238 C 
HETATM    7  O   UNL     1      36.786  41.175  64.978  1.00  0.00    -0.272 OA
HETATM    8  C   UNL     1      38.803  44.890  63.850  1.00  0.00     0.298 C 
HETATM    9  N   UNL     1      39.893  43.904  63.402  1.00  0.00    -0.028 N 
HETATM   10  H   UNL     1      40.062  44.066  62.399  1.00  0.00     0.287 HD
HETATM   11  C   UNL     1      39.292  42.484  63.495  1.00  0.00     0.242 C 
HETATM   12  C   UNL     1      41.136  44.134  64.078  1.00  0.00     0.203 C 
HETATM   13  C   UNL     1      41.650  43.242  64.928  1.00  0.00     0.037 C 
HETATM   14  C   UNL     1      41.036  41.953  65.217  1.00  0.00    -0.026 A 
HETATM   15  C   UNL     1      39.903  41.552  64.502  1.00  0.00    -0.016 A 
HETATM   16  C   UNL     1      41.619  41.099  66.162  1.00  0.00     0.012 A 
HETATM   17  C   UNL     1      41.098  39.825  66.375  1.00  0.00     0.001 A 
HETATM   18  C   UNL     1      40.018  39.389  65.617  1.00  0.00     0.001 A 
HETATM   19  C   UNL     1      39.441  40.237  64.672  1.00  0.00     0.010 A 
ENDROOT
BRANCH   1  20
HETATM   20  C   UNL     1      35.067  43.338  65.952  1.00  0.00     0.045 A 
HETATM   21  C   UNL     1      33.834  42.716  65.699  1.00  0.00     0.031 A 
HETATM   22  C   UNL     1      32.864  42.580  66.706  1.00  0.00     0.017 A 
HETATM   23  C   UNL     1      33.106  43.083  67.984  1.00  0.00     0.009 A 
HETATM   24  C   UNL     1      34.300  43.760  68.234  1.00  0.00     0.017 A 
HETATM   25  C   UNL     1      35.270  43.877  67.233  1.00  0.00     0.031 A 
BRANCH  23  26
HETATM   26  C   UNL     1      32.140  42.932  69.104  1.00  0.00     0.155 C 
HETATM   27  C   UNL     1      32.417  41.931  70.194  1.00  0.00     0.096 C 
HETATM   28  O   UNL     1      31.159  43.671  69.148  1.00  0.00    -0.293 OA
ENDBRANCH  23  26
ENDBRANCH   1  20
BRANCH   8  29
HETATM   29  C   UNL     1      38.751  45.162  65.371  1.00  0.00     0.248 C 
HETATM   30  N   UNL     1      38.574  46.455  65.759  1.00  0.00    -0.368 N 
HETATM   31  H   UNL     1      38.063  47.124  65.188  1.00  0.00     0.159 HD
HETATM   32  H   UNL     1      38.443  46.596  66.760  1.00  0.00     0.159 HD
HETATM   33  O   UNL     1      38.821  44.257  66.195  1.00  0.00    -0.271 OA
ENDBRANCH   8  29
TORSDOF 3
ENDMDL
MODEL 6
REMARK VINA RESULT:      -7.8     25.226     27.639
REMARK  3 active torsions:
REMARK  status: ('A' for Active; 'I' for Inactive)
REMARK    1  A    between atoms: C_2  and  C_3 
REMARK    2  A    between atoms: C_6  and  N_7 
REMARK    3  A    between atoms: C_14  and  C_15 
REMARK       I    between atoms: C_15  and  N_16 
ROOT
HETATM    1  N   UNL     1      37.949  45.401  64.474  1.00  0.00    -0.252 N 
HETATM    2  C   UNL     1      36.694  45.951  64.403  1.00  0.00     0.238 C 
HETATM    3  O   UNL     1      35.606  45.426  64.211  1.00  0.00    -0.272 OA
HETATM    4  C   UNL     1      36.770  47.392  64.797  1.00  0.00     0.135 C 
HETATM    5  C   UNL     1      38.254  47.712  64.835  1.00  0.00     0.130 C 
HETATM    6  C   UNL     1      38.909  46.356  64.749  1.00  0.00     0.238 C 
HETATM    7  O   UNL     1      40.122  46.225  64.721  1.00  0.00    -0.272 OA
HETATM    8  C   UNL     1      36.247  47.615  66.205  1.00  0.00     0.298 C 
HETATM    9  N   UNL     1      37.100  48.805  66.671  1.00  0.00    -0.028 N 
HETATM   10  H   UNL     1      36.705  49.654  66.242  1.00  0.00     0.287 HD
HETATM   11  C   UNL     1      38.501  48.638  66.042  1.00  0.00     0.242 C 
HETATM   12  C   UNL     1      37.038  48.986  68.092  1.00  0.00     0.203 C 
HETATM   13  C   UNL     1      38.106  48.804  68.872  1.00  0.00     0.037 C 
HETATM   14  C   UNL     1      39.427  48.453  68.366  1.00  0.00    -0.026 A 
HETATM   15  C   UNL     1      39.646  48.401  66.985  1.00  0.00    -0.016 A 
HETATM   16  C   UNL     1      40.481  48.232  69.261  1.00  0.00     0.012 A 
HETATM   17  C   UNL     1      41.769  47.994  68.786  1.00  0.00     0.001 A 
HETATM   18  C   UNL     1      42.012  48.013  67.419  1.00  0.00     0.001 A 
HETATM   19  C   UNL     1      40.963  48.239  66.527  1.00  0.00     0.010 A 
ENDROOT
BRANCH   1  20
HETATM   20  C   UNL     1      38.249  44.027  64.229  1.00  0.00     0.045 A 
HETATM   21  C   UNL     1      38.766  43.593  62.998  1.00  0.00     0.031 A 
HETATM   22  C   UNL     1      39.136  42.255  62.791  1.00  0.00     0.017 A 
HETATM   23  C   UNL     1      38.978  41.318  63.813  1.00  0.00     0.009 A 
HETATM   24  C   UNL     1      38.406  41.719  65.021  1.00  0.00     0.017 A 
HETATM   25  C   UNL     1      38.056  43.058  65.227  1.00  0.00     0.031 A 
BRANCH  23  26
HETATM   26  C   UNL     1      39.391  39.897  63.673  1.00  0.00     0.155 C 
HETATM   27  C   UNL     1      39.451  39.018  64.895  1.00  0.00     0.096 C 
HETATM   28  O   UNL     1      39.622  39.451  62.551  1.00  0.00    -0.293 OA
ENDBRANCH  23  26
ENDBRANCH   1  20
BRANCH   8  29
HETATM   29  C   UNL     1      36.343  46.352  67.092  1.00  0.00     0.248 C 
HETATM   30  N   UNL     1      35.180  45.695  67.355  1.00  0.00    -0.368 N 
HETATM   31  H   UNL     1      34.399  45.701  66.703  1.00  0.00     0.159 HD
HETATM   32  H   UNL     1      35.281  44.814  67.857  1.00  0.00     0.159 HD
HETATM   33  O   UNL     1      37.417  45.931  67.507  1.00  0.00    -0.271 OA
ENDBRANCH   8  29
TORSDOF 3
ENDMDL
MODEL 7
REMARK VINA RESULT:      -7.6      2.791      7.202
REMARK  3 active torsions:
REMARK  status: ('A' for Active; 'I' for Inactive)
REMARK    1  A    between atoms: C_2  and  C_3 
REMARK    2  A    between atoms: C_6  and  N_7 
REMARK    3  A    between atoms: C_14  and  C_15 
REMARK       I    between atoms: C_15  and  N_16 
ROOT
HETATM    1  N   UNL     1      27.931  46.732  39.728  1.00  0.00    -0.252 N 
HETATM    2  C   UNL     1      27.240  47.316  38.697  1.00  0.00     0.238 C 
HETATM    3  O   UNL     1      26.079  47.175  38.338  1.00  0.00    -0.272 OA
HETATM    4  C   UNL     1      28.084  48.393  38.092  1.00  0.00     0.135 C 
HETATM    5  C   UNL     1      29.464  48.194  38.691  1.00  0.00     0.130 C 
HETATM    6  C   UNL     1      29.226  47.209  39.808  1.00  0.00     0.238 C 
HETATM    7  O   UNL     1      30.136  46.787  40.502  1.00  0.00    -0.272 OA
HETATM    8  C   UNL     1      27.623  49.774  38.525  1.00  0.00     0.298 C 
HETATM    9  N   UNL     1      28.944  50.560  38.520  1.00  0.00    -0.028 N 
HETATM   10  H   UNL     1      29.162  50.790  37.540  1.00  0.00     0.287 HD
HETATM   11  C   UNL     1      30.056  49.589  38.975  1.00  0.00     0.242 C 
HETATM   12  C   UNL     1      28.832  51.803  39.227  1.00  0.00     0.203 C 
HETATM   13  C   UNL     1      29.501  52.032  40.358  1.00  0.00     0.037 C 
HETATM   14  C   UNL     1      30.428  51.080  40.957  1.00  0.00    -0.026 A 
HETATM   15  C   UNL     1      30.736  49.897  40.278  1.00  0.00    -0.016 A 
HETATM   16  C   UNL     1      31.050  51.384  42.175  1.00  0.00     0.012 A 
HETATM   17  C   UNL     1      32.011  50.527  42.706  1.00  0.00     0.001 A 
HETATM   18  C   UNL     1      32.379  49.386  42.004  1.00  0.00     0.001 A 
HETATM   19  C   UNL     1      31.763  49.087  40.788  1.00  0.00     0.010 A 
ENDROOT
BRANCH   1  20
HETATM   20  C   UNL     1      27.414  45.708  40.577  1.00  0.00     0.045 A 
HETATM   21  C   UNL     1      26.553  46.004  41.647  1.00  0.00     0.031 A 
HETATM   22  C   UNL     1      25.983  44.986  42.429  1.00  0.00     0.017 A 
HETATM   23  C   UNL     1      26.279  43.650  42.163  1.00  0.00     0.009 A 
HETATM   24  C   UNL     1      27.182  43.342  41.144  1.00  0.00     0.017 A 
HETATM   25  C   UNL     1      27.734  44.359  40.358  1.00  0.00     0.031 A 
BRANCH  23  26
HETATM   26  C   UNL     1      25.674  42.525  42.924  1.00  0.00     0.155 C 
HETATM   27  C   UNL     1      26.413  41.216  43.027  1.00  0.00     0.096 C 
HETATM   28  O   UNL     1      24.605  42.704  43.503  1.00  0.00    -0.293 OA
ENDBRANCH  23  26
ENDBRANCH   1  20
BRANCH   8  29
HETATM   29  C   UNL     1      26.872  49.764  39.876  1.00  0.00     0.248 C 
HETATM   30  N   UNL     1      25.529  49.990  39.835  1.00  0.00    -0.368 N 
HETATM   31  H   UNL     1      24.965  49.731  39.030  1.00  0.00     0.159 HD
HETATM   32  H   UNL     1      25.042  49.880  40.723  1.00  0.00     0.159 HD
HETATM   33  O   UNL     1      27.442  49.522  40.934  1.00  0.00    -0.271 OA
ENDBRANCH   8  29
TORSDOF 3
ENDMDL
MODEL 8
REMARK VINA RESULT:      -7.6     11.595     13.476
REMARK  3 active torsions:
REMARK  status: ('A' for Active; 'I' for Inactive)
REMARK    1  A    between atoms: C_2  and  C_3 
REMARK    2  A    between atoms: C_6  and  N_7 
REMARK    3  A    between atoms: C_14  and  C_15 
REMARK       I    between atoms: C_15  and  N_16 
ROOT
HETATM    1  N   UNL     1      20.801  45.744  47.060  1.00  0.00    -0.252 N 
HETATM    2  C   UNL     1      19.670  45.314  46.414  1.00  0.00     0.238 C 
HETATM    3  O   UNL     1      19.157  44.205  46.362  1.00  0.00    -0.272 OA
HETATM    4  C   UNL     1      18.947  46.499  45.856  1.00  0.00     0.135 C 
HETATM    5  C   UNL     1      19.920  47.656  45.996  1.00  0.00     0.130 C 
HETATM    6  C   UNL     1      21.002  47.100  46.888  1.00  0.00     0.238 C 
HETATM    7  O   UNL     1      21.985  47.754  47.196  1.00  0.00    -0.272 OA
HETATM    8  C   UNL     1      17.731  46.857  46.694  1.00  0.00     0.298 C 
HETATM    9  N   UNL     1      17.659  48.381  46.504  1.00  0.00    -0.028 N 
HETATM   10  H   UNL     1      17.243  48.556  45.578  1.00  0.00     0.287 HD
HETATM   11  C   UNL     1      19.111  48.900  46.411  1.00  0.00     0.242 C 
HETATM   12  C   UNL     1      16.803  49.002  47.472  1.00  0.00     0.203 C 
HETATM   13  C   UNL     1      17.277  49.835  48.399  1.00  0.00     0.037 C 
HETATM   14  C   UNL     1      18.678  50.225  48.496  1.00  0.00    -0.026 A 
HETATM   15  C   UNL     1      19.581  49.805  47.513  1.00  0.00    -0.016 A 
HETATM   16  C   UNL     1      19.098  51.066  49.534  1.00  0.00     0.012 A 
HETATM   17  C   UNL     1      20.413  51.524  49.579  1.00  0.00     0.001 A 
HETATM   18  C   UNL     1      21.299  51.174  48.568  1.00  0.00     0.001 A 
HETATM   19  C   UNL     1      20.879  50.340  47.531  1.00  0.00     0.010 A 
ENDROOT
BRANCH   1  20
HETATM   20  C   UNL     1      21.704  44.896  47.769  1.00  0.00     0.045 A 
HETATM   21  C   UNL     1      22.835  44.340  47.148  1.00  0.00     0.031 A 
HETATM   22  C   UNL     1      23.762  43.573  47.871  1.00  0.00     0.017 A 
HETATM   23  C   UNL     1      23.565  43.334  49.231  1.00  0.00     0.009 A 
HETATM   24  C   UNL     1      22.414  43.825  49.849  1.00  0.00     0.017 A 
HETATM   25  C   UNL     1      21.502  44.603  49.128  1.00  0.00     0.031 A 
BRANCH  23  26
HETATM   26  C   UNL     1      24.532  42.569  50.062  1.00  0.00     0.155 C 
HETATM   27  C   UNL     1      25.170  41.324  49.502  1.00  0.00     0.096 C 
HETATM   28  O   UNL     1      24.835  42.999  51.172  1.00  0.00    -0.293 OA
ENDBRANCH  23  26
ENDBRANCH   1  20
BRANCH   8  29
HETATM   29  C   UNL     1      17.849  46.385  48.161  1.00  0.00     0.248 C 
HETATM   30  N   UNL     1      17.060  45.340  48.536  1.00  0.00    -0.368 N 
HETATM   31  H   UNL     1      16.769  44.622  47.878  1.00  0.00     0.159 HD
HETATM   32  H   UNL     1      17.226  44.984  49.476  1.00  0.00     0.159 HD
HETATM   33  O   UNL     1      18.644  46.892  48.944  1.00  0.00    -0.271 OA
ENDBRANCH   8  29
TORSDOF 3
ENDMDL
MODEL 9
REMARK VINA RESULT:      -7.5     11.313     13.411
REMARK  3 active torsions:
REMARK  status: ('A' for Active; 'I' for Inactive)
REMARK    1  A    between atoms: C_2  and  C_3 
REMARK    2  A    between atoms: C_6  and  N_7 
REMARK    3  A    between atoms: C_14  and  C_15 
REMARK       I    between atoms: C_15  and  N_16 
ROOT
HETATM    1  N   UNL     1      20.763  47.806  47.408  1.00  0.00    -0.252 N 
HETATM    2  C   UNL     1      20.073  46.884  46.664  1.00  0.00     0.238 C 
HETATM    3  O   UNL     1      20.190  45.669  46.595  1.00  0.00    -0.272 OA
HETATM    4  C   UNL     1      18.917  47.562  45.998  1.00  0.00     0.135 C 
HETATM    5  C   UNL     1      19.162  49.046  46.200  1.00  0.00     0.130 C 
HETATM    6  C   UNL     1      20.277  49.085  47.215  1.00  0.00     0.238 C 
HETATM    7  O   UNL     1      20.763  50.135  47.601  1.00  0.00    -0.272 OA
HETATM    8  C   UNL     1      17.605  47.245  46.696  1.00  0.00     0.298 C 
HETATM    9  N   UNL     1      16.802  48.532  46.451  1.00  0.00    -0.028 N 
HETATM   10  H   UNL     1      16.454  48.498  45.482  1.00  0.00     0.287 HD
HETATM   11  C   UNL     1      17.801  49.710  46.490  1.00  0.00     0.242 C 
HETATM   12  C   UNL     1      15.655  48.618  47.306  1.00  0.00     0.203 C 
HETATM   13  C   UNL     1      15.550  49.555  48.250  1.00  0.00     0.037 C 
HETATM   14  C   UNL     1      16.550  50.590  48.477  1.00  0.00    -0.026 A 
HETATM   15  C   UNL     1      17.639  50.701  47.606  1.00  0.00    -0.016 A 
HETATM   16  C   UNL     1      16.383  51.504  49.525  1.00  0.00     0.012 A 
HETATM   17  C   UNL     1      17.280  52.557  49.690  1.00  0.00     0.001 A 
HETATM   18  C   UNL     1      18.322  52.720  48.787  1.00  0.00     0.001 A 
HETATM   19  C   UNL     1      18.486  51.813  47.739  1.00  0.00     0.010 A 
ENDROOT
BRANCH   1  20
HETATM   20  C   UNL     1      21.890  47.506  48.233  1.00  0.00     0.045 A 
HETATM   21  C   UNL     1      22.355  46.191  48.394  1.00  0.00     0.031 A 
HETATM   22  C   UNL     1      23.512  45.912  49.140  1.00  0.00     0.017 A 
HETATM   23  C   UNL     1      24.216  46.948  49.755  1.00  0.00     0.009 A 
HETATM   24  C   UNL     1      23.730  48.252  49.658  1.00  0.00     0.017 A 
HETATM   25  C   UNL     1      22.588  48.527  48.899  1.00  0.00     0.031 A 
BRANCH  23  26
HETATM   26  C   UNL     1      25.470  46.724  50.521  1.00  0.00     0.155 C 
HETATM   27  C   UNL     1      26.428  45.648  50.079  1.00  0.00     0.096 C 
HETATM   28  O   UNL     1      25.730  47.462  51.469  1.00  0.00    -0.293 OA
ENDBRANCH  23  26
ENDBRANCH   1  20
BRANCH   8  29
HETATM   29  C   UNL     1      17.790  46.859  48.181  1.00  0.00     0.248 C 
HETATM   30  N   UNL     1      17.641  45.543  48.499  1.00  0.00    -0.368 N 
HETATM   31  H   UNL     1      17.855  44.802  47.835  1.00  0.00     0.159 HD
HETATM   32  H   UNL     1      17.864  45.299  49.462  1.00  0.00     0.159 HD
HETATM   33  O   UNL     1      18.097  47.686  49.032  1.00  0.00    -0.271 OA
ENDBRANCH   8  29
TORSDOF 3
ENDMDL
MODEL 10
REMARK VINA RESULT:      -7.5     25.313     27.723
REMARK  3 active torsions:
REMARK  status: ('A' for Active; 'I' for Inactive)
REMARK    1  A    between atoms: C_2  and  C_3 
REMARK    2  A    between atoms: C_6  and  N_7 
REMARK    3  A    between atoms: C_14  and  C_15 
REMARK       I    between atoms: C_15  and  N_16 
ROOT
HETATM    1  N   UNL     1      39.186  42.575  63.902  1.00  0.00    -0.252 N 
HETATM    2  C   UNL     1      37.888  42.996  63.768  1.00  0.00     0.238 C 
HETATM    3  O   UNL     1      36.836  42.396  63.940  1.00  0.00    -0.272 OA
HETATM    4  C   UNL     1      37.876  44.473  63.532  1.00  0.00     0.135 C 
HETATM    5  C   UNL     1      39.323  44.840  63.256  1.00  0.00     0.130 C 
HETATM    6  C   UNL     1      40.082  43.596  63.647  1.00  0.00     0.238 C 
HETATM    7  O   UNL     1      41.294  43.515  63.528  1.00  0.00    -0.272 OA
HETATM    8  C   UNL     1      37.471  45.235  64.782  1.00  0.00     0.298 C 
HETATM    9  N   UNL     1      38.258  46.545  64.618  1.00  0.00    -0.028 N 
HETATM   10  H   UNL     1      37.752  47.125  63.934  1.00  0.00     0.287 HD
HETATM   11  C   UNL     1      39.602  46.190  63.945  1.00  0.00     0.242 C 
HETATM   12  C   UNL     1      38.316  47.293  65.840  1.00  0.00     0.203 C 
HETATM   13  C   UNL     1      39.464  47.493  66.490  1.00  0.00     0.037 C 
HETATM   14  C   UNL     1      40.756  47.017  66.013  1.00  0.00    -0.026 A 
HETATM   15  C   UNL     1      40.847  46.409  64.756  1.00  0.00    -0.016 A 
HETATM   16  C   UNL     1      41.906  47.228  66.785  1.00  0.00     0.012 A 
HETATM   17  C   UNL     1      43.158  46.867  66.294  1.00  0.00     0.001 A 
HETATM   18  C   UNL     1      43.268  46.330  65.018  1.00  0.00     0.001 A 
HETATM   19  C   UNL     1      42.124  46.126  64.246  1.00  0.00     0.010 A 
ENDROOT
BRANCH   1  20
HETATM   20  C   UNL     1      39.581  41.236  64.201  1.00  0.00     0.045 A 
HETATM   21  C   UNL     1      39.632  40.244  63.208  1.00  0.00     0.031 A 
HETATM   22  C   UNL     1      40.098  38.950  63.491  1.00  0.00     0.017 A 
HETATM   23  C   UNL     1      40.506  38.620  64.783  1.00  0.00     0.009 A 
HETATM   24  C   UNL     1      40.402  39.575  65.795  1.00  0.00     0.017 A 
HETATM   25  C   UNL     1      39.953  40.868  65.504  1.00  0.00     0.031 A 
BRANCH  23  26
HETATM   26  C   UNL     1      41.051  37.283  65.138  1.00  0.00     0.155 C 
HETATM   27  C   UNL     1      40.351  36.447  66.177  1.00  0.00     0.096 C 
HETATM   28  O   UNL     1      42.034  36.860  64.533  1.00  0.00    -0.293 OA
ENDBRANCH  23  26
ENDBRANCH   1  20
BRANCH   8  29
HETATM   29  C   UNL     1      37.760  44.456  66.085  1.00  0.00     0.248 C 
HETATM   30  N   UNL     1      36.685  43.953  66.753  1.00  0.00    -0.368 N 
HETATM   31  H   UNL     1      35.832  43.679  66.271  1.00  0.00     0.159 HD
HETATM   32  H   UNL     1      36.906  43.361  67.552  1.00  0.00     0.159 HD
HETATM   33  O   UNL     1      38.902  44.257  66.483  1.00  0.00    -0.271 OA
ENDBRANCH   8  29
TORSDOF 3
ENDMDL
