MODEL 1
REMARK VINA RESULT:     -10.2      0.000      0.000
REMARK  5 active torsions:
REMARK  status: ('A' for Active; 'I' for Inactive)
REMARK    1  A    between atoms: C_8  and  N_9 
REMARK    2  A    between atoms: C_12  and  N_13 
REMARK    3  A    between atoms: N_13  and  C_15 
REMARK    4  A    between atoms: C_15  and  C_16 
REMARK    5  A    between atoms: C_17  and  C_18 
ROOT
HETATM    1  N   UNL     1      26.479  43.420  53.142  1.00  0.00    -0.067 N 
HETATM    2  H   UNL     1      26.273  42.417  53.228  1.00  0.00     0.280 HD
HETATM    3  C   UNL     1      25.179  44.095  52.759  1.00  0.00     0.270 C 
ENDROOT
BRANCH   1   4
HETATM    4  C   UNL     1      27.637  43.625  52.144  1.00  0.00     0.190 C 
HETATM    5  C   UNL     1      28.870  42.801  52.550  1.00  0.00     0.048 C 
HETATM    6  C   UNL     1      28.741  41.315  52.214  1.00  0.00     0.099 C 
HETATM    7  N   UNL     1      28.405  41.168  50.792  1.00  0.00    -0.268 NA
HETATM    8  C   UNL     1      27.156  41.823  50.390  1.00  0.00     0.099 C 
HETATM    9  C   UNL     1      27.269  43.317  50.683  1.00  0.00     0.048 C 
BRANCH   7  10
HETATM   10  C   UNL     1      28.589  39.874  50.281  1.00  0.00     0.109 A 
HETATM   11  N   UNL     1      29.073  38.907  51.081  1.00  0.00    -0.224 NA
HETATM   12  C   UNL     1      29.307  37.684  50.540  1.00  0.00     0.102 A 
HETATM   13  N   UNL     1      29.088  37.398  49.250  1.00  0.00    -0.348 N 
HETATM   14  C   UNL     1      29.883  36.621  51.422  1.00  0.00     0.091 C 
HETATM   15  C   UNL     1      28.603  38.339  48.426  1.00  0.00     0.009 A 
HETATM   16  H   UNL     1      29.303  36.465  48.900  1.00  0.00     0.167 HD
HETATM   17  C   UNL     1      28.383  38.003  46.988  1.00  0.00     0.068 C 
HETATM   18  C   UNL     1      28.345  39.613  48.937  1.00  0.00     0.069 A 
ENDBRANCH   7  10
ENDBRANCH   1   4
BRANCH   1  19
HETATM   19  C   UNL     1      26.885  43.877  54.555  1.00  0.00     0.277 C 
BRANCH  19  20
HETATM   20  C   UNL     1      27.363  45.281  54.623  1.00  0.00     0.016 A 
HETATM   21  C   UNL     1      28.515  45.829  55.276  1.00  0.00     0.099 A 
HETATM   22  N   UNL     1      28.510  47.165  55.184  1.00  0.00    -0.174 NA
HETATM   23  N   UNL     1      27.489  47.467  54.377  1.00  0.00    -0.288 N 
HETATM   24  H   UNL     1      27.349  48.441  54.115  1.00  0.00     0.188 HD
HETATM   25  C   UNL     1      26.744  46.377  54.045  1.00  0.00     0.120 A 
BRANCH  21  26
HETATM   26  C   UNL     1      29.589  45.175  56.026  1.00  0.00     0.034 A 
HETATM   27  C   UNL     1      29.879  45.508  57.352  1.00  0.00     0.129 A 
HETATM   28  F   UNL     1      29.208  46.487  57.974  1.00  0.00    -0.205 F 
HETATM   29  C   UNL     1      30.863  44.833  58.072  1.00  0.00     0.043 A 
HETATM   30  C   UNL     1      31.574  43.796  57.471  1.00  0.00     0.003 A 
HETATM   31  C   UNL     1      31.298  43.443  56.151  1.00  0.00     0.001 A 
HETATM   32  C   UNL     1      30.310  44.125  55.435  1.00  0.00     0.017 A 
ENDBRANCH  21  26
ENDBRANCH  19  20
ENDBRANCH   1  19
TORSDOF 5
ENDMDL
MODEL 2
REMARK VINA RESULT:      -9.9      3.571      6.675
REMARK  5 active torsions:
REMARK  status: ('A' for Active; 'I' for Inactive)
REMARK    1  A    between atoms: C_8  and  N_9 
REMARK    2  A    between atoms: C_12  and  N_13 
REMARK    3  A    between atoms: N_13  and  C_15 
REMARK    4  A    between atoms: C_15  and  C_16 
REMARK    5  A    between atoms: C_17  and  C_18 
ROOT
HETATM    1  N   UNL     1      26.162  43.932  53.499  1.00  0.00    -0.067 N 
HETATM    2  H   UNL     1      25.777  43.241  52.845  1.00  0.00     0.280 HD
HETATM    3  C   UNL     1      24.992  44.472  54.294  1.00  0.00     0.270 C 
ENDROOT
BRANCH   1   4
HETATM    4  C   UNL     1      26.963  44.993  52.718  1.00  0.00     0.190 C 
HETATM    5  C   UNL     1      26.963  44.686  51.211  1.00  0.00     0.048 C 
HETATM    6  C   UNL     1      25.651  45.054  50.518  1.00  0.00     0.099 C 
HETATM    7  N   UNL     1      25.326  46.455  50.810  1.00  0.00    -0.268 NA
HETATM    8  C   UNL     1      25.175  46.761  52.237  1.00  0.00     0.099 C 
HETATM    9  C   UNL     1      26.485  46.436  52.949  1.00  0.00     0.048 C 
BRANCH   7  10
HETATM   10  C   UNL     1      24.344  47.011  49.975  1.00  0.00     0.109 A 
HETATM   11  N   UNL     1      24.104  48.334  50.020  1.00  0.00    -0.224 NA
HETATM   12  C   UNL     1      23.100  48.830  49.254  1.00  0.00     0.102 A 
HETATM   13  N   UNL     1      22.334  48.067  48.463  1.00  0.00    -0.348 N 
HETATM   14  C   UNL     1      22.809  50.296  49.336  1.00  0.00     0.091 C 
HETATM   15  C   UNL     1      22.548  46.745  48.394  1.00  0.00     0.009 A 
HETATM   16  H   UNL     1      21.582  48.498  47.927  1.00  0.00     0.167 HD
HETATM   17  C   UNL     1      21.670  45.910  47.519  1.00  0.00     0.068 C 
HETATM   18  C   UNL     1      23.571  46.187  49.164  1.00  0.00     0.069 A 
ENDBRANCH   7  10
ENDBRANCH   1   4
BRANCH   1  19
HETATM   19  C   UNL     1      27.084  43.134  54.441  1.00  0.00     0.277 C 
BRANCH  19  20
HETATM   20  C   UNL     1      28.390  42.763  53.840  1.00  0.00     0.016 A 
HETATM   21  C   UNL     1      29.721  43.067  54.276  1.00  0.00     0.099 A 
HETATM   22  N   UNL     1      30.614  42.635  53.375  1.00  0.00    -0.174 NA
HETATM   23  N   UNL     1      29.912  41.947  52.472  1.00  0.00    -0.288 N 
HETATM   24  H   UNL     1      30.415  41.467  51.728  1.00  0.00     0.188 HD
HETATM   25  C   UNL     1      28.568  42.026  52.681  1.00  0.00     0.120 A 
BRANCH  21  26
HETATM   26  C   UNL     1      30.197  43.784  55.459  1.00  0.00     0.034 A 
HETATM   27  C   UNL     1      29.792  45.089  55.750  1.00  0.00     0.129 A 
HETATM   28  F   UNL     1      28.982  45.757  54.917  1.00  0.00    -0.205 F 
HETATM   29  C   UNL     1      30.206  45.737  56.914  1.00  0.00     0.043 A 
HETATM   30  C   UNL     1      31.034  45.075  57.818  1.00  0.00     0.003 A 
HETATM   31  C   UNL     1      31.446  43.770  57.551  1.00  0.00     0.001 A 
HETATM   32  C   UNL     1      31.029  43.129  56.382  1.00  0.00     0.017 A 
ENDBRANCH  21  26
ENDBRANCH  19  20
ENDBRANCH   1  19
TORSDOF 5
ENDMDL
MODEL 3
REMARK VINA RESULT:      -9.7      3.348      6.349
REMARK  5 active torsions:
REMARK  status: ('A' for Active; 'I' for Inactive)
REMARK    1  A    between atoms: C_8  and  N_9 
REMARK    2  A    between atoms: C_12  and  N_13 
REMARK    3  A    between atoms: N_13  and  C_15 
REMARK    4  A    between atoms: C_15  and  C_16 
REMARK    5  A    between atoms: C_17  and  C_18 
ROOT
HETATM    1  N   UNL     1      27.495  43.842  52.728  1.00  0.00    -0.067 N 
HETATM    2  H   UNL     1      27.901  44.730  52.413  1.00  0.00     0.280 HD
HETATM    3  C   UNL     1      28.613  42.821  52.695  1.00  0.00     0.270 C 
ENDROOT
BRANCH   1   4
HETATM    4  C   UNL     1      26.272  43.495  51.856  1.00  0.00     0.190 C 
HETATM    5  C   UNL     1      25.033  44.289  52.300  1.00  0.00     0.048 C 
HETATM    6  C   UNL     1      25.049  45.746  51.834  1.00  0.00     0.099 C 
HETATM    7  N   UNL     1      25.257  45.787  50.381  1.00  0.00    -0.268 NA
HETATM    8  C   UNL     1      26.503  45.162  49.927  1.00  0.00     0.099 C 
HETATM    9  C   UNL     1      26.499  43.695  50.348  1.00  0.00     0.048 C 
BRANCH   7  10
HETATM   10  C   UNL     1      24.959  47.022  49.786  1.00  0.00     0.109 A 
HETATM   11  N   UNL     1      23.689  47.305  49.444  1.00  0.00    -0.224 NA
HETATM   12  C   UNL     1      23.443  48.478  48.805  1.00  0.00     0.102 A 
HETATM   13  N   UNL     1      24.402  49.359  48.493  1.00  0.00    -0.348 N 
HETATM   14  C   UNL     1      22.036  48.772  48.390  1.00  0.00     0.091 C 
HETATM   15  C   UNL     1      25.678  49.108  48.822  1.00  0.00     0.009 A 
HETATM   16  H   UNL     1      24.155  50.213  47.995  1.00  0.00     0.167 HD
HETATM   17  C   UNL     1      26.733  50.097  48.449  1.00  0.00     0.068 C 
HETATM   18  C   UNL     1      25.981  47.915  49.482  1.00  0.00     0.069 A 
ENDBRANCH   7  10
ENDBRANCH   1   4
BRANCH   1  19
HETATM   19  C   UNL     1      27.075  44.079  54.191  1.00  0.00     0.277 C 
BRANCH  19  20
HETATM   20  C   UNL     1      27.410  45.431  54.705  1.00  0.00     0.016 A 
HETATM   21  C   UNL     1      28.489  45.852  55.550  1.00  0.00     0.099 A 
HETATM   22  N   UNL     1      28.352  47.147  55.866  1.00  0.00    -0.174 NA
HETATM   23  N   UNL     1      27.324  47.590  55.139  1.00  0.00    -0.288 N 
HETATM   24  H   UNL     1      27.093  48.581  55.177  1.00  0.00     0.188 HD
HETATM   25  C   UNL     1      26.697  46.592  54.456  1.00  0.00     0.120 A 
BRANCH  21  26
HETATM   26  C   UNL     1      29.605  45.097  56.119  1.00  0.00     0.034 A 
HETATM   27  C   UNL     1      30.066  45.319  57.420  1.00  0.00     0.129 A 
HETATM   28  F   UNL     1      29.525  46.278  58.184  1.00  0.00    -0.205 F 
HETATM   29  C   UNL     1      31.090  44.548  57.970  1.00  0.00     0.043 A 
HETATM   30  C   UNL     1      31.670  43.528  57.218  1.00  0.00     0.003 A 
HETATM   31  C   UNL     1      31.223  43.286  55.920  1.00  0.00     0.001 A 
HETATM   32  C   UNL     1      30.197  44.063  55.376  1.00  0.00     0.017 A 
ENDBRANCH  21  26
ENDBRANCH  19  20
ENDBRANCH   1  19
TORSDOF 5
ENDMDL
MODEL 4
REMARK VINA RESULT:      -9.5      4.298      7.554
REMARK  5 active torsions:
REMARK  status: ('A' for Active; 'I' for Inactive)
REMARK    1  A    between atoms: C_8  and  N_9 
REMARK    2  A    between atoms: C_12  and  N_13 
REMARK    3  A    between atoms: N_13  and  C_15 
REMARK    4  A    between atoms: C_15  and  C_16 
REMARK    5  A    between atoms: C_17  and  C_18 
ROOT
HETATM    1  N   UNL     1      27.076  44.289  50.438  1.00  0.00    -0.067 N 
HETATM    2  H   UNL     1      27.408  45.054  49.838  1.00  0.00     0.280 HD
HETATM    3  C   UNL     1      26.575  43.201  49.511  1.00  0.00     0.270 C 
ENDROOT
BRANCH   1   4
HETATM    4  C   UNL     1      26.029  44.829  51.433  1.00  0.00     0.190 C 
HETATM    5  C   UNL     1      26.166  46.351  51.607  1.00  0.00     0.048 C 
HETATM    6  C   UNL     1      25.583  47.149  50.440  1.00  0.00     0.099 C 
HETATM    7  N   UNL     1      24.195  46.727  50.212  1.00  0.00    -0.268 NA
HETATM    8  C   UNL     1      24.033  45.303  49.901  1.00  0.00     0.099 C 
HETATM    9  C   UNL     1      24.577  44.481  51.066  1.00  0.00     0.048 C 
BRANCH   7  10
HETATM   10  C   UNL     1      23.447  47.601  49.409  1.00  0.00     0.109 A 
HETATM   11  N   UNL     1      23.632  48.929  49.519  1.00  0.00    -0.224 NA
HETATM   12  C   UNL     1      22.844  49.750  48.781  1.00  0.00     0.102 A 
HETATM   13  N   UNL     1      21.887  49.304  47.956  1.00  0.00    -0.348 N 
HETATM   14  C   UNL     1      23.025  51.228  48.935  1.00  0.00     0.091 C 
HETATM   15  C   UNL     1      21.677  47.986  47.821  1.00  0.00     0.009 A 
HETATM   16  H   UNL     1      21.314  49.974  47.444  1.00  0.00     0.167 HD
HETATM   17  C   UNL     1      20.593  47.511  46.910  1.00  0.00     0.068 C 
HETATM   18  C   UNL     1      22.465  47.100  48.560  1.00  0.00     0.069 A 
ENDBRANCH   7  10
ENDBRANCH   1   4
BRANCH   1  19
HETATM   19  C   UNL     1      28.326  43.779  51.180  1.00  0.00     0.277 C 
BRANCH  19  20
HETATM   20  C   UNL     1      28.045  42.720  52.182  1.00  0.00     0.016 A 
HETATM   21  C   UNL     1      28.211  42.736  53.606  1.00  0.00     0.099 A 
HETATM   22  N   UNL     1      27.945  41.526  54.117  1.00  0.00    -0.174 NA
HETATM   23  N   UNL     1      27.478  40.799  53.099  1.00  0.00    -0.288 N 
HETATM   24  H   UNL     1      27.145  39.855  53.289  1.00  0.00     0.188 HD
HETATM   25  C   UNL     1      27.556  41.454  51.908  1.00  0.00     0.120 A 
BRANCH  21  26
HETATM   26  C   UNL     1      28.655  43.803  54.503  1.00  0.00     0.034 A 
HETATM   27  C   UNL     1      29.932  43.811  55.073  1.00  0.00     0.129 A 
HETATM   28  F   UNL     1      30.786  42.802  54.854  1.00  0.00    -0.205 F 
HETATM   29  C   UNL     1      30.362  44.867  55.876  1.00  0.00     0.043 A 
HETATM   30  C   UNL     1      29.514  45.945  56.117  1.00  0.00     0.003 A 
HETATM   31  C   UNL     1      28.239  45.961  55.554  1.00  0.00     0.001 A 
HETATM   32  C   UNL     1      27.814  44.899  54.751  1.00  0.00     0.017 A 
ENDBRANCH  21  26
ENDBRANCH  19  20
ENDBRANCH   1  19
TORSDOF 5
ENDMDL
MODEL 5
REMARK VINA RESULT:      -9.4     13.908     15.793
REMARK  5 active torsions:
REMARK  status: ('A' for Active; 'I' for Inactive)
REMARK    1  A    between atoms: C_8  and  N_9 
REMARK    2  A    between atoms: C_12  and  N_13 
REMARK    3  A    between atoms: N_13  and  C_15 
REMARK    4  A    between atoms: C_15  and  C_16 
REMARK    5  A    between atoms: C_17  and  C_18 
ROOT
HETATM    1  N   UNL     1      30.630  51.705  41.280  1.00  0.00    -0.067 N 
HETATM    2  H   UNL     1      30.231  50.781  41.483  1.00  0.00     0.280 HD
HETATM    3  C   UNL     1      31.112  52.266  42.601  1.00  0.00     0.270 C 
ENDROOT
BRANCH   1   4
HETATM    4  C   UNL     1      29.582  52.569  40.550  1.00  0.00     0.190 C 
HETATM    5  C   UNL     1      29.520  52.217  39.054  1.00  0.00     0.048 C 
HETATM    6  C   UNL     1      28.762  50.920  38.769  1.00  0.00     0.099 C 
HETATM    7  N   UNL     1      27.433  50.990  39.390  1.00  0.00    -0.268 NA
HETATM    8  C   UNL     1      27.449  51.183  40.843  1.00  0.00     0.099 C 
HETATM    9  C   UNL     1      28.171  52.491  41.157  1.00  0.00     0.048 C 
BRANCH   7  10
HETATM   10  C   UNL     1      26.525  50.025  38.928  1.00  0.00     0.109 A 
HETATM   11  N   UNL     1      25.692  49.425  39.798  1.00  0.00    -0.224 NA
HETATM   12  C   UNL     1      24.875  48.446  39.333  1.00  0.00     0.102 A 
HETATM   13  N   UNL     1      24.864  48.044  38.056  1.00  0.00    -0.348 N 
HETATM   14  C   UNL     1      23.979  47.753  40.311  1.00  0.00     0.091 C 
HETATM   15  C   UNL     1      25.680  48.623  37.162  1.00  0.00     0.009 A 
HETATM   16  H   UNL     1      24.241  47.289  37.774  1.00  0.00     0.167 HD
HETATM   17  C   UNL     1      25.663  48.147  35.746  1.00  0.00     0.068 C 
HETATM   18  C   UNL     1      26.539  49.637  37.592  1.00  0.00     0.069 A 
ENDBRANCH   7  10
ENDBRANCH   1   4
BRANCH   1  19
HETATM   19  C   UNL     1      31.846  51.436  40.374  1.00  0.00     0.277 C 
BRANCH  19  20
HETATM   20  C   UNL     1      32.610  50.215  40.733  1.00  0.00     0.016 A 
HETATM   21  C   UNL     1      32.201  48.842  40.730  1.00  0.00     0.099 A 
HETATM   22  N   UNL     1      33.171  48.068  41.237  1.00  0.00    -0.174 NA
HETATM   23  N   UNL     1      34.219  48.874  41.418  1.00  0.00    -0.288 N 
HETATM   24  H   UNL     1      35.097  48.467  41.735  1.00  0.00     0.188 HD
HETATM   25  C   UNL     1      33.924  50.181  41.170  1.00  0.00     0.120 A 
BRANCH  21  26
HETATM   26  C   UNL     1      30.938  48.223  40.329  1.00  0.00     0.034 A 
HETATM   27  C   UNL     1      29.854  48.111  41.206  1.00  0.00     0.129 A 
HETATM   28  F   UNL     1      29.955  48.527  42.476  1.00  0.00    -0.205 F 
HETATM   29  C   UNL     1      28.635  47.576  40.790  1.00  0.00     0.043 A 
HETATM   30  C   UNL     1      28.479  47.147  39.474  1.00  0.00     0.003 A 
HETATM   31  C   UNL     1      29.544  47.255  38.581  1.00  0.00     0.001 A 
HETATM   32  C   UNL     1      30.763  47.791  39.005  1.00  0.00     0.017 A 
ENDBRANCH  21  26
ENDBRANCH  19  20
ENDBRANCH   1  19
TORSDOF 5
ENDMDL
MODEL 6
REMARK VINA RESULT:      -9.4     13.503     16.078
REMARK  5 active torsions:
REMARK  status: ('A' for Active; 'I' for Inactive)
REMARK    1  A    between atoms: C_8  and  N_9 
REMARK    2  A    between atoms: C_12  and  N_13 
REMARK    3  A    between atoms: N_13  and  C_15 
REMARK    4  A    between atoms: C_15  and  C_16 
REMARK    5  A    between atoms: C_17  and  C_18 
ROOT
HETATM    1  N   UNL     1      29.351  48.052  39.631  1.00  0.00    -0.067 N 
HETATM    2  H   UNL     1      29.160  48.923  40.140  1.00  0.00     0.280 HD
HETATM    3  C   UNL     1      28.879  46.922  40.521  1.00  0.00     0.270 C 
ENDROOT
BRANCH   1   4
HETATM    4  C   UNL     1      30.842  47.997  39.244  1.00  0.00     0.190 C 
HETATM    5  C   UNL     1      31.362  49.388  38.843  1.00  0.00     0.048 C 
HETATM    6  C   UNL     1      31.627  50.303  40.039  1.00  0.00     0.099 C 
HETATM    7  N   UNL     1      32.516  49.617  40.985  1.00  0.00    -0.268 NA
HETATM    8  C   UNL     1      31.993  48.349  41.504  1.00  0.00     0.099 C 
HETATM    9  C   UNL     1      31.751  47.401  40.332  1.00  0.00     0.048 C 
BRANCH   7  10
HETATM   10  C   UNL     1      33.103  50.456  41.944  1.00  0.00     0.109 A 
HETATM   11  N   UNL     1      34.417  50.732  41.872  1.00  0.00    -0.224 NA
HETATM   12  C   UNL     1      34.969  51.489  42.854  1.00  0.00     0.102 A 
HETATM   13  N   UNL     1      34.271  51.965  43.894  1.00  0.00    -0.348 N 
HETATM   14  C   UNL     1      36.439  51.761  42.792  1.00  0.00     0.091 C 
HETATM   15  C   UNL     1      32.959  51.710  43.995  1.00  0.00     0.009 A 
HETATM   16  H   UNL     1      34.749  52.510  44.610  1.00  0.00     0.167 HD
HETATM   17  C   UNL     1      32.204  52.236  45.172  1.00  0.00     0.068 C 
HETATM   18  C   UNL     1      32.345  50.936  43.007  1.00  0.00     0.069 A 
ENDBRANCH   7  10
ENDBRANCH   1   4
BRANCH   1  19
HETATM   19  C   UNL     1      28.460  48.108  38.376  1.00  0.00     0.277 C 
BRANCH  19  20
HETATM   20  C   UNL     1      27.113  48.685  38.615  1.00  0.00     0.016 A 
HETATM   21  C   UNL     1      26.741  49.974  39.118  1.00  0.00     0.099 A 
HETATM   22  N   UNL     1      25.413  50.042  39.286  1.00  0.00    -0.174 NA
HETATM   23  N   UNL     1      24.927  48.909  38.772  1.00  0.00    -0.288 N 
HETATM   24  H   UNL     1      23.916  48.787  38.735  1.00  0.00     0.188 HD
HETATM   25  C   UNL     1      25.906  48.042  38.393  1.00  0.00     0.120 A 
BRANCH  21  26
HETATM   26  C   UNL     1      27.563  51.123  39.498  1.00  0.00     0.034 A 
HETATM   27  C   UNL     1      27.858  51.416  40.833  1.00  0.00     0.129 A 
HETATM   28  F   UNL     1      27.350  50.673  41.825  1.00  0.00    -0.205 F 
HETATM   29  C   UNL     1      28.694  52.478  41.176  1.00  0.00     0.043 A 
HETATM   30  C   UNL     1      29.259  53.266  40.176  1.00  0.00     0.003 A 
HETATM   31  C   UNL     1      28.983  52.990  38.838  1.00  0.00     0.001 A 
HETATM   32  C   UNL     1      28.143  51.924  38.502  1.00  0.00     0.017 A 
ENDBRANCH  21  26
ENDBRANCH  19  20
ENDBRANCH   1  19
TORSDOF 5
ENDMDL
MODEL 7
REMARK VINA RESULT:      -9.2     13.594     15.907
REMARK  5 active torsions:
REMARK  status: ('A' for Active; 'I' for Inactive)
REMARK    1  A    between atoms: C_8  and  N_9 
REMARK    2  A    between atoms: C_12  and  N_13 
REMARK    3  A    between atoms: N_13  and  C_15 
REMARK    4  A    between atoms: C_15  and  C_16 
REMARK    5  A    between atoms: C_17  and  C_18 
ROOT
HETATM    1  N   UNL     1      27.725  51.603  39.269  1.00  0.00    -0.067 N 
HETATM    2  H   UNL     1      26.811  51.901  38.910  1.00  0.00     0.280 HD
HETATM    3  C   UNL     1      27.592  51.526  40.776  1.00  0.00     0.270 C 
ENDROOT
BRANCH   1   4
HETATM    4  C   UNL     1      28.818  52.564  38.761  1.00  0.00     0.190 C 
HETATM    5  C   UNL     1      29.316  53.481  39.891  1.00  0.00     0.048 C 
HETATM    6  C   UNL     1      30.272  52.783  40.859  1.00  0.00     0.099 C 
HETATM    7  N   UNL     1      31.370  52.172  40.099  1.00  0.00    -0.268 NA
HETATM    8  C   UNL     1      30.946  51.182  39.104  1.00  0.00     0.099 C 
HETATM    9  C   UNL     1      30.016  51.861  38.102  1.00  0.00     0.048 C 
BRANCH   7  10
HETATM   10  C   UNL     1      32.477  51.799  40.876  1.00  0.00     0.109 A 
HETATM   11  N   UNL     1      32.450  51.990  42.208  1.00  0.00    -0.224 NA
HETATM   12  C   UNL     1      33.563  51.685  42.923  1.00  0.00     0.102 A 
HETATM   13  N   UNL     1      34.685  51.212  42.367  1.00  0.00    -0.348 N 
HETATM   14  C   UNL     1      33.543  51.936  44.398  1.00  0.00     0.091 C 
HETATM   15  C   UNL     1      34.745  51.008  41.043  1.00  0.00     0.009 A 
HETATM   16  H   UNL     1      35.495  51.021  42.956  1.00  0.00     0.167 HD
HETATM   17  C   UNL     1      36.014  50.496  40.442  1.00  0.00     0.068 C 
HETATM   18  C   UNL     1      33.625  51.306  40.264  1.00  0.00     0.069 A 
ENDBRANCH   7  10
ENDBRANCH   1   4
BRANCH   1  19
HETATM   19  C   UNL     1      27.941  50.183  38.712  1.00  0.00     0.277 C 
BRANCH  19  20
HETATM   20  C   UNL     1      27.388  49.105  39.569  1.00  0.00     0.016 A 
HETATM   21  C   UNL     1      28.049  48.249  40.509  1.00  0.00     0.099 A 
HETATM   22  N   UNL     1      27.194  47.334  40.985  1.00  0.00    -0.174 NA
HETATM   23  N   UNL     1      25.997  47.672  40.500  1.00  0.00    -0.288 N 
HETATM   24  H   UNL     1      25.182  47.140  40.801  1.00  0.00     0.188 HD
HETATM   25  C   UNL     1      26.063  48.703  39.612  1.00  0.00     0.120 A 
BRANCH  21  26
HETATM   26  C   UNL     1      29.446  48.206  40.943  1.00  0.00     0.034 A 
HETATM   27  C   UNL     1      30.466  47.725  40.118  1.00  0.00     0.129 A 
HETATM   28  F   UNL     1      30.189  47.231  38.904  1.00  0.00    -0.205 F 
HETATM   29  C   UNL     1      31.801  47.749  40.523  1.00  0.00     0.043 A 
HETATM   30  C   UNL     1      32.137  48.270  41.771  1.00  0.00     0.003 A 
HETATM   31  C   UNL     1      31.137  48.761  42.608  1.00  0.00     0.001 A 
HETATM   32  C   UNL     1      29.801  48.732  42.196  1.00  0.00     0.017 A 
ENDBRANCH  21  26
ENDBRANCH  19  20
ENDBRANCH   1  19
TORSDOF 5
ENDMDL
MODEL 8
REMARK VINA RESULT:      -8.8      4.149      7.901
REMARK  5 active torsions:
REMARK  status: ('A' for Active; 'I' for Inactive)
REMARK    1  A    between atoms: C_8  and  N_9 
REMARK    2  A    between atoms: C_12  and  N_13 
REMARK    3  A    between atoms: N_13  and  C_15 
REMARK    4  A    between atoms: C_15  and  C_16 
REMARK    5  A    between atoms: C_17  and  C_18 
ROOT
HETATM    1  N   UNL     1      26.126  43.542  50.936  1.00  0.00    -0.067 N 
HETATM    2  H   UNL     1      26.850  43.699  51.647  1.00  0.00     0.280 HD
HETATM    3  C   UNL     1      26.660  44.122  49.643  1.00  0.00     0.270 C 
ENDROOT
BRANCH   1   4
HETATM    4  C   UNL     1      24.792  44.146  51.417  1.00  0.00     0.190 C 
HETATM    5  C   UNL     1      25.020  45.477  52.154  1.00  0.00     0.048 C 
HETATM    6  C   UNL     1      25.301  46.649  51.212  1.00  0.00     0.099 C 
HETATM    7  N   UNL     1      24.230  46.732  50.211  1.00  0.00    -0.268 NA
HETATM    8  C   UNL     1      24.071  45.530  49.387  1.00  0.00     0.099 C 
HETATM    9  C   UNL     1      23.755  44.348  50.299  1.00  0.00     0.048 C 
BRANCH   7  10
HETATM   10  C   UNL     1      24.184  47.946  49.508  1.00  0.00     0.109 A 
HETATM   11  N   UNL     1      25.331  48.537  49.128  1.00  0.00    -0.224 NA
HETATM   12  C   UNL     1      25.258  49.745  48.513  1.00  0.00     0.102 A 
HETATM   13  N   UNL     1      24.101  50.378  48.275  1.00  0.00    -0.348 N 
HETATM   14  C   UNL     1      26.537  50.419  48.128  1.00  0.00     0.091 C 
HETATM   15  C   UNL     1      22.940  49.815  48.639  1.00  0.00     0.009 A 
HETATM   16  H   UNL     1      24.115  51.293  47.827  1.00  0.00     0.167 HD
HETATM   17  C   UNL     1      21.664  50.547  48.380  1.00  0.00     0.068 C 
HETATM   18  C   UNL     1      22.964  48.572  49.274  1.00  0.00     0.069 A 
ENDBRANCH   7  10
ENDBRANCH   1   4
BRANCH   1  19
HETATM   19  C   UNL     1      26.016  42.013  50.793  1.00  0.00     0.277 C 
BRANCH  19  20
HETATM   20  C   UNL     1      27.200  41.271  51.296  1.00  0.00     0.016 A 
HETATM   21  C   UNL     1      28.077  41.572  52.389  1.00  0.00     0.099 A 
HETATM   22  N   UNL     1      29.091  40.696  52.426  1.00  0.00    -0.174 NA
HETATM   23  N   UNL     1      28.806  39.777  51.500  1.00  0.00    -0.288 N 
HETATM   24  H   UNL     1      29.422  38.971  51.411  1.00  0.00     0.188 HD
HETATM   25  C   UNL     1      27.705  40.095  50.766  1.00  0.00     0.120 A 
BRANCH  21  26
HETATM   26  C   UNL     1      28.047  42.663  53.364  1.00  0.00     0.034 A 
HETATM   27  C   UNL     1      29.064  43.619  53.440  1.00  0.00     0.129 A 
HETATM   28  F   UNL     1      30.140  43.539  52.646  1.00  0.00    -0.205 F 
HETATM   29  C   UNL     1      28.990  44.689  54.332  1.00  0.00     0.043 A 
HETATM   30  C   UNL     1      27.881  44.821  55.165  1.00  0.00     0.003 A 
HETATM   31  C   UNL     1      26.853  43.883  55.102  1.00  0.00     0.001 A 
HETATM   32  C   UNL     1      26.934  42.813  54.206  1.00  0.00     0.017 A 
ENDBRANCH  21  26
ENDBRANCH  19  20
ENDBRANCH   1  19
TORSDOF 5
ENDMDL
MODEL 9
REMARK VINA RESULT:      -8.5     13.387     15.582
REMARK  5 active torsions:
REMARK  status: ('A' for Active; 'I' for Inactive)
REMARK    1  A    between atoms: C_8  and  N_9 
REMARK    2  A    between atoms: C_12  and  N_13 
REMARK    3  A    between atoms: N_13  and  C_15 
REMARK    4  A    between atoms: C_15  and  C_16 
REMARK    5  A    between atoms: C_17  and  C_18 
ROOT
HETATM    1  N   UNL     1      27.802  48.020  39.362  1.00  0.00    -0.067 N 
HETATM    2  H   UNL     1      27.002  48.403  39.880  1.00  0.00     0.280 HD
HETATM    3  C   UNL     1      27.239  47.378  38.112  1.00  0.00     0.270 C 
ENDROOT
BRANCH   1   4
HETATM    4  C   UNL     1      28.603  47.071  40.276  1.00  0.00     0.190 C 
HETATM    5  C   UNL     1      30.040  46.889  39.760  1.00  0.00     0.048 C 
HETATM    6  C   UNL     1      30.950  48.079  40.069  1.00  0.00     0.099 C 
HETATM    7  N   UNL     1      30.896  48.367  41.508  1.00  0.00    -0.268 NA
HETATM    8  C   UNL     1      29.559  48.688  42.016  1.00  0.00     0.099 C 
HETATM    9  C   UNL     1      28.636  47.501  41.752  1.00  0.00     0.048 C 
BRANCH   7  10
HETATM   10  C   UNL     1      31.925  49.202  41.972  1.00  0.00     0.109 A 
HETATM   11  N   UNL     1      31.692  50.034  43.003  1.00  0.00    -0.224 NA
HETATM   12  C   UNL     1      32.684  50.880  43.382  1.00  0.00     0.102 A 
HETATM   13  N   UNL     1      33.877  50.930  42.776  1.00  0.00    -0.348 N 
HETATM   14  C   UNL     1      32.408  51.832  44.503  1.00  0.00     0.091 C 
HETATM   15  C   UNL     1      34.143  50.112  41.747  1.00  0.00     0.009 A 
HETATM   16  H   UNL     1      34.573  51.602  43.095  1.00  0.00     0.167 HD
HETATM   17  C   UNL     1      35.474  50.197  41.074  1.00  0.00     0.068 C 
HETATM   18  C   UNL     1      33.154  49.223  41.320  1.00  0.00     0.069 A 
ENDBRANCH   7  10
ENDBRANCH   1   4
BRANCH   1  19
HETATM   19  C   UNL     1      28.652  49.241  38.960  1.00  0.00     0.277 C 
BRANCH  19  20
HETATM   20  C   UNL     1      28.300  50.488  39.685  1.00  0.00     0.016 A 
HETATM   21  C   UNL     1      29.111  51.626  40.003  1.00  0.00     0.099 A 
HETATM   22  N   UNL     1      28.426  52.484  40.772  1.00  0.00    -0.174 NA
HETATM   23  N   UNL     1      27.181  52.006  40.824  1.00  0.00    -0.288 N 
HETATM   24  H   UNL     1      26.470  52.553  41.308  1.00  0.00     0.188 HD
HETATM   25  C   UNL     1      27.060  50.790  40.224  1.00  0.00     0.120 A 
BRANCH  21  26
HETATM   26  C   UNL     1      30.504  51.927  39.673  1.00  0.00     0.034 A 
HETATM   27  C   UNL     1      31.304  52.733  40.488  1.00  0.00     0.129 A 
HETATM   28  F   UNL     1      30.800  53.306  41.589  1.00  0.00    -0.205 F 
HETATM   29  C   UNL     1      32.648  52.960  40.193  1.00  0.00     0.043 A 
HETATM   30  C   UNL     1      33.219  52.369  39.067  1.00  0.00     0.003 A 
HETATM   31  C   UNL     1      32.442  51.557  38.243  1.00  0.00     0.001 A 
HETATM   32  C   UNL     1      31.095  51.336  38.545  1.00  0.00     0.017 A 
ENDBRANCH  21  26
ENDBRANCH  19  20
ENDBRANCH   1  19
TORSDOF 5
ENDMDL
MODEL 10
REMARK VINA RESULT:      -8.3     13.923     16.383
REMARK  5 active torsions:
REMARK  status: ('A' for Active; 'I' for Inactive)
REMARK    1  A    between atoms: C_8  and  N_9 
REMARK    2  A    between atoms: C_12  and  N_13 
REMARK    3  A    between atoms: N_13  and  C_15 
REMARK    4  A    between atoms: C_15  and  C_16 
REMARK    5  A    between atoms: C_17  and  C_18 
ROOT
HETATM    1  N   UNL     1      31.344  48.985  41.529  1.00  0.00    -0.067 N 
HETATM    2  H   UNL     1      31.999  48.685  42.262  1.00  0.00     0.280 HD
HETATM    3  C   UNL     1      31.624  48.117  40.321  1.00  0.00     0.270 C 
ENDROOT
BRANCH   1   4
HETATM    4  C   UNL     1      31.495  50.501  41.291  1.00  0.00     0.190 C 
HETATM    5  C   UNL     1      31.745  51.246  42.612  1.00  0.00     0.048 C 
HETATM    6  C   UNL     1      33.178  51.106  43.125  1.00  0.00     0.099 C 
HETATM    7  N   UNL     1      34.113  51.505  42.065  1.00  0.00    -0.268 NA
HETATM    8  C   UNL     1      34.004  50.720  40.830  1.00  0.00     0.099 C 
HETATM    9  C   UNL     1      32.590  50.870  40.276  1.00  0.00     0.048 C 
BRANCH   7  10
HETATM   10  C   UNL     1      35.423  51.744  42.505  1.00  0.00     0.109 A 
HETATM   11  N   UNL     1      35.634  52.568  43.547  1.00  0.00    -0.224 NA
HETATM   12  C   UNL     1      36.916  52.836  43.904  1.00  0.00     0.102 A 
HETATM   13  N   UNL     1      37.978  52.328  43.265  1.00  0.00    -0.348 N 
HETATM   14  C   UNL     1      37.149  53.784  45.038  1.00  0.00     0.091 C 
HETATM   15  C   UNL     1      37.802  51.501  42.223  1.00  0.00     0.009 A 
HETATM   16  H   UNL     1      38.916  52.584  43.569  1.00  0.00     0.167 HD
HETATM   17  C   UNL     1      39.000  50.960  41.514  1.00  0.00     0.068 C 
HETATM   18  C   UNL     1      36.501  51.195  41.819  1.00  0.00     0.069 A 
ENDBRANCH   7  10
ENDBRANCH   1   4
BRANCH   1  19
HETATM   19  C   UNL     1      29.942  48.652  42.072  1.00  0.00     0.277 C 
BRANCH  19  20
HETATM   20  C   UNL     1      28.960  48.278  41.023  1.00  0.00     0.016 A 
HETATM   21  C   UNL     1      28.358  49.081  40.000  1.00  0.00     0.099 A 
HETATM   22  N   UNL     1      27.435  48.371  39.336  1.00  0.00    -0.174 NA
HETATM   23  N   UNL     1      27.540  47.123  39.797  1.00  0.00    -0.288 N 
HETATM   24  H   UNL     1      26.968  46.397  39.369  1.00  0.00     0.188 HD
HETATM   25  C   UNL     1      28.410  47.020  40.839  1.00  0.00     0.120 A 
BRANCH  21  26
HETATM   26  C   UNL     1      28.560  50.486  39.648  1.00  0.00     0.034 A 
HETATM   27  C   UNL     1      28.220  51.527  40.517  1.00  0.00     0.129 A 
HETATM   28  F   UNL     1      27.643  51.271  41.699  1.00  0.00    -0.205 F 
HETATM   29  C   UNL     1      28.476  52.859  40.192  1.00  0.00     0.043 A 
HETATM   30  C   UNL     1      29.091  53.171  38.982  1.00  0.00     0.003 A 
HETATM   31  C   UNL     1      29.444  52.149  38.102  1.00  0.00     0.001 A 
HETATM   32  C   UNL     1      29.183  50.817  38.434  1.00  0.00     0.017 A 
ENDBRANCH  21  26
ENDBRANCH  19  20
ENDBRANCH   1  19
TORSDOF 5
ENDMDL
