MODEL 1
REMARK VINA RESULT:      -7.9      0.000      0.000
REMARK  5 active torsions:
REMARK  status: ('A' for Active; 'I' for Inactive)
REMARK    1  A    between atoms: S_2  and  C_3 
REMARK    2  A    between atoms: C_3  and  C_4 
REMARK    3  A    between atoms: C_7  and  C_8 
REMARK       I    between atoms: C_8  and  N_9 
REMARK    4  A    between atoms: N_9  and  C_10 
REMARK    5  A    between atoms: C_12  and  C_13 
ROOT
HETATM    1  C   UNL     1      26.038  44.733  52.552  1.00  0.00     0.256 C 
HETATM    2  N   UNL     1      27.406  44.938  52.493  1.00  0.00    -0.323 N 
HETATM    3  O   UNL     1      25.444  44.069  53.395  1.00  0.00    -0.267 OA
HETATM    4  H   UNL     1      27.762  45.536  51.763  1.00  0.00     0.169 HD
ENDROOT
BRANCH   2   5
HETATM    5  C   UNL     1      28.395  44.328  53.297  1.00  0.00     0.035 A 
HETATM    6  C   UNL     1      28.879  44.876  54.490  1.00  0.00     0.042 A 
HETATM    7  C   UNL     1      29.814  44.189  55.283  1.00  0.00    -0.021 A 
HETATM    8  C   UNL     1      30.283  42.944  54.843  1.00  0.00     0.012 A 
HETATM    9  C   UNL     1      29.819  42.395  53.647  1.00  0.00     0.003 A 
HETATM   10  C   UNL     1      28.873  43.080  52.884  1.00  0.00     0.029 A 
BRANCH   7  11
HETATM   11  C   UNL     1      30.246  44.756  56.553  1.00  0.00     0.010 A 
HETATM   12  C   UNL     1      29.852  45.946  57.214  1.00  0.00     0.152 A 
HETATM   13  N   UNL     1      30.470  46.120  58.386  1.00  0.00    -0.187 NA
HETATM   14  N   UNL     1      31.272  45.050  58.477  1.00  0.00    -0.289 N 
HETATM   15  H   UNL     1      31.860  44.960  59.299  1.00  0.00     0.188 HD
HETATM   16  C   UNL     1      31.176  44.203  57.411  1.00  0.00     0.123 A 
ENDBRANCH   7  11
ENDBRANCH   2   5
BRANCH   1  17
HETATM   17  C   UNL     1      25.230  45.351  51.454  1.00  0.00     0.032 A 
HETATM   18  C   UNL     1      24.369  44.625  50.623  1.00  0.00     0.017 A 
HETATM   19  C   UNL     1      23.588  45.287  49.669  1.00  0.00     0.009 A 
HETATM   20  C   UNL     1      23.667  46.680  49.517  1.00  0.00    -0.049 A 
HETATM   21  C   UNL     1      24.565  47.396  50.318  1.00  0.00     0.009 A 
HETATM   22  C   UNL     1      25.338  46.738  51.276  1.00  0.00     0.017 A 
BRANCH  20  23
HETATM   23  C   UNL     1      22.786  47.400  48.528  1.00  0.00     0.112 C 
BRANCH  23  24
HETATM   24  S   UNL     1      22.349  49.089  49.053  1.00  0.00    -0.169 SA
HETATM   25  C   UNL     1      23.339  50.041  47.873  1.00  0.00     0.090 C 
ENDBRANCH  23  24
ENDBRANCH  20  23
ENDBRANCH   1  17
TORSDOF 5
ENDMDL
MODEL 2
REMARK VINA RESULT:      -7.9      5.101      7.918
REMARK  5 active torsions:
REMARK  status: ('A' for Active; 'I' for Inactive)
REMARK    1  A    between atoms: S_2  and  C_3 
REMARK    2  A    between atoms: C_3  and  C_4 
REMARK    3  A    between atoms: C_7  and  C_8 
REMARK       I    between atoms: C_8  and  N_9 
REMARK    4  A    between atoms: N_9  and  C_10 
REMARK    5  A    between atoms: C_12  and  C_13 
ROOT
HETATM    1  C   UNL     1      22.403  50.643  49.079  1.00  0.00     0.256 C 
HETATM    2  N   UNL     1      23.327  50.011  48.264  1.00  0.00    -0.323 N 
HETATM    3  O   UNL     1      22.583  50.986  50.242  1.00  0.00    -0.267 OA
HETATM    4  H   UNL     1      23.058  49.814  47.311  1.00  0.00     0.169 HD
ENDROOT
BRANCH   2   5
HETATM    5  C   UNL     1      24.598  49.519  48.638  1.00  0.00     0.035 A 
HETATM    6  C   UNL     1      24.797  48.337  49.359  1.00  0.00     0.042 A 
HETATM    7  C   UNL     1      26.090  47.863  49.641  1.00  0.00    -0.021 A 
HETATM    8  C   UNL     1      27.190  48.615  49.211  1.00  0.00     0.012 A 
HETATM    9  C   UNL     1      27.004  49.803  48.504  1.00  0.00     0.003 A 
HETATM   10  C   UNL     1      25.714  50.247  48.211  1.00  0.00     0.029 A 
BRANCH   7  11
HETATM   11  C   UNL     1      26.263  46.593  50.334  1.00  0.00     0.010 A 
HETATM   12  C   UNL     1      25.864  46.189  51.632  1.00  0.00     0.152 A 
HETATM   13  N   UNL     1      26.193  44.923  51.907  1.00  0.00    -0.187 NA
HETATM   14  N   UNL     1      26.816  44.514  50.793  1.00  0.00    -0.289 N 
HETATM   15  H   UNL     1      27.171  43.564  50.763  1.00  0.00     0.188 HD
HETATM   16  C   UNL     1      26.883  45.471  49.822  1.00  0.00     0.123 A 
ENDBRANCH   7  11
ENDBRANCH   2   5
BRANCH   1  17
HETATM   17  C   UNL     1      21.051  50.884  48.481  1.00  0.00     0.032 A 
HETATM   18  C   UNL     1      20.171  51.874  48.933  1.00  0.00     0.017 A 
HETATM   19  C   UNL     1      18.956  52.088  48.271  1.00  0.00     0.009 A 
HETATM   20  C   UNL     1      18.594  51.309  47.162  1.00  0.00    -0.049 A 
HETATM   21  C   UNL     1      19.457  50.288  46.744  1.00  0.00     0.009 A 
HETATM   22  C   UNL     1      20.673  50.079  47.397  1.00  0.00     0.017 A 
BRANCH  20  23
HETATM   23  C   UNL     1      17.311  51.577  46.416  1.00  0.00     0.112 C 
BRANCH  23  24
HETATM   24  S   UNL     1      15.861  51.717  47.511  1.00  0.00    -0.169 SA
HETATM   25  C   UNL     1      15.708  49.991  48.038  1.00  0.00     0.090 C 
ENDBRANCH  23  24
ENDBRANCH  20  23
ENDBRANCH   1  17
TORSDOF 5
ENDMDL
MODEL 3
REMARK VINA RESULT:      -7.7      1.820      2.553
REMARK  5 active torsions:
REMARK  status: ('A' for Active; 'I' for Inactive)
REMARK    1  A    between atoms: S_2  and  C_3 
REMARK    2  A    between atoms: C_3  and  C_4 
REMARK    3  A    between atoms: C_7  and  C_8 
REMARK       I    between atoms: C_8  and  N_9 
REMARK    4  A    between atoms: N_9  and  C_10 
REMARK    5  A    between atoms: C_12  and  C_13 
ROOT
HETATM    1  C   UNL     1      26.662  45.883  50.307  1.00  0.00     0.256 C 
HETATM    2  N   UNL     1      26.414  45.478  51.607  1.00  0.00    -0.323 N 
HETATM    3  O   UNL     1      27.462  45.370  49.532  1.00  0.00    -0.267 OA
HETATM    4  H   UNL     1      25.702  45.970  52.127  1.00  0.00     0.169 HD
ENDROOT
BRANCH   2   5
HETATM    5  C   UNL     1      27.113  44.493  52.341  1.00  0.00     0.035 A 
HETATM    6  C   UNL     1      28.070  44.781  53.320  1.00  0.00     0.042 A 
HETATM    7  C   UNL     1      28.682  43.759  54.066  1.00  0.00    -0.021 A 
HETATM    8  C   UNL     1      28.338  42.430  53.793  1.00  0.00     0.012 A 
HETATM    9  C   UNL     1      27.396  42.130  52.809  1.00  0.00     0.003 A 
HETATM   10  C   UNL     1      26.780  43.157  52.094  1.00  0.00     0.029 A 
BRANCH   7  11
HETATM   11  C   UNL     1      29.624  44.097  55.125  1.00  0.00     0.010 A 
HETATM   12  C   UNL     1      29.685  45.225  55.980  1.00  0.00     0.152 A 
HETATM   13  N   UNL     1      30.701  45.168  56.846  1.00  0.00    -0.187 NA
HETATM   14  N   UNL     1      31.304  44.010  56.543  1.00  0.00    -0.289 N 
HETATM   15  H   UNL     1      32.126  43.743  57.075  1.00  0.00     0.188 HD
HETATM   16  C   UNL     1      30.700  43.331  55.524  1.00  0.00     0.123 A 
ENDBRANCH   7  11
ENDBRANCH   2   5
BRANCH   1  17
HETATM   17  C   UNL     1      25.905  47.086  49.834  1.00  0.00     0.032 A 
HETATM   18  C   UNL     1      26.520  48.254  49.370  1.00  0.00     0.017 A 
HETATM   19  C   UNL     1      25.744  49.307  48.872  1.00  0.00     0.009 A 
HETATM   20  C   UNL     1      24.344  49.217  48.847  1.00  0.00    -0.049 A 
HETATM   21  C   UNL     1      23.732  48.066  49.357  1.00  0.00     0.009 A 
HETATM   22  C   UNL     1      24.505  47.012  49.845  1.00  0.00     0.017 A 
BRANCH  20  23
HETATM   23  C   UNL     1      23.510  50.328  48.260  1.00  0.00     0.112 C 
BRANCH  23  24
HETATM   24  S   UNL     1      21.796  49.826  47.903  1.00  0.00    -0.169 SA
HETATM   25  C   UNL     1      20.906  51.193  48.689  1.00  0.00     0.090 C 
ENDBRANCH  23  24
ENDBRANCH  20  23
ENDBRANCH   1  17
TORSDOF 5
ENDMDL
MODEL 4
REMARK VINA RESULT:      -7.7      4.076      9.494
REMARK  5 active torsions:
REMARK  status: ('A' for Active; 'I' for Inactive)
REMARK    1  A    between atoms: S_2  and  C_3 
REMARK    2  A    between atoms: C_3  and  C_4 
REMARK    3  A    between atoms: C_7  and  C_8 
REMARK       I    between atoms: C_8  and  N_9 
REMARK    4  A    between atoms: N_9  and  C_10 
REMARK    5  A    between atoms: C_12  and  C_13 
ROOT
HETATM    1  C   UNL     1      25.967  46.798  52.310  1.00  0.00     0.256 C 
HETATM    2  N   UNL     1      25.953  46.720  50.928  1.00  0.00    -0.323 N 
HETATM    3  O   UNL     1      25.322  47.586  52.994  1.00  0.00    -0.267 OA
HETATM    4  H   UNL     1      26.508  46.000  50.490  1.00  0.00     0.169 HD
ENDROOT
BRANCH   2   5
HETATM    5  C   UNL     1      25.307  47.601  50.030  1.00  0.00     0.035 A 
HETATM    6  C   UNL     1      23.935  47.573  49.760  1.00  0.00     0.042 A 
HETATM    7  C   UNL     1      23.339  48.520  48.909  1.00  0.00    -0.021 A 
HETATM    8  C   UNL     1      24.153  49.487  48.305  1.00  0.00     0.012 A 
HETATM    9  C   UNL     1      25.525  49.514  48.555  1.00  0.00     0.003 A 
HETATM   10  C   UNL     1      26.097  48.582  49.420  1.00  0.00     0.029 A 
BRANCH   7  11
HETATM   11  C   UNL     1      21.897  48.506  48.704  1.00  0.00     0.010 A 
HETATM   12  C   UNL     1      21.090  47.683  47.879  1.00  0.00     0.152 A 
HETATM   13  N   UNL     1      19.788  47.969  47.974  1.00  0.00    -0.187 NA
HETATM   14  N   UNL     1      19.754  48.983  48.849  1.00  0.00    -0.289 N 
HETATM   15  H   UNL     1      18.852  49.384  49.084  1.00  0.00     0.188 HD
HETATM   16  C   UNL     1      20.985  49.342  49.317  1.00  0.00     0.123 A 
ENDBRANCH   7  11
ENDBRANCH   2   5
BRANCH   1  17
HETATM   17  C   UNL     1      26.893  45.856  53.015  1.00  0.00     0.032 A 
HETATM   18  C   UNL     1      27.320  44.639  52.471  1.00  0.00     0.017 A 
HETATM   19  C   UNL     1      28.248  43.849  53.160  1.00  0.00     0.009 A 
HETATM   20  C   UNL     1      28.748  44.252  54.407  1.00  0.00    -0.049 A 
HETATM   21  C   UNL     1      28.281  45.446  54.969  1.00  0.00     0.009 A 
HETATM   22  C   UNL     1      27.363  46.240  54.279  1.00  0.00     0.017 A 
BRANCH  20  23
HETATM   23  C   UNL     1      29.789  43.428  55.124  1.00  0.00     0.112 C 
BRANCH  23  24
HETATM   24  S   UNL     1      30.892  44.425  56.176  1.00  0.00    -0.169 SA
HETATM   25  C   UNL     1      31.662  43.105  57.148  1.00  0.00     0.090 C 
ENDBRANCH  23  24
ENDBRANCH  20  23
ENDBRANCH   1  17
TORSDOF 5
ENDMDL
MODEL 5
REMARK VINA RESULT:      -7.4      2.906      3.914
REMARK  5 active torsions:
REMARK  status: ('A' for Active; 'I' for Inactive)
REMARK    1  A    between atoms: S_2  and  C_3 
REMARK    2  A    between atoms: C_3  and  C_4 
REMARK    3  A    between atoms: C_7  and  C_8 
REMARK       I    between atoms: C_8  and  N_9 
REMARK    4  A    between atoms: N_9  and  C_10 
REMARK    5  A    between atoms: C_12  and  C_13 
ROOT
HETATM    1  C   UNL     1      25.498  44.118  52.617  1.00  0.00     0.256 C 
HETATM    2  N   UNL     1      26.800  44.590  52.655  1.00  0.00    -0.323 N 
HETATM    3  O   UNL     1      24.657  44.253  53.499  1.00  0.00    -0.267 OA
HETATM    4  H   UNL     1      27.380  44.438  51.843  1.00  0.00     0.169 HD
ENDROOT
BRANCH   2   5
HETATM    5  C   UNL     1      27.456  45.196  53.751  1.00  0.00     0.035 A 
HETATM    6  C   UNL     1      28.444  44.566  54.514  1.00  0.00     0.042 A 
HETATM    7  C   UNL     1      29.110  45.244  55.549  1.00  0.00    -0.021 A 
HETATM    8  C   UNL     1      28.746  46.567  55.828  1.00  0.00     0.012 A 
HETATM    9  C   UNL     1      27.751  47.201  55.083  1.00  0.00     0.003 A 
HETATM   10  C   UNL     1      27.117  46.521  54.044  1.00  0.00     0.029 A 
BRANCH   7  11
HETATM   11  C   UNL     1      30.183  44.582  56.280  1.00  0.00     0.010 A 
HETATM   12  C   UNL     1      30.779  44.893  57.527  1.00  0.00     0.152 A 
HETATM   13  N   UNL     1      31.737  44.029  57.876  1.00  0.00    -0.187 NA
HETATM   14  N   UNL     1      31.769  43.168  56.849  1.00  0.00    -0.289 N 
HETATM   15  H   UNL     1      32.438  42.406  56.883  1.00  0.00     0.188 HD
HETATM   16  C   UNL     1      30.860  43.451  55.871  1.00  0.00     0.123 A 
ENDBRANCH   7  11
ENDBRANCH   2   5
BRANCH   1  17
HETATM   17  C   UNL     1      25.114  43.339  51.398  1.00  0.00     0.032 A 
HETATM   18  C   UNL     1      25.854  42.258  50.905  1.00  0.00     0.017 A 
HETATM   19  C   UNL     1      25.387  41.530  49.804  1.00  0.00     0.009 A 
HETATM   20  C   UNL     1      24.187  41.880  49.169  1.00  0.00    -0.049 A 
HETATM   21  C   UNL     1      23.475  42.992  49.635  1.00  0.00     0.009 A 
HETATM   22  C   UNL     1      23.934  43.713  50.739  1.00  0.00     0.017 A 
BRANCH  20  23
HETATM   23  C   UNL     1      23.656  41.063  48.018  1.00  0.00     0.112 C 
BRANCH  23  24
HETATM   24  S   UNL     1      23.055  42.082  46.632  1.00  0.00    -0.169 SA
HETATM   25  C   UNL     1      21.555  41.162  46.204  1.00  0.00     0.090 C 
ENDBRANCH  23  24
ENDBRANCH  20  23
ENDBRANCH   1  17
TORSDOF 5
ENDMDL
MODEL 6
REMARK VINA RESULT:      -7.3      5.056      6.897
REMARK  5 active torsions:
REMARK  status: ('A' for Active; 'I' for Inactive)
REMARK    1  A    between atoms: S_2  and  C_3 
REMARK    2  A    between atoms: C_3  and  C_4 
REMARK    3  A    between atoms: C_7  and  C_8 
REMARK       I    between atoms: C_8  and  N_9 
REMARK    4  A    between atoms: N_9  and  C_10 
REMARK    5  A    between atoms: C_12  and  C_13 
ROOT
HETATM    1  C   UNL     1      28.028  41.121  51.323  1.00  0.00     0.256 C 
HETATM    2  N   UNL     1      29.098  41.957  51.595  1.00  0.00    -0.323 N 
HETATM    3  O   UNL     1      26.985  41.054  51.964  1.00  0.00    -0.267 OA
HETATM    4  H   UNL     1      29.886  41.936  50.965  1.00  0.00     0.169 HD
ENDROOT
BRANCH   2   5
HETATM    5  C   UNL     1      29.262  42.793  52.724  1.00  0.00     0.035 A 
HETATM    6  C   UNL     1      28.434  43.882  53.015  1.00  0.00     0.042 A 
HETATM    7  C   UNL     1      28.604  44.635  54.190  1.00  0.00    -0.021 A 
HETATM    8  C   UNL     1      29.646  44.293  55.062  1.00  0.00     0.012 A 
HETATM    9  C   UNL     1      30.487  43.218  54.774  1.00  0.00     0.003 A 
HETATM   10  C   UNL     1      30.289  42.467  53.615  1.00  0.00     0.029 A 
BRANCH   7  11
HETATM   11  C   UNL     1      27.682  45.720  54.498  1.00  0.00     0.010 A 
HETATM   12  C   UNL     1      26.346  45.941  54.081  1.00  0.00     0.152 A 
HETATM   13  N   UNL     1      25.819  47.057  54.593  1.00  0.00    -0.187 NA
HETATM   14  N   UNL     1      26.818  47.564  55.330  1.00  0.00    -0.289 N 
HETATM   15  H   UNL     1      26.656  48.435  55.824  1.00  0.00     0.188 HD
HETATM   16  C   UNL     1      27.951  46.804  55.309  1.00  0.00     0.123 A 
ENDBRANCH   7  11
ENDBRANCH   2   5
BRANCH   1  17
HETATM   17  C   UNL     1      28.195  40.193  50.160  1.00  0.00     0.032 A 
HETATM   18  C   UNL     1      27.799  40.507  48.855  1.00  0.00     0.017 A 
HETATM   19  C   UNL     1      28.060  39.616  47.808  1.00  0.00     0.009 A 
HETATM   20  C   UNL     1      28.703  38.393  48.049  1.00  0.00    -0.049 A 
HETATM   21  C   UNL     1      29.054  38.062  49.363  1.00  0.00     0.009 A 
HETATM   22  C   UNL     1      28.803  38.953  50.408  1.00  0.00     0.017 A 
BRANCH  20  23
HETATM   23  C   UNL     1      29.034  37.458  46.913  1.00  0.00     0.112 C 
BRANCH  23  24
HETATM   24  S   UNL     1      28.233  37.925  45.344  1.00  0.00    -0.169 SA
HETATM   25  C   UNL     1      26.704  36.963  45.484  1.00  0.00     0.090 C 
ENDBRANCH  23  24
ENDBRANCH  20  23
ENDBRANCH   1  17
TORSDOF 5
ENDMDL
MODEL 7
REMARK VINA RESULT:      -7.3      3.782      8.811
REMARK  5 active torsions:
REMARK  status: ('A' for Active; 'I' for Inactive)
REMARK    1  A    between atoms: S_2  and  C_3 
REMARK    2  A    between atoms: C_3  and  C_4 
REMARK    3  A    between atoms: C_7  and  C_8 
REMARK       I    between atoms: C_8  and  N_9 
REMARK    4  A    between atoms: N_9  and  C_10 
REMARK    5  A    between atoms: C_12  and  C_13 
ROOT
HETATM    1  C   UNL     1      26.066  44.537  52.974  1.00  0.00     0.256 C 
HETATM    2  N   UNL     1      26.193  45.106  51.718  1.00  0.00    -0.323 N 
HETATM    3  O   UNL     1      25.021  44.154  53.489  1.00  0.00    -0.267 OA
HETATM    4  H   UNL     1      27.120  45.347  51.401  1.00  0.00     0.169 HD
ENDROOT
BRANCH   2   5
HETATM    5  C   UNL     1      25.149  45.479  50.841  1.00  0.00     0.035 A 
HETATM    6  C   UNL     1      24.845  46.803  50.507  1.00  0.00     0.042 A 
HETATM    7  C   UNL     1      23.839  47.109  49.574  1.00  0.00    -0.021 A 
HETATM    8  C   UNL     1      23.115  46.057  48.999  1.00  0.00     0.012 A 
HETATM    9  C   UNL     1      23.399  44.734  49.336  1.00  0.00     0.003 A 
HETATM   10  C   UNL     1      24.417  44.447  50.245  1.00  0.00     0.029 A 
BRANCH   7  11
HETATM   11  C   UNL     1      23.595  48.494  49.197  1.00  0.00     0.010 A 
HETATM   12  C   UNL     1      22.399  49.254  49.198  1.00  0.00     0.152 A 
HETATM   13  N   UNL     1      22.582  50.514  48.792  1.00  0.00    -0.187 NA
HETATM   14  N   UNL     1      23.893  50.566  48.517  1.00  0.00    -0.289 N 
HETATM   15  H   UNL     1      24.278  51.440  48.178  1.00  0.00     0.188 HD
HETATM   16  C   UNL     1      24.545  49.387  48.743  1.00  0.00     0.123 A 
ENDBRANCH   7  11
ENDBRANCH   2   5
BRANCH   1  17
HETATM   17  C   UNL     1      27.323  44.425  53.779  1.00  0.00     0.032 A 
HETATM   18  C   UNL     1      28.110  43.269  53.828  1.00  0.00     0.017 A 
HETATM   19  C   UNL     1      29.314  43.268  54.542  1.00  0.00     0.009 A 
HETATM   20  C   UNL     1      29.741  44.413  55.231  1.00  0.00    -0.049 A 
HETATM   21  C   UNL     1      28.927  45.552  55.218  1.00  0.00     0.009 A 
HETATM   22  C   UNL     1      27.730  45.557  54.499  1.00  0.00     0.017 A 
BRANCH  20  23
HETATM   23  C   UNL     1      31.065  44.430  55.954  1.00  0.00     0.112 C 
BRANCH  23  24
HETATM   24  S   UNL     1      30.896  44.271  57.761  1.00  0.00    -0.169 SA
HETATM   25  C   UNL     1      30.643  46.010  58.199  1.00  0.00     0.090 C 
ENDBRANCH  23  24
ENDBRANCH  20  23
ENDBRANCH   1  17
TORSDOF 5
ENDMDL
MODEL 8
REMARK VINA RESULT:      -7.3      5.447      9.367
REMARK  5 active torsions:
REMARK  status: ('A' for Active; 'I' for Inactive)
REMARK    1  A    between atoms: S_2  and  C_3 
REMARK    2  A    between atoms: C_3  and  C_4 
REMARK    3  A    between atoms: C_7  and  C_8 
REMARK       I    between atoms: C_8  and  N_9 
REMARK    4  A    between atoms: N_9  and  C_10 
REMARK    5  A    between atoms: C_12  and  C_13 
ROOT
HETATM    1  C   UNL     1      27.926  41.644  51.612  1.00  0.00     0.256 C 
HETATM    2  N   UNL     1      28.762  40.756  50.958  1.00  0.00    -0.323 N 
HETATM    3  O   UNL     1      26.747  41.852  51.347  1.00  0.00    -0.267 OA
HETATM    4  H   UNL     1      29.706  40.657  51.302  1.00  0.00     0.169 HD
ENDROOT
BRANCH   2   5
HETATM    5  C   UNL     1      28.475  40.017  49.788  1.00  0.00     0.035 A 
HETATM    6  C   UNL     1      28.031  40.590  48.592  1.00  0.00     0.042 A 
HETATM    7  C   UNL     1      27.828  39.811  47.440  1.00  0.00    -0.021 A 
HETATM    8  C   UNL     1      28.051  38.430  47.515  1.00  0.00     0.012 A 
HETATM    9  C   UNL     1      28.479  37.845  48.706  1.00  0.00     0.003 A 
HETATM   10  C   UNL     1      28.699  38.637  49.834  1.00  0.00     0.029 A 
BRANCH   7  11
HETATM   11  C   UNL     1      27.432  40.449  46.192  1.00  0.00     0.010 A 
HETATM   12  C   UNL     1      28.205  40.850  45.074  1.00  0.00     0.152 A 
HETATM   13  N   UNL     1      27.469  41.395  44.101  1.00  0.00    -0.187 NA
HETATM   14  N   UNL     1      26.223  41.359  44.594  1.00  0.00    -0.289 N 
HETATM   15  H   UNL     1      25.471  41.731  44.024  1.00  0.00     0.188 HD
HETATM   16  C   UNL     1      26.145  40.802  45.838  1.00  0.00     0.123 A 
ENDBRANCH   7  11
ENDBRANCH   2   5
BRANCH   1  17
HETATM   17  C   UNL     1      28.546  42.446  52.714  1.00  0.00     0.032 A 
HETATM   18  C   UNL     1      27.819  43.298  53.554  1.00  0.00     0.017 A 
HETATM   19  C   UNL     1      28.459  43.955  54.611  1.00  0.00     0.009 A 
HETATM   20  C   UNL     1      29.834  43.786  54.836  1.00  0.00    -0.049 A 
HETATM   21  C   UNL     1      30.565  42.970  53.963  1.00  0.00     0.009 A 
HETATM   22  C   UNL     1      29.927  42.307  52.913  1.00  0.00     0.017 A 
BRANCH  20  23
HETATM   23  C   UNL     1      30.512  44.450  56.008  1.00  0.00     0.112 C 
BRANCH  23  24
HETATM   24  S   UNL     1      29.552  45.834  56.701  1.00  0.00    -0.169 SA
HETATM   25  C   UNL     1      30.496  46.131  58.218  1.00  0.00     0.090 C 
ENDBRANCH  23  24
ENDBRANCH  20  23
ENDBRANCH   1  17
TORSDOF 5
ENDMDL
MODEL 9
REMARK VINA RESULT:      -7.3      4.581      9.756
REMARK  5 active torsions:
REMARK  status: ('A' for Active; 'I' for Inactive)
REMARK    1  A    between atoms: S_2  and  C_3 
REMARK    2  A    between atoms: C_3  and  C_4 
REMARK    3  A    between atoms: C_7  and  C_8 
REMARK       I    between atoms: C_8  and  N_9 
REMARK    4  A    between atoms: N_9  and  C_10 
REMARK    5  A    between atoms: C_12  and  C_13 
ROOT
HETATM    1  C   UNL     1      24.286  46.360  49.600  1.00  0.00     0.256 C 
HETATM    2  N   UNL     1      24.571  47.711  49.706  1.00  0.00    -0.323 N 
HETATM    3  O   UNL     1      23.383  45.864  48.936  1.00  0.00    -0.267 OA
HETATM    4  H   UNL     1      25.368  47.983  50.262  1.00  0.00     0.169 HD
ENDROOT
BRANCH   2   5
HETATM    5  C   UNL     1      23.811  48.786  49.190  1.00  0.00     0.035 A 
HETATM    6  C   UNL     1      22.491  49.058  49.561  1.00  0.00     0.042 A 
HETATM    7  C   UNL     1      21.810  50.183  49.065  1.00  0.00    -0.021 A 
HETATM    8  C   UNL     1      22.471  51.023  48.159  1.00  0.00     0.012 A 
HETATM    9  C   UNL     1      23.783  50.752  47.769  1.00  0.00     0.003 A 
HETATM   10  C   UNL     1      24.452  49.645  48.290  1.00  0.00     0.029 A 
BRANCH   7  11
HETATM   11  C   UNL     1      20.459  50.477  49.525  1.00  0.00     0.010 A 
HETATM   12  C   UNL     1      19.517  49.662  50.201  1.00  0.00     0.152 A 
HETATM   13  N   UNL     1      18.375  50.301  50.471  1.00  0.00    -0.187 NA
HETATM   14  N   UNL     1      18.573  51.524  49.959  1.00  0.00    -0.289 N 
HETATM   15  H   UNL     1      17.825  52.204  50.038  1.00  0.00     0.188 HD
HETATM   16  C   UNL     1      19.802  51.682  49.384  1.00  0.00     0.123 A 
ENDBRANCH   7  11
ENDBRANCH   2   5
BRANCH   1  17
HETATM   17  C   UNL     1      25.145  45.439  50.409  1.00  0.00     0.032 A 
HETATM   18  C   UNL     1      26.501  45.214  50.146  1.00  0.00     0.017 A 
HETATM   19  C   UNL     1      27.256  44.397  50.996  1.00  0.00     0.009 A 
HETATM   20  C   UNL     1      26.667  43.780  52.109  1.00  0.00    -0.049 A 
HETATM   21  C   UNL     1      25.299  43.970  52.341  1.00  0.00     0.009 A 
HETATM   22  C   UNL     1      24.547  44.791  51.499  1.00  0.00     0.017 A 
BRANCH  20  23
HETATM   23  C   UNL     1      27.492  42.946  53.056  1.00  0.00     0.112 C 
BRANCH  23  24
HETATM   24  S   UNL     1      28.893  43.857  53.780  1.00  0.00    -0.169 SA
HETATM   25  C   UNL     1      30.266  42.853  53.158  1.00  0.00     0.090 C 
ENDBRANCH  23  24
ENDBRANCH  20  23
ENDBRANCH   1  17
TORSDOF 5
ENDMDL
MODEL 10
REMARK VINA RESULT:      -7.2      3.605      4.770
REMARK  5 active torsions:
REMARK  status: ('A' for Active; 'I' for Inactive)
REMARK    1  A    between atoms: S_2  and  C_3 
REMARK    2  A    between atoms: C_3  and  C_4 
REMARK    3  A    between atoms: C_7  and  C_8 
REMARK       I    between atoms: C_8  and  N_9 
REMARK    4  A    between atoms: N_9  and  C_10 
REMARK    5  A    between atoms: C_12  and  C_13 
ROOT
HETATM    1  C   UNL     1      25.737  44.029  52.480  1.00  0.00     0.256 C 
HETATM    2  N   UNL     1      27.007  44.526  52.720  1.00  0.00    -0.323 N 
HETATM    3  O   UNL     1      24.732  44.272  53.139  1.00  0.00    -0.267 OA
HETATM    4  H   UNL     1      27.742  44.272  52.078  1.00  0.00     0.169 HD
ENDROOT
BRANCH   2   5
HETATM    5  C   UNL     1      27.427  45.294  53.831  1.00  0.00     0.035 A 
HETATM    6  C   UNL     1      28.382  44.866  54.759  1.00  0.00     0.042 A 
HETATM    7  C   UNL     1      28.810  45.703  55.805  1.00  0.00    -0.021 A 
HETATM    8  C   UNL     1      28.238  46.976  55.923  1.00  0.00     0.012 A 
HETATM    9  C   UNL     1      27.273  47.407  55.012  1.00  0.00     0.003 A 
HETATM   10  C   UNL     1      26.877  46.573  53.966  1.00  0.00     0.029 A 
BRANCH   7  11
HETATM   11  C   UNL     1      29.856  45.253  56.713  1.00  0.00     0.010 A 
HETATM   12  C   UNL     1      30.832  44.237  56.565  1.00  0.00     0.152 A 
HETATM   13  N   UNL     1      31.638  44.131  57.626  1.00  0.00    -0.187 NA
HETATM   14  N   UNL     1      31.175  45.069  58.464  1.00  0.00    -0.289 N 
HETATM   15  H   UNL     1      31.634  45.179  59.362  1.00  0.00     0.188 HD
HETATM   16  C   UNL     1      30.114  45.769  57.967  1.00  0.00     0.123 A 
ENDBRANCH   7  11
ENDBRANCH   2   5
BRANCH   1  17
HETATM   17  C   UNL     1      25.607  43.077  51.332  1.00  0.00     0.032 A 
HETATM   18  C   UNL     1      24.398  42.818  50.675  1.00  0.00     0.017 A 
HETATM   19  C   UNL     1      24.373  41.974  49.559  1.00  0.00     0.009 A 
HETATM   20  C   UNL     1      25.546  41.362  49.094  1.00  0.00    -0.049 A 
HETATM   21  C   UNL     1      26.744  41.586  49.784  1.00  0.00     0.009 A 
HETATM   22  C   UNL     1      26.773  42.436  50.891  1.00  0.00     0.017 A 
BRANCH  20  23
HETATM   23  C   UNL     1      25.528  40.496  47.859  1.00  0.00     0.112 C 
BRANCH  23  24
HETATM   24  S   UNL     1      26.463  38.946  48.057  1.00  0.00    -0.169 SA
HETATM   25  C   UNL     1      27.467  38.999  46.551  1.00  0.00     0.090 C 
ENDBRANCH  23  24
ENDBRANCH  20  23
ENDBRANCH   1  17
TORSDOF 5
ENDMDL
