MODEL 1
REMARK VINA RESULT:     -10.3      0.000      0.000
REMARK  6 active torsions:
REMARK  status: ('A' for Active; 'I' for Inactive)
REMARK    1  A    between atoms: C_2  and  O_3 
REMARK    2  A    between atoms: C_2  and  C_4 
REMARK    3  A    between atoms: C_6  and  N_7 
REMARK       I    between atoms: N_7  and  C_8 
REMARK    4  A    between atoms: C_8  and  C_9 
REMARK    5  A    between atoms: C_14  and  C_15 
REMARK    6  A    between atoms: C_23  and  C_24 
ROOT
HETATM    1  C   UNL     1      25.463  44.133  51.111  1.00  0.00     0.148 C 
HETATM    2  N   UNL     1      25.545  42.852  51.547  1.00  0.00    -0.165 NA
HETATM    3  N   UNL     1      26.826  42.746  51.937  1.00  0.00    -0.240 N 
HETATM    4  C   UNL     1      27.513  43.925  51.923  1.00  0.00     0.123 C 
HETATM    5  N   UNL     1      28.744  44.015  52.465  1.00  0.00    -0.366 N 
HETATM    6  C   UNL     1      29.271  43.003  53.386  1.00  0.00     0.118 C 
HETATM    7  C   UNL     1      28.236  41.901  53.710  1.00  0.00     0.066 C 
HETATM    8  C   UNL     1      27.374  41.528  52.499  1.00  0.00     0.221 C 
HETATM    9  C   UNL     1      26.693  44.826  51.302  1.00  0.00     0.089 C 
HETATM   10  H   UNL     1      29.256  44.898  52.457  1.00  0.00     0.161 HD
ENDROOT
BRANCH   1  11
HETATM   11  C   UNL     1      24.209  44.698  50.580  1.00  0.00     0.276 C 
HETATM   12  N   UNL     1      24.431  45.883  49.906  1.00  0.00    -0.322 N 
HETATM   13  H   UNL     1      25.412  46.155  49.883  1.00  0.00     0.169 HD
HETATM   14  O   UNL     1      23.138  44.117  50.714  1.00  0.00    -0.266 OA
BRANCH  12  15
HETATM   15  C   UNL     1      23.506  46.685  49.219  1.00  0.00     0.035 A 
HETATM   16  C   UNL     1      23.302  48.039  49.492  1.00  0.00     0.039 A 
HETATM   17  C   UNL     1      22.360  48.790  48.765  1.00  0.00    -0.028 A 
HETATM   18  C   UNL     1      21.604  48.150  47.773  1.00  0.00     0.010 A 
HETATM   19  C   UNL     1      21.802  46.800  47.493  1.00  0.00     0.003 A 
HETATM   20  C   UNL     1      22.756  46.073  48.208  1.00  0.00     0.029 A 
BRANCH  17  21
HETATM   21  C   UNL     1      22.169  50.260  49.068  1.00  0.00     0.147 C 
HETATM   22  C   UNL     1      23.135  51.142  48.292  1.00  0.00     0.044 C 
BRANCH  21  23
HETATM   23  O   UNL     1      22.347  50.497  50.465  1.00  0.00    -0.391 OA
HETATM   24  H   UNL     1      22.496  49.629  50.878  1.00  0.00     0.210 HD
ENDBRANCH  21  23
ENDBRANCH  17  21
ENDBRANCH  12  15
ENDBRANCH   1  11
BRANCH   8  25
HETATM   25  C   UNL     1      28.141  40.763  51.443  1.00  0.00     0.409 C 
HETATM   26  F   UNL     1      28.633  41.572  50.480  1.00  0.00    -0.169 F 
HETATM   27  F   UNL     1      29.163  40.033  51.934  1.00  0.00    -0.169 F 
HETATM   28  F   UNL     1      27.307  39.888  50.823  1.00  0.00    -0.169 F 
ENDBRANCH   8  25
BRANCH   6  29
HETATM   29  C   UNL     1      29.724  43.679  54.673  1.00  0.00    -0.035 A 
HETATM   30  C   UNL     1      30.755  43.123  55.459  1.00  0.00     0.012 A 
HETATM   31  C   UNL     1      31.190  43.761  56.620  1.00  0.00     0.043 A 
HETATM   32  C   UNL     1      30.604  44.960  56.999  1.00  0.00     0.116 A 
HETATM   33  F   UNL     1      31.023  45.579  58.111  1.00  0.00    -0.206 F 
HETATM   34  C   UNL     1      29.588  45.532  56.239  1.00  0.00     0.043 A 
HETATM   35  C   UNL     1      29.147  44.894  55.078  1.00  0.00     0.012 A 
ENDBRANCH   6  29
TORSDOF 6
ENDMDL
MODEL 2
REMARK VINA RESULT:     -10.2      1.269      1.642
REMARK  6 active torsions:
REMARK  status: ('A' for Active; 'I' for Inactive)
REMARK    1  A    between atoms: C_2  and  O_3 
REMARK    2  A    between atoms: C_2  and  C_4 
REMARK    3  A    between atoms: C_6  and  N_7 
REMARK       I    between atoms: N_7  and  C_8 
REMARK    4  A    between atoms: C_8  and  C_9 
REMARK    5  A    between atoms: C_14  and  C_15 
REMARK    6  A    between atoms: C_23  and  C_24 
ROOT
HETATM    1  C   UNL     1      25.857  44.901  50.274  1.00  0.00     0.148 C 
HETATM    2  N   UNL     1      25.521  43.701  50.810  1.00  0.00    -0.165 NA
HETATM    3  N   UNL     1      26.677  43.275  51.347  1.00  0.00    -0.240 N 
HETATM    4  C   UNL     1      27.679  44.201  51.322  1.00  0.00     0.123 C 
HETATM    5  N   UNL     1      28.831  43.992  51.990  1.00  0.00    -0.366 N 
HETATM    6  C   UNL     1      28.957  42.973  53.036  1.00  0.00     0.118 C 
HETATM    7  C   UNL     1      27.620  42.251  53.324  1.00  0.00     0.066 C 
HETATM    8  C   UNL     1      26.792  42.017  52.055  1.00  0.00     0.221 C 
HETATM    9  C   UNL     1      27.216  45.229  50.548  1.00  0.00     0.089 C 
HETATM   10  H   UNL     1      29.578  44.687  51.973  1.00  0.00     0.161 HD
ENDROOT
BRANCH   1  11
HETATM   11  C   UNL     1      24.875  45.742  49.566  1.00  0.00     0.276 C 
HETATM   12  N   UNL     1      25.060  47.082  49.843  1.00  0.00    -0.322 N 
HETATM   13  H   UNL     1      25.840  47.259  50.472  1.00  0.00     0.169 HD
HETATM   14  O   UNL     1      24.048  45.255  48.803  1.00  0.00    -0.266 OA
BRANCH  12  15
HETATM   15  C   UNL     1      24.367  48.186  49.321  1.00  0.00     0.035 A 
HETATM   16  C   UNL     1      22.987  48.364  49.446  1.00  0.00     0.039 A 
HETATM   17  C   UNL     1      22.352  49.495  48.903  1.00  0.00    -0.028 A 
HETATM   18  C   UNL     1      23.123  50.437  48.208  1.00  0.00     0.010 A 
HETATM   19  C   UNL     1      24.500  50.268  48.080  1.00  0.00     0.003 A 
HETATM   20  C   UNL     1      25.119  49.151  48.643  1.00  0.00     0.029 A 
BRANCH  17  21
HETATM   21  C   UNL     1      20.858  49.673  49.066  1.00  0.00     0.147 C 
HETATM   22  C   UNL     1      20.496  51.027  49.658  1.00  0.00     0.044 C 
BRANCH  21  23
HETATM   23  O   UNL     1      20.334  48.646  49.907  1.00  0.00    -0.391 OA
HETATM   24  H   UNL     1      21.023  48.443  50.563  1.00  0.00     0.210 HD
ENDBRANCH  21  23
ENDBRANCH  17  21
ENDBRANCH  12  15
ENDBRANCH   1  11
BRANCH   8  25
HETATM   25  C   UNL     1      27.386  40.960  51.152  1.00  0.00     0.409 C 
HETATM   26  F   UNL     1      27.842  41.476  49.989  1.00  0.00    -0.169 F 
HETATM   27  F   UNL     1      28.392  40.262  51.717  1.00  0.00    -0.169 F 
HETATM   28  F   UNL     1      26.428  40.054  50.823  1.00  0.00    -0.169 F 
ENDBRANCH   8  25
BRANCH   6  29
HETATM   29  C   UNL     1      29.478  43.621  54.312  1.00  0.00    -0.035 A 
HETATM   30  C   UNL     1      30.579  43.075  55.004  1.00  0.00     0.012 A 
HETATM   31  C   UNL     1      31.074  43.689  56.154  1.00  0.00     0.043 A 
HETATM   32  C   UNL     1      30.478  44.854  56.615  1.00  0.00     0.116 A 
HETATM   33  F   UNL     1      30.955  45.449  57.716  1.00  0.00    -0.206 F 
HETATM   34  C   UNL     1      29.394  45.415  55.948  1.00  0.00     0.043 A 
HETATM   35  C   UNL     1      28.893  44.801  54.799  1.00  0.00     0.012 A 
ENDBRANCH   6  29
TORSDOF 6
ENDMDL
MODEL 3
REMARK VINA RESULT:      -9.8      2.306      3.582
REMARK  6 active torsions:
REMARK  status: ('A' for Active; 'I' for Inactive)
REMARK    1  A    between atoms: C_2  and  O_3 
REMARK    2  A    between atoms: C_2  and  C_4 
REMARK    3  A    between atoms: C_6  and  N_7 
REMARK       I    between atoms: N_7  and  C_8 
REMARK    4  A    between atoms: C_8  and  C_9 
REMARK    5  A    between atoms: C_14  and  C_15 
REMARK    6  A    between atoms: C_23  and  C_24 
ROOT
HETATM    1  C   UNL     1      24.982  46.895  49.917  1.00  0.00     0.148 C 
HETATM    2  N   UNL     1      24.271  45.859  50.426  1.00  0.00    -0.165 NA
HETATM    3  N   UNL     1      25.210  44.918  50.626  1.00  0.00    -0.240 N 
HETATM    4  C   UNL     1      26.487  45.352  50.423  1.00  0.00     0.123 C 
HETATM    5  N   UNL     1      27.542  44.584  50.766  1.00  0.00    -0.366 N 
HETATM    6  C   UNL     1      27.413  43.435  51.668  1.00  0.00     0.118 C 
HETATM    7  C   UNL     1      25.979  43.273  52.222  1.00  0.00     0.066 C 
HETATM    8  C   UNL     1      24.904  43.616  51.184  1.00  0.00     0.221 C 
HETATM    9  C   UNL     1      26.374  46.597  49.870  1.00  0.00     0.089 C 
HETATM   10  H   UNL     1      28.497  44.911  50.618  1.00  0.00     0.161 HD
ENDROOT
BRANCH   1  11
HETATM   11  C   UNL     1      24.343  48.170  49.541  1.00  0.00     0.276 C 
HETATM   12  N   UNL     1      22.967  48.055  49.497  1.00  0.00    -0.322 N 
HETATM   13  H   UNL     1      22.634  47.124  49.739  1.00  0.00     0.169 HD
HETATM   14  O   UNL     1      25.003  49.184  49.348  1.00  0.00    -0.266 OA
BRANCH  12  15
HETATM   15  C   UNL     1      22.014  49.052  49.236  1.00  0.00     0.035 A 
HETATM   16  C   UNL     1      20.648  48.901  49.483  1.00  0.00     0.039 A 
HETATM   17  C   UNL     1      19.743  49.940  49.201  1.00  0.00    -0.028 A 
HETATM   18  C   UNL     1      20.230  51.130  48.641  1.00  0.00     0.010 A 
HETATM   19  C   UNL     1      21.592  51.288  48.392  1.00  0.00     0.003 A 
HETATM   20  C   UNL     1      22.480  50.256  48.697  1.00  0.00     0.029 A 
BRANCH  17  21
HETATM   21  C   UNL     1      18.270  49.759  49.494  1.00  0.00     0.147 C 
HETATM   22  C   UNL     1      17.442  49.600  48.228  1.00  0.00     0.044 C 
BRANCH  21  23
HETATM   23  O   UNL     1      17.777  50.879  50.230  1.00  0.00    -0.391 OA
HETATM   24  H   UNL     1      17.162  51.350  49.642  1.00  0.00     0.210 HD
ENDBRANCH  21  23
ENDBRANCH  17  21
ENDBRANCH  12  15
ENDBRANCH   1  11
BRANCH   8  25
HETATM   25  C   UNL     1      24.798  42.585  50.083  1.00  0.00     0.409 C 
HETATM   26  F   UNL     1      23.520  42.377  49.697  1.00  0.00    -0.169 F 
HETATM   27  F   UNL     1      25.519  42.886  48.983  1.00  0.00    -0.169 F 
HETATM   28  F   UNL     1      25.265  41.391  50.534  1.00  0.00    -0.169 F 
ENDBRANCH   8  25
BRANCH   6  29
HETATM   29  C   UNL     1      28.397  43.585  52.820  1.00  0.00    -0.035 A 
HETATM   30  C   UNL     1      28.131  44.464  53.890  1.00  0.00     0.012 A 
HETATM   31  C   UNL     1      29.019  44.576  54.959  1.00  0.00     0.043 A 
HETATM   32  C   UNL     1      30.173  43.806  54.970  1.00  0.00     0.116 A 
HETATM   33  F   UNL     1      31.025  43.906  55.999  1.00  0.00    -0.206 F 
HETATM   34  C   UNL     1      30.457  42.927  53.929  1.00  0.00     0.043 A 
HETATM   35  C   UNL     1      29.572  42.816  52.855  1.00  0.00     0.012 A 
ENDBRANCH   6  29
TORSDOF 6
ENDMDL
MODEL 4
REMARK VINA RESULT:      -9.8      2.334      5.096
REMARK  6 active torsions:
REMARK  status: ('A' for Active; 'I' for Inactive)
REMARK    1  A    between atoms: C_2  and  O_3 
REMARK    2  A    between atoms: C_2  and  C_4 
REMARK    3  A    between atoms: C_6  and  N_7 
REMARK       I    between atoms: N_7  and  C_8 
REMARK    4  A    between atoms: C_8  and  C_9 
REMARK    5  A    between atoms: C_14  and  C_15 
REMARK    6  A    between atoms: C_23  and  C_24 
ROOT
HETATM    1  C   UNL     1      26.062  45.577  51.811  1.00  0.00     0.148 C 
HETATM    2  N   UNL     1      27.316  45.485  52.319  1.00  0.00    -0.165 NA
HETATM    3  N   UNL     1      27.490  44.159  52.454  1.00  0.00    -0.240 N 
HETATM    4  C   UNL     1      26.488  43.406  51.915  1.00  0.00     0.123 C 
HETATM    5  N   UNL     1      26.611  42.068  51.802  1.00  0.00    -0.366 N 
HETATM    6  C   UNL     1      27.905  41.389  51.910  1.00  0.00     0.118 C 
HETATM    7  C   UNL     1      29.081  42.377  52.079  1.00  0.00     0.066 C 
HETATM    8  C   UNL     1      28.718  43.580  52.958  1.00  0.00     0.221 C 
HETATM    9  C   UNL     1      25.500  44.290  51.577  1.00  0.00     0.089 C 
HETATM   10  H   UNL     1      25.862  41.507  51.395  1.00  0.00     0.161 HD
ENDROOT
BRANCH   1  11
HETATM   11  C   UNL     1      25.441  46.878  51.499  1.00  0.00     0.276 C 
HETATM   12  N   UNL     1      25.340  47.079  50.136  1.00  0.00    -0.322 N 
HETATM   13  H   UNL     1      25.698  46.300  49.587  1.00  0.00     0.169 HD
HETATM   14  O   UNL     1      25.043  47.626  52.384  1.00  0.00    -0.266 OA
BRANCH  12  15
HETATM   15  C   UNL     1      24.761  48.160  49.452  1.00  0.00     0.035 A 
HETATM   16  C   UNL     1      23.384  48.381  49.377  1.00  0.00     0.039 A 
HETATM   17  C   UNL     1      22.867  49.486  48.678  1.00  0.00    -0.028 A 
HETATM   18  C   UNL     1      23.756  50.355  48.030  1.00  0.00     0.010 A 
HETATM   19  C   UNL     1      25.131  50.142  48.101  1.00  0.00     0.003 A 
HETATM   20  C   UNL     1      25.630  49.053  48.817  1.00  0.00     0.029 A 
BRANCH  17  21
HETATM   21  C   UNL     1      21.372  49.714  48.625  1.00  0.00     0.147 C 
HETATM   22  C   UNL     1      21.010  51.191  48.587  1.00  0.00     0.044 C 
BRANCH  21  23
HETATM   23  O   UNL     1      20.747  49.114  49.760  1.00  0.00    -0.391 OA
HETATM   24  H   UNL     1      20.596  48.180  49.535  1.00  0.00     0.210 HD
ENDBRANCH  21  23
ENDBRANCH  17  21
ENDBRANCH  12  15
ENDBRANCH   1  11
BRANCH   8  25
HETATM   25  C   UNL     1      28.566  43.217  54.418  1.00  0.00     0.409 C 
HETATM   26  F   UNL     1      28.952  44.218  55.238  1.00  0.00    -0.169 F 
HETATM   27  F   UNL     1      27.312  42.860  54.763  1.00  0.00    -0.169 F 
HETATM   28  F   UNL     1      29.362  42.153  54.706  1.00  0.00    -0.169 F 
ENDBRANCH   8  25
BRANCH   6  29
HETATM   29  C   UNL     1      28.128  40.529  50.673  1.00  0.00    -0.035 A 
HETATM   30  C   UNL     1      27.696  40.962  49.402  1.00  0.00     0.012 A 
HETATM   31  C   UNL     1      27.930  40.187  48.267  1.00  0.00     0.043 A 
HETATM   32  C   UNL     1      28.603  38.981  48.392  1.00  0.00     0.116 A 
HETATM   33  F   UNL     1      28.834  38.236  47.302  1.00  0.00    -0.206 F 
HETATM   34  C   UNL     1      29.043  38.532  49.633  1.00  0.00     0.043 A 
HETATM   35  C   UNL     1      28.807  39.304  50.773  1.00  0.00     0.012 A 
ENDBRANCH   6  29
TORSDOF 6
ENDMDL
MODEL 5
REMARK VINA RESULT:      -9.2      4.962      7.314
REMARK  6 active torsions:
REMARK  status: ('A' for Active; 'I' for Inactive)
REMARK    1  A    between atoms: C_2  and  O_3 
REMARK    2  A    between atoms: C_2  and  C_4 
REMARK    3  A    between atoms: C_6  and  N_7 
REMARK       I    between atoms: N_7  and  C_8 
REMARK    4  A    between atoms: C_8  and  C_9 
REMARK    5  A    between atoms: C_14  and  C_15 
REMARK    6  A    between atoms: C_23  and  C_24 
ROOT
HETATM    1  C   UNL     1      27.761  40.916  49.455  1.00  0.00     0.148 C 
HETATM    2  N   UNL     1      27.290  42.159  49.188  1.00  0.00    -0.165 NA
HETATM    3  N   UNL     1      26.958  42.624  50.405  1.00  0.00    -0.240 N 
HETATM    4  C   UNL     1      27.338  41.814  51.435  1.00  0.00     0.123 C 
HETATM    5  N   UNL     1      27.248  42.231  52.714  1.00  0.00    -0.366 N 
HETATM    6  C   UNL     1      27.082  43.644  53.067  1.00  0.00     0.118 C 
HETATM    7  C   UNL     1      27.109  44.571  51.830  1.00  0.00     0.066 C 
HETATM    8  C   UNL     1      26.414  43.950  50.613  1.00  0.00     0.221 C 
HETATM    9  C   UNL     1      27.773  40.654  50.854  1.00  0.00     0.089 C 
HETATM   10  H   UNL     1      27.536  41.625  53.483  1.00  0.00     0.161 HD
ENDROOT
BRANCH   1  11
HETATM   11  C   UNL     1      28.248  40.021  48.388  1.00  0.00     0.276 C 
HETATM   12  N   UNL     1      27.547  40.205  47.212  1.00  0.00    -0.322 N 
HETATM   13  H   UNL     1      26.830  40.924  47.279  1.00  0.00     0.169 HD
HETATM   14  O   UNL     1      29.192  39.261  48.572  1.00  0.00    -0.266 OA
BRANCH  12  15
HETATM   15  C   UNL     1      27.749  39.585  45.969  1.00  0.00     0.035 A 
HETATM   16  C   UNL     1      28.466  40.168  44.921  1.00  0.00     0.039 A 
HETATM   17  C   UNL     1      28.636  39.494  43.698  1.00  0.00    -0.028 A 
HETATM   18  C   UNL     1      28.050  38.231  43.534  1.00  0.00     0.010 A 
HETATM   19  C   UNL     1      27.335  37.642  44.574  1.00  0.00     0.003 A 
HETATM   20  C   UNL     1      27.193  38.314  45.789  1.00  0.00     0.029 A 
BRANCH  17  21
HETATM   21  C   UNL     1      29.431  40.139  42.584  1.00  0.00     0.147 C 
HETATM   22  C   UNL     1      30.817  39.530  42.433  1.00  0.00     0.044 C 
BRANCH  21  23
HETATM   23  O   UNL     1      29.565  41.539  42.828  1.00  0.00    -0.391 OA
HETATM   24  H   UNL     1      30.473  41.780  42.578  1.00  0.00     0.210 HD
ENDBRANCH  21  23
ENDBRANCH  17  21
ENDBRANCH  12  15
ENDBRANCH   1  11
BRANCH   8  25
HETATM   25  C   UNL     1      24.911  43.883  50.765  1.00  0.00     0.409 C 
HETATM   26  F   UNL     1      24.267  44.168  49.612  1.00  0.00    -0.169 F 
HETATM   27  F   UNL     1      24.461  42.691  51.207  1.00  0.00    -0.169 F 
HETATM   28  F   UNL     1      24.505  44.809  51.673  1.00  0.00    -0.169 F 
ENDBRANCH   8  25
BRANCH   6  29
HETATM   29  C   UNL     1      28.179  44.052  54.041  1.00  0.00    -0.035 A 
HETATM   30  C   UNL     1      28.087  45.254  54.774  1.00  0.00     0.012 A 
HETATM   31  C   UNL     1      29.077  45.609  55.689  1.00  0.00     0.043 A 
HETATM   32  C   UNL     1      30.159  44.764  55.884  1.00  0.00     0.116 A 
HETATM   33  F   UNL     1      31.110  45.100  56.767  1.00  0.00    -0.206 F 
HETATM   34  C   UNL     1      30.272  43.571  55.178  1.00  0.00     0.043 A 
HETATM   35  C   UNL     1      29.285  43.214  54.257  1.00  0.00     0.012 A 
ENDBRANCH   6  29
TORSDOF 6
ENDMDL
MODEL 6
REMARK VINA RESULT:      -9.0      2.336      4.717
REMARK  6 active torsions:
REMARK  status: ('A' for Active; 'I' for Inactive)
REMARK    1  A    between atoms: C_2  and  O_3 
REMARK    2  A    between atoms: C_2  and  C_4 
REMARK    3  A    between atoms: C_6  and  N_7 
REMARK       I    between atoms: N_7  and  C_8 
REMARK    4  A    between atoms: C_8  and  C_9 
REMARK    5  A    between atoms: C_14  and  C_15 
REMARK    6  A    between atoms: C_23  and  C_24 
ROOT
HETATM    1  C   UNL     1      25.487  45.192  51.216  1.00  0.00     0.148 C 
HETATM    2  N   UNL     1      26.676  45.373  51.843  1.00  0.00    -0.165 NA
HETATM    3  N   UNL     1      27.032  44.123  52.183  1.00  0.00    -0.240 N 
HETATM    4  C   UNL     1      26.222  43.153  51.670  1.00  0.00     0.123 C 
HETATM    5  N   UNL     1      26.557  41.850  51.763  1.00  0.00    -0.366 N 
HETATM    6  C   UNL     1      27.919  41.413  52.083  1.00  0.00     0.118 C 
HETATM    7  C   UNL     1      28.906  42.595  52.214  1.00  0.00     0.066 C 
HETATM    8  C   UNL     1      28.270  43.824  52.874  1.00  0.00     0.221 C 
HETATM    9  C   UNL     1      25.155  43.811  51.121  1.00  0.00     0.089 C 
HETATM   10  H   UNL     1      25.952  41.125  51.375  1.00  0.00     0.161 HD
ENDROOT
BRANCH   1  11
HETATM   11  C   UNL     1      24.716  46.322  50.665  1.00  0.00     0.276 C 
HETATM   12  N   UNL     1      23.838  45.907  49.682  1.00  0.00    -0.322 N 
HETATM   13  H   UNL     1      23.867  44.903  49.515  1.00  0.00     0.169 HD
HETATM   14  O   UNL     1      24.849  47.460  51.100  1.00  0.00    -0.266 OA
BRANCH  12  15
HETATM   15  C   UNL     1      22.903  46.670  48.966  1.00  0.00     0.035 A 
HETATM   16  C   UNL     1      23.026  48.045  48.753  1.00  0.00     0.039 A 
HETATM   17  C   UNL     1      22.054  48.754  48.024  1.00  0.00    -0.028 A 
HETATM   18  C   UNL     1      20.939  48.062  47.531  1.00  0.00     0.010 A 
HETATM   19  C   UNL     1      20.809  46.690  47.738  1.00  0.00     0.003 A 
HETATM   20  C   UNL     1      21.793  45.997  48.445  1.00  0.00     0.029 A 
BRANCH  17  21
HETATM   21  C   UNL     1      22.219  50.240  47.793  1.00  0.00     0.147 C 
HETATM   22  C   UNL     1      22.921  50.933  48.950  1.00  0.00     0.044 C 
BRANCH  21  23
HETATM   23  O   UNL     1      20.942  50.847  47.597  1.00  0.00    -0.391 OA
HETATM   24  H   UNL     1      20.937  51.201  46.691  1.00  0.00     0.210 HD
ENDBRANCH  21  23
ENDBRANCH  17  21
ENDBRANCH  12  15
ENDBRANCH   1  11
BRANCH   8  25
HETATM   25  C   UNL     1      28.011  43.630  54.351  1.00  0.00     0.409 C 
HETATM   26  F   UNL     1      28.218  44.762  55.060  1.00  0.00    -0.169 F 
HETATM   27  F   UNL     1      26.770  43.185  54.634  1.00  0.00    -0.169 F 
HETATM   28  F   UNL     1      28.874  42.703  54.844  1.00  0.00    -0.169 F 
ENDBRANCH   8  25
BRANCH   6  29
HETATM   29  C   UNL     1      28.406  40.451  51.008  1.00  0.00    -0.035 A 
HETATM   30  C   UNL     1      29.132  39.291  51.349  1.00  0.00     0.012 A 
HETATM   31  C   UNL     1      29.550  38.395  50.365  1.00  0.00     0.043 A 
HETATM   32  C   UNL     1      29.238  38.648  49.038  1.00  0.00     0.116 A 
HETATM   33  F   UNL     1      29.632  37.786  48.090  1.00  0.00    -0.206 F 
HETATM   34  C   UNL     1      28.518  39.782  48.675  1.00  0.00     0.043 A 
HETATM   35  C   UNL     1      28.103  40.683  49.657  1.00  0.00     0.012 A 
ENDBRANCH   6  29
TORSDOF 6
ENDMDL
MODEL 7
REMARK VINA RESULT:      -8.9      4.819      7.847
REMARK  6 active torsions:
REMARK  status: ('A' for Active; 'I' for Inactive)
REMARK    1  A    between atoms: C_2  and  O_3 
REMARK    2  A    between atoms: C_2  and  C_4 
REMARK    3  A    between atoms: C_6  and  N_7 
REMARK       I    between atoms: N_7  and  C_8 
REMARK    4  A    between atoms: C_8  and  C_9 
REMARK    5  A    between atoms: C_14  and  C_15 
REMARK    6  A    between atoms: C_23  and  C_24 
ROOT
HETATM    1  C   UNL     1      27.315  41.641  49.289  1.00  0.00     0.148 C 
HETATM    2  N   UNL     1      26.897  42.931  49.289  1.00  0.00    -0.165 NA
HETATM    3  N   UNL     1      26.724  43.193  50.595  1.00  0.00    -0.240 N 
HETATM    4  C   UNL     1      27.159  42.202  51.426  1.00  0.00     0.123 C 
HETATM    5  N   UNL     1      27.229  42.397  52.759  1.00  0.00    -0.366 N 
HETATM    6  C   UNL     1      27.190  43.734  53.358  1.00  0.00     0.118 C 
HETATM    7  C   UNL     1      27.145  44.858  52.297  1.00  0.00     0.066 C 
HETATM    8  C   UNL     1      26.289  44.486  51.081  1.00  0.00     0.221 C 
HETATM    9  C   UNL     1      27.458  41.142  50.616  1.00  0.00     0.089 C 
HETATM   10  H   UNL     1      27.558  41.656  53.378  1.00  0.00     0.161 HD
ENDROOT
BRANCH   1  11
HETATM   11  C   UNL     1      27.631  40.923  48.041  1.00  0.00     0.276 C 
HETATM   12  N   UNL     1      27.002  39.694  47.989  1.00  0.00    -0.322 N 
HETATM   13  H   UNL     1      26.427  39.502  48.806  1.00  0.00     0.169 HD
HETATM   14  O   UNL     1      28.336  41.426  47.174  1.00  0.00    -0.266 OA
BRANCH  12  15
HETATM   15  C   UNL     1      27.010  38.751  46.949  1.00  0.00     0.035 A 
HETATM   16  C   UNL     1      28.040  37.829  46.748  1.00  0.00     0.039 A 
HETATM   17  C   UNL     1      27.989  36.907  45.687  1.00  0.00    -0.028 A 
HETATM   18  C   UNL     1      26.894  36.941  44.812  1.00  0.00     0.010 A 
HETATM   19  C   UNL     1      25.862  37.856  45.006  1.00  0.00     0.003 A 
HETATM   20  C   UNL     1      25.917  38.751  46.076  1.00  0.00     0.029 A 
BRANCH  17  21
HETATM   21  C   UNL     1      29.109  35.907  45.501  1.00  0.00     0.147 C 
HETATM   22  C   UNL     1      29.643  35.893  44.076  1.00  0.00     0.044 C 
BRANCH  21  23
HETATM   23  O   UNL     1      28.654  34.596  45.836  1.00  0.00    -0.391 OA
HETATM   24  H   UNL     1      29.360  34.182  46.361  1.00  0.00     0.210 HD
ENDBRANCH  21  23
ENDBRANCH  17  21
ENDBRANCH  12  15
ENDBRANCH   1  11
BRANCH   8  25
HETATM   25  C   UNL     1      24.809  44.459  51.390  1.00  0.00     0.409 C 
HETATM   26  F   UNL     1      24.534  44.923  52.629  1.00  0.00    -0.169 F 
HETATM   27  F   UNL     1      24.056  45.153  50.512  1.00  0.00    -0.169 F 
HETATM   28  F   UNL     1      24.361  43.176  51.350  1.00  0.00    -0.169 F 
ENDBRANCH   8  25
BRANCH   6  29
HETATM   29  C   UNL     1      28.406  43.921  54.255  1.00  0.00    -0.035 A 
HETATM   30  C   UNL     1      28.559  45.086  55.036  1.00  0.00     0.012 A 
HETATM   31  C   UNL     1      29.657  45.239  55.881  1.00  0.00     0.043 A 
HETATM   32  C   UNL     1      30.604  44.229  55.957  1.00  0.00     0.116 A 
HETATM   33  F   UNL     1      31.658  44.371  56.773  1.00  0.00    -0.206 F 
HETATM   34  C   UNL     1      30.475  43.068  55.202  1.00  0.00     0.043 A 
HETATM   35  C   UNL     1      29.379  42.913  54.351  1.00  0.00     0.012 A 
ENDBRANCH   6  29
TORSDOF 6
ENDMDL
MODEL 8
REMARK VINA RESULT:      -8.9      4.823      6.913
REMARK  6 active torsions:
REMARK  status: ('A' for Active; 'I' for Inactive)
REMARK    1  A    between atoms: C_2  and  O_3 
REMARK    2  A    between atoms: C_2  and  C_4 
REMARK    3  A    between atoms: C_6  and  N_7 
REMARK       I    between atoms: N_7  and  C_8 
REMARK    4  A    between atoms: C_8  and  C_9 
REMARK    5  A    between atoms: C_14  and  C_15 
REMARK    6  A    between atoms: C_23  and  C_24 
ROOT
HETATM    1  C   UNL     1      26.197  42.188  49.520  1.00  0.00     0.148 C 
HETATM    2  N   UNL     1      26.233  43.541  49.431  1.00  0.00    -0.165 NA
HETATM    3  N   UNL     1      26.237  43.929  50.717  1.00  0.00    -0.240 N 
HETATM    4  C   UNL     1      26.367  42.904  51.609  1.00  0.00     0.123 C 
HETATM    5  N   UNL     1      26.579  43.148  52.918  1.00  0.00    -0.366 N 
HETATM    6  C   UNL     1      27.024  44.456  53.409  1.00  0.00     0.118 C 
HETATM    7  C   UNL     1      27.291  45.459  52.264  1.00  0.00     0.066 C 
HETATM    8  C   UNL     1      26.288  45.321  51.113  1.00  0.00     0.221 C 
HETATM    9  C   UNL     1      26.246  41.755  50.876  1.00  0.00     0.089 C 
HETATM   10  H   UNL     1      26.679  42.381  53.583  1.00  0.00     0.161 HD
ENDROOT
BRANCH   1  11
HETATM   11  C   UNL     1      26.179  41.328  48.323  1.00  0.00     0.276 C 
HETATM   12  N   UNL     1      27.400  41.330  47.677  1.00  0.00    -0.322 N 
HETATM   13  H   UNL     1      28.098  41.910  48.139  1.00  0.00     0.169 HD
HETATM   14  O   UNL     1      25.185  40.679  48.015  1.00  0.00    -0.266 OA
BRANCH  12  15
HETATM   15  C   UNL     1      27.791  40.599  46.544  1.00  0.00     0.035 A 
HETATM   16  C   UNL     1      28.057  41.180  45.302  1.00  0.00     0.039 A 
HETATM   17  C   UNL     1      28.448  40.393  44.204  1.00  0.00    -0.028 A 
HETATM   18  C   UNL     1      28.543  39.003  44.366  1.00  0.00     0.010 A 
HETATM   19  C   UNL     1      28.281  38.416  45.602  1.00  0.00     0.003 A 
HETATM   20  C   UNL     1      27.915  39.213  46.688  1.00  0.00     0.029 A 
BRANCH  17  21
HETATM   21  C   UNL     1      28.747  41.048  42.873  1.00  0.00     0.147 C 
HETATM   22  C   UNL     1      27.836  40.548  41.762  1.00  0.00     0.044 C 
BRANCH  21  23
HETATM   23  O   UNL     1      30.103  40.803  42.503  1.00  0.00    -0.391 OA
HETATM   24  H   UNL     1      30.581  40.586  43.322  1.00  0.00     0.210 HD
ENDBRANCH  21  23
ENDBRANCH  17  21
ENDBRANCH  12  15
ENDBRANCH   1  11
BRANCH   8  25
HETATM   25  C   UNL     1      24.905  45.813  51.476  1.00  0.00     0.409 C 
HETATM   26  F   UNL     1      24.922  46.662  52.527  1.00  0.00    -0.169 F 
HETATM   27  F   UNL     1      24.260  46.424  50.461  1.00  0.00    -0.169 F 
HETATM   28  F   UNL     1      24.130  44.759  51.844  1.00  0.00    -0.169 F 
ENDBRANCH   8  25
BRANCH   6  29
HETATM   29  C   UNL     1      28.284  44.279  54.245  1.00  0.00    -0.035 A 
HETATM   30  C   UNL     1      29.110  43.147  54.079  1.00  0.00     0.012 A 
HETATM   31  C   UNL     1      30.281  43.003  54.823  1.00  0.00     0.043 A 
HETATM   32  C   UNL     1      30.637  43.991  55.730  1.00  0.00     0.116 A 
HETATM   33  F   UNL     1      31.764  43.859  56.442  1.00  0.00    -0.206 F 
HETATM   34  C   UNL     1      29.843  45.119  55.909  1.00  0.00     0.043 A 
HETATM   35  C   UNL     1      28.668  45.264  55.169  1.00  0.00     0.012 A 
ENDBRANCH   6  29
TORSDOF 6
ENDMDL
MODEL 9
REMARK VINA RESULT:      -8.7      4.279      7.099
REMARK  6 active torsions:
REMARK  status: ('A' for Active; 'I' for Inactive)
REMARK    1  A    between atoms: C_2  and  O_3 
REMARK    2  A    between atoms: C_2  and  C_4 
REMARK    3  A    between atoms: C_6  and  N_7 
REMARK       I    between atoms: N_7  and  C_8 
REMARK    4  A    between atoms: C_8  and  C_9 
REMARK    5  A    between atoms: C_14  and  C_15 
REMARK    6  A    between atoms: C_23  and  C_24 
ROOT
HETATM    1  C   UNL     1      27.180  43.036  51.138  1.00  0.00     0.148 C 
HETATM    2  N   UNL     1      27.140  44.389  51.044  1.00  0.00    -0.165 NA
HETATM    3  N   UNL     1      27.024  44.777  52.326  1.00  0.00    -0.240 N 
HETATM    4  C   UNL     1      27.148  43.763  53.230  1.00  0.00     0.123 C 
HETATM    5  N   UNL     1      27.246  44.020  54.550  1.00  0.00    -0.366 N 
HETATM    6  C   UNL     1      27.573  45.353  55.066  1.00  0.00     0.118 C 
HETATM    7  C   UNL     1      27.864  46.370  53.939  1.00  0.00     0.066 C 
HETATM    8  C   UNL     1      26.960  46.170  52.717  1.00  0.00     0.221 C 
HETATM    9  C   UNL     1      27.152  42.609  52.496  1.00  0.00     0.089 C 
HETATM   10  H   UNL     1      27.342  43.261  55.225  1.00  0.00     0.161 HD
ENDROOT
BRANCH   1  11
HETATM   11  C   UNL     1      27.304  42.176  49.947  1.00  0.00     0.276 C 
HETATM   12  N   UNL     1      27.572  40.865  50.293  1.00  0.00    -0.322 N 
HETATM   13  H   UNL     1      27.628  40.718  51.299  1.00  0.00     0.169 HD
HETATM   14  O   UNL     1      27.135  42.618  48.817  1.00  0.00    -0.266 OA
BRANCH  12  15
HETATM   15  C   UNL     1      27.703  39.749  49.453  1.00  0.00     0.035 A 
HETATM   16  C   UNL     1      26.649  39.207  48.714  1.00  0.00     0.039 A 
HETATM   17  C   UNL     1      26.846  38.087  47.886  1.00  0.00    -0.028 A 
HETATM   18  C   UNL     1      28.118  37.500  47.832  1.00  0.00     0.010 A 
HETATM   19  C   UNL     1      29.175  38.035  48.565  1.00  0.00     0.003 A 
HETATM   20  C   UNL     1      28.969  39.160  49.365  1.00  0.00     0.029 A 
BRANCH  17  21
HETATM   21  C   UNL     1      25.691  37.530  47.083  1.00  0.00     0.147 C 
HETATM   22  C   UNL     1      25.983  37.503  45.590  1.00  0.00     0.044 C 
BRANCH  21  23
HETATM   23  O   UNL     1      24.517  38.309  47.310  1.00  0.00    -0.391 OA
HETATM   24  H   UNL     1      24.212  38.097  48.209  1.00  0.00     0.210 HD
ENDBRANCH  21  23
ENDBRANCH  17  21
ENDBRANCH  12  15
ENDBRANCH   1  11
BRANCH   8  25
HETATM   25  C   UNL     1      25.527  46.578  52.972  1.00  0.00     0.409 C 
HETATM   26  F   UNL     1      25.414  47.430  54.014  1.00  0.00    -0.169 F 
HETATM   27  F   UNL     1      24.924  47.145  51.907  1.00  0.00    -0.169 F 
HETATM   28  F   UNL     1      24.793  45.479  53.290  1.00  0.00    -0.169 F 
ENDBRANCH   8  25
BRANCH   6  29
HETATM   29  C   UNL     1      28.775  45.254  55.995  1.00  0.00    -0.035 A 
HETATM   30  C   UNL     1      28.808  45.959  57.216  1.00  0.00     0.012 A 
HETATM   31  C   UNL     1      29.896  45.840  58.079  1.00  0.00     0.043 A 
HETATM   32  C   UNL     1      30.954  45.013  57.732  1.00  0.00     0.116 A 
HETATM   33  F   UNL     1      31.999  44.892  58.561  1.00  0.00    -0.206 F 
HETATM   34  C   UNL     1      30.945  44.302  56.536  1.00  0.00     0.043 A 
HETATM   35  C   UNL     1      29.858  44.422  55.667  1.00  0.00     0.012 A 
ENDBRANCH   6  29
TORSDOF 6
ENDMDL
MODEL 10
REMARK VINA RESULT:      -8.6      3.297      5.565
REMARK  6 active torsions:
REMARK  status: ('A' for Active; 'I' for Inactive)
REMARK    1  A    between atoms: C_2  and  O_3 
REMARK    2  A    between atoms: C_2  and  C_4 
REMARK    3  A    between atoms: C_6  and  N_7 
REMARK       I    between atoms: N_7  and  C_8 
REMARK    4  A    between atoms: C_8  and  C_9 
REMARK    5  A    between atoms: C_14  and  C_15 
REMARK    6  A    between atoms: C_23  and  C_24 
ROOT
HETATM    1  C   UNL     1      23.738  46.014  49.507  1.00  0.00     0.148 C 
HETATM    2  N   UNL     1      24.848  46.431  50.164  1.00  0.00    -0.165 NA
HETATM    3  N   UNL     1      25.320  45.297  50.710  1.00  0.00    -0.240 N 
HETATM    4  C   UNL     1      24.666  44.169  50.306  1.00  0.00     0.123 C 
HETATM    5  N   UNL     1      25.141  42.946  50.615  1.00  0.00    -0.366 N 
HETATM    6  C   UNL     1      26.517  42.733  51.074  1.00  0.00     0.118 C 
HETATM    7  C   UNL     1      27.349  44.036  51.078  1.00  0.00     0.066 C 
HETATM    8  C   UNL     1      26.529  45.257  51.507  1.00  0.00     0.221 C 
HETATM    9  C   UNL     1      23.575  44.603  49.604  1.00  0.00     0.089 C 
HETATM   10  H   UNL     1      24.653  42.103  50.309  1.00  0.00     0.161 HD
ENDROOT
BRANCH   1  11
HETATM   11  C   UNL     1      22.884  46.947  48.748  1.00  0.00     0.276 C 
HETATM   12  N   UNL     1      22.476  48.012  49.529  1.00  0.00    -0.322 N 
HETATM   13  H   UNL     1      22.839  47.975  50.479  1.00  0.00     0.169 HD
HETATM   14  O   UNL     1      22.639  46.770  47.561  1.00  0.00    -0.266 OA
BRANCH  12  15
HETATM   15  C   UNL     1      21.708  49.126  49.155  1.00  0.00     0.035 A 
HETATM   16  C   UNL     1      20.312  49.144  49.171  1.00  0.00     0.039 A 
HETATM   17  C   UNL     1      19.599  50.294  48.787  1.00  0.00    -0.028 A 
HETATM   18  C   UNL     1      20.313  51.423  48.361  1.00  0.00     0.010 A 
HETATM   19  C   UNL     1      21.705  51.413  48.344  1.00  0.00     0.003 A 
HETATM   20  C   UNL     1      22.399  50.272  48.748  1.00  0.00     0.029 A 
BRANCH  17  21
HETATM   21  C   UNL     1      18.086  50.294  48.829  1.00  0.00     0.147 C 
HETATM   22  C   UNL     1      17.532  51.331  49.794  1.00  0.00     0.044 C 
BRANCH  21  23
HETATM   23  O   UNL     1      17.609  49.004  49.212  1.00  0.00    -0.391 OA
HETATM   24  H   UNL     1      16.656  49.099  49.380  1.00  0.00     0.210 HD
ENDBRANCH  21  23
ENDBRANCH  17  21
ENDBRANCH  12  15
ENDBRANCH   1  11
BRANCH   8  25
HETATM   25  C   UNL     1      26.186  45.248  52.979  1.00  0.00     0.409 C 
HETATM   26  F   UNL     1      26.975  44.408  53.684  1.00  0.00    -0.169 F 
HETATM   27  F   UNL     1      26.251  46.463  53.561  1.00  0.00    -0.169 F 
HETATM   28  F   UNL     1      24.910  44.810  53.145  1.00  0.00    -0.169 F 
ENDBRANCH   8  25
BRANCH   6  29
HETATM   29  C   UNL     1      27.190  41.694  50.187  1.00  0.00    -0.035 A 
HETATM   30  C   UNL     1      27.851  40.581  50.747  1.00  0.00     0.012 A 
HETATM   31  C   UNL     1      28.439  39.615  49.932  1.00  0.00     0.043 A 
HETATM   32  C   UNL     1      28.363  39.749  48.553  1.00  0.00     0.116 A 
HETATM   33  F   UNL     1      28.921  38.819  47.767  1.00  0.00    -0.206 F 
HETATM   34  C   UNL     1      27.712  40.834  47.975  1.00  0.00     0.043 A 
HETATM   35  C   UNL     1      27.126  41.806  48.788  1.00  0.00     0.012 A 
ENDBRANCH   6  29
TORSDOF 6
ENDMDL
