MODEL 1
REMARK VINA RESULT:      -9.5      0.000      0.000
REMARK  9 active torsions:
REMARK  status: ('A' for Active; 'I' for Inactive)
REMARK    1  A    between atoms: O_2  and  C_3 
REMARK    2  A    between atoms: C_6  and  N_7 
REMARK    3  A    between atoms: N_10  and  C_12 
REMARK    4  A    between atoms: C_12  and  C_13 
REMARK    5  A    between atoms: C_13  and  C_14 
REMARK    6  A    between atoms: C_14  and  N_15 
REMARK       I    between atoms: N_15  and  C_16 
REMARK    7  A    between atoms: C_16  and  C_17 
REMARK    8  A    between atoms: C_17  and  C_18 
REMARK    9  A    between atoms: C_18  and  C_19 
ROOT
HETATM    1  N   UNL     1      24.912  45.029  49.434  1.00  0.00    -0.361 N 
HETATM    2  C   UNL     1      25.286  43.714  49.244  1.00  0.00     0.217 C 
HETATM    3  O   UNL     1      24.509  42.859  48.828  1.00  0.00    -0.274 OA
HETATM    4  H   UNL     1      25.545  45.602  49.991  1.00  0.00     0.162 HD
ENDROOT
BRANCH   1   5
HETATM    5  C   UNL     1      23.522  45.421  49.351  1.00  0.00     0.124 C 
BRANCH   5   6
HETATM    6  C   UNL     1      23.332  46.912  49.044  1.00  0.00     0.047 C 
BRANCH   6   7
HETATM    7  C   UNL     1      21.925  47.168  48.517  1.00  0.00     0.236 C 
BRANCH   7   8
HETATM    8  N   UNL     1      21.216  48.211  49.357  1.00  0.00    -0.068 N 
HETATM    9  C   UNL     1      21.479  49.648  48.863  1.00  0.00     0.254 C 
HETATM   10  C   UNL     1      20.710  50.677  49.723  1.00  0.00     0.150 C 
HETATM   11  N   UNL     1      19.273  50.354  49.797  1.00  0.00    -0.378 N 
HETATM   12  C   UNL     1      19.002  48.993  50.306  1.00  0.00     0.150 C 
HETATM   13  C   UNL     1      19.706  47.940  49.424  1.00  0.00     0.254 C 
HETATM   14  H   UNL     1      21.571  48.155  50.320  1.00  0.00     0.280 HD
BRANCH  11  15
HETATM   15  C   UNL     1      18.372  50.868  48.859  1.00  0.00     0.030 A 
HETATM   16  C   UNL     1      18.722  51.821  47.889  1.00  0.00     0.032 A 
HETATM   17  C   UNL     1      17.794  52.305  46.950  1.00  0.00     0.039 A 
HETATM   18  C   UNL     1      16.478  51.861  46.967  1.00  0.00     0.068 A 
HETATM   19  C   UNL     1      16.097  50.950  47.945  1.00  0.00     0.039 A 
HETATM   20  C   UNL     1      17.026  50.470  48.877  1.00  0.00     0.032 A 
BRANCH  18  21
HETATM   21  O   UNL     1      15.482  52.240  46.114  1.00  0.00    -0.356 OA
HETATM   22  C   UNL     1      15.782  53.272  45.183  1.00  0.00     0.210 C 
ENDBRANCH  18  21
ENDBRANCH  11  15
ENDBRANCH   7   8
ENDBRANCH   6   7
ENDBRANCH   5   6
ENDBRANCH   1   5
BRANCH   2  23
HETATM   23  C   UNL     1      26.726  43.407  49.590  1.00  0.00     0.105 C 
BRANCH  23  24
HETATM   24  C   UNL     1      27.310  44.327  50.662  1.00  0.00     0.046 C 
BRANCH  24  25
HETATM   25  C   UNL     1      26.835  44.044  52.087  1.00  0.00     0.203 A 
HETATM   26  N   UNL     1      27.962  43.537  52.910  1.00  0.00    -0.257 NA
HETATM   27  C   UNL     1      28.116  44.444  53.831  1.00  0.00     0.147 A 
HETATM   28  N   UNL     1      27.258  45.507  53.830  1.00  0.00    -0.239 N 
HETATM   29  C   UNL     1      29.158  44.387  54.863  1.00  0.00     0.037 A 
HETATM   30  C   UNL     1      27.301  46.557  54.756  1.00  0.00     0.187 A 
HETATM   31  C   UNL     1      26.393  45.322  52.775  1.00  0.00     0.257 A 
HETATM   32  S   UNL     1      26.292  47.889  54.825  1.00  0.00    -0.040 SA
HETATM   33  N   UNL     1      28.289  46.474  55.712  1.00  0.00    -0.332 N 
HETATM   34  C   UNL     1      29.212  45.427  55.788  1.00  0.00     0.048 A 
HETATM   35  H   UNL     1      28.334  47.233  56.386  1.00  0.00     0.168 HD
HETATM   36  C   UNL     1      30.186  45.429  56.785  1.00  0.00     0.030 A 
HETATM   37  C   UNL     1      31.108  44.381  56.847  1.00  0.00     0.002 A 
HETATM   38  C   UNL     1      31.055  43.339  55.918  1.00  0.00     0.001 A 
HETATM   39  C   UNL     1      30.078  43.338  54.922  1.00  0.00     0.017 A 
HETATM   40  O   UNL     1      25.437  45.986  52.407  1.00  0.00    -0.270 OA
ENDBRANCH  24  25
ENDBRANCH  23  24
ENDBRANCH   2  23
TORSDOF 9
ENDMDL
MODEL 2
REMARK VINA RESULT:      -9.3      3.113     12.771
REMARK  9 active torsions:
REMARK  status: ('A' for Active; 'I' for Inactive)
REMARK    1  A    between atoms: O_2  and  C_3 
REMARK    2  A    between atoms: C_6  and  N_7 
REMARK    3  A    between atoms: N_10  and  C_12 
REMARK    4  A    between atoms: C_12  and  C_13 
REMARK    5  A    between atoms: C_13  and  C_14 
REMARK    6  A    between atoms: C_14  and  N_15 
REMARK       I    between atoms: N_15  and  C_16 
REMARK    7  A    between atoms: C_16  and  C_17 
REMARK    8  A    between atoms: C_17  and  C_18 
REMARK    9  A    between atoms: C_18  and  C_19 
ROOT
HETATM    1  N   UNL     1      24.196  48.958  49.019  1.00  0.00    -0.361 N 
HETATM    2  C   UNL     1      24.251  49.905  48.016  1.00  0.00     0.217 C 
HETATM    3  O   UNL     1      25.268  50.117  47.362  1.00  0.00    -0.274 OA
HETATM    4  H   UNL     1      23.397  49.015  49.649  1.00  0.00     0.162 HD
ENDROOT
BRANCH   1   5
HETATM    5  C   UNL     1      25.402  48.313  49.493  1.00  0.00     0.124 C 
BRANCH   5   6
HETATM    6  C   UNL     1      25.137  46.973  50.189  1.00  0.00     0.047 C 
BRANCH   6   7
HETATM    7  C   UNL     1      26.273  45.997  49.908  1.00  0.00     0.236 C 
BRANCH   7   8
HETATM    8  N   UNL     1      26.262  44.855  50.905  1.00  0.00    -0.068 N 
HETATM    9  C   UNL     1      27.583  44.061  50.910  1.00  0.00     0.254 C 
HETATM   10  C   UNL     1      27.543  42.931  51.963  1.00  0.00     0.150 C 
HETATM   11  N   UNL     1      27.183  43.447  53.298  1.00  0.00    -0.378 N 
HETATM   12  C   UNL     1      25.899  44.178  53.318  1.00  0.00     0.150 C 
HETATM   13  C   UNL     1      25.936  45.355  52.320  1.00  0.00     0.254 C 
HETATM   14  H   UNL     1      25.517  44.198  50.643  1.00  0.00     0.280 HD
BRANCH  11  15
HETATM   15  C   UNL     1      28.170  43.877  54.190  1.00  0.00     0.030 A 
HETATM   16  C   UNL     1      29.392  43.211  54.378  1.00  0.00     0.032 A 
HETATM   17  C   UNL     1      30.369  43.681  55.272  1.00  0.00     0.039 A 
HETATM   18  C   UNL     1      30.142  44.828  56.024  1.00  0.00     0.068 A 
HETATM   19  C   UNL     1      28.923  45.481  55.888  1.00  0.00     0.039 A 
HETATM   20  C   UNL     1      27.954  45.008  54.994  1.00  0.00     0.032 A 
BRANCH  18  21
HETATM   21  O   UNL     1      31.003  45.395  56.919  1.00  0.00    -0.356 OA
HETATM   22  C   UNL     1      30.464  45.797  58.172  1.00  0.00     0.210 C 
ENDBRANCH  18  21
ENDBRANCH  11  15
ENDBRANCH   7   8
ENDBRANCH   6   7
ENDBRANCH   5   6
ENDBRANCH   1   5
BRANCH   2  23
HETATM   23  C   UNL     1      22.961  50.661  47.786  1.00  0.00     0.105 C 
BRANCH  23  24
HETATM   24  C   UNL     1      22.247  51.063  49.076  1.00  0.00     0.046 C 
BRANCH  24  25
HETATM   25  C   UNL     1      20.824  50.525  49.222  1.00  0.00     0.203 A 
HETATM   26  N   UNL     1      19.881  51.346  48.420  1.00  0.00    -0.257 NA
HETATM   27  C   UNL     1      19.414  50.518  47.532  1.00  0.00     0.147 A 
HETATM   28  N   UNL     1      19.837  49.220  47.584  1.00  0.00    -0.239 N 
HETATM   29  C   UNL     1      18.464  50.902  46.482  1.00  0.00     0.037 A 
HETATM   30  C   UNL     1      19.422  48.217  46.699  1.00  0.00     0.187 A 
HETATM   31  C   UNL     1      20.712  49.127  48.645  1.00  0.00     0.257 A 
HETATM   32  S   UNL     1      19.888  46.611  46.695  1.00  0.00    -0.040 SA
HETATM   33  N   UNL     1      18.530  48.609  45.725  1.00  0.00    -0.332 N 
HETATM   34  C   UNL     1      18.047  49.914  45.593  1.00  0.00     0.048 A 
HETATM   35  H   UNL     1      18.226  47.892  45.073  1.00  0.00     0.168 HD
HETATM   36  C   UNL     1      17.152  50.224  44.570  1.00  0.00     0.030 A 
HETATM   37  C   UNL     1      16.680  51.533  44.442  1.00  0.00     0.002 A 
HETATM   38  C   UNL     1      17.101  52.524  45.333  1.00  0.00     0.001 A 
HETATM   39  C   UNL     1      17.996  52.211  46.357  1.00  0.00     0.017 A 
HETATM   40  O   UNL     1      21.305  48.162  49.101  1.00  0.00    -0.270 OA
ENDBRANCH  24  25
ENDBRANCH  23  24
ENDBRANCH   2  23
TORSDOF 9
ENDMDL
MODEL 3
REMARK VINA RESULT:      -9.2      1.887      2.461
REMARK  9 active torsions:
REMARK  status: ('A' for Active; 'I' for Inactive)
REMARK    1  A    between atoms: O_2  and  C_3 
REMARK    2  A    between atoms: C_6  and  N_7 
REMARK    3  A    between atoms: N_10  and  C_12 
REMARK    4  A    between atoms: C_12  and  C_13 
REMARK    5  A    between atoms: C_13  and  C_14 
REMARK    6  A    between atoms: C_14  and  N_15 
REMARK       I    between atoms: N_15  and  C_16 
REMARK    7  A    between atoms: C_16  and  C_17 
REMARK    8  A    between atoms: C_17  and  C_18 
REMARK    9  A    between atoms: C_18  and  C_19 
ROOT
HETATM    1  N   UNL     1      23.994  46.981  49.421  1.00  0.00    -0.361 N 
HETATM    2  C   UNL     1      24.919  47.944  49.771  1.00  0.00     0.217 C 
HETATM    3  O   UNL     1      24.782  49.129  49.477  1.00  0.00    -0.274 OA
HETATM    4  H   UNL     1      24.300  46.013  49.503  1.00  0.00     0.162 HD
ENDROOT
BRANCH   1   5
HETATM    5  C   UNL     1      22.919  47.288  48.503  1.00  0.00     0.124 C 
BRANCH   5   6
HETATM    6  C   UNL     1      21.787  46.254  48.530  1.00  0.00     0.047 C 
BRANCH   6   7
HETATM    7  C   UNL     1      20.446  46.943  48.750  1.00  0.00     0.236 C 
BRANCH   7   8
HETATM    8  N   UNL     1      20.472  48.359  48.210  1.00  0.00    -0.068 N 
HETATM    9  C   UNL     1      19.336  48.630  47.203  1.00  0.00     0.254 C 
HETATM   10  C   UNL     1      19.377  50.093  46.706  1.00  0.00     0.150 C 
HETATM   11  N   UNL     1      19.381  51.047  47.831  1.00  0.00    -0.378 N 
HETATM   12  C   UNL     1      20.487  50.825  48.786  1.00  0.00     0.150 C 
HETATM   13  C   UNL     1      20.430  49.389  49.349  1.00  0.00     0.254 C 
HETATM   14  H   UNL     1      21.358  48.504  47.710  1.00  0.00     0.280 HD
BRANCH  11  15
HETATM   15  C   UNL     1      18.183  51.542  48.356  1.00  0.00     0.030 A 
HETATM   16  C   UNL     1      18.093  52.220  49.582  1.00  0.00     0.032 A 
HETATM   17  C   UNL     1      16.874  52.720  50.071  1.00  0.00     0.039 A 
HETATM   18  C   UNL     1      15.698  52.537  49.352  1.00  0.00     0.068 A 
HETATM   19  C   UNL     1      15.754  51.832  48.156  1.00  0.00     0.039 A 
HETATM   20  C   UNL     1      16.972  51.338  47.673  1.00  0.00     0.032 A 
BRANCH  18  21
HETATM   21  O   UNL     1      14.455  52.974  49.706  1.00  0.00    -0.356 OA
HETATM   22  C   UNL     1      14.357  53.782  50.872  1.00  0.00     0.210 C 
ENDBRANCH  18  21
ENDBRANCH  11  15
ENDBRANCH   7   8
ENDBRANCH   6   7
ENDBRANCH   5   6
ENDBRANCH   1   5
BRANCH   2  23
HETATM   23  C   UNL     1      26.112  47.428  50.544  1.00  0.00     0.105 C 
BRANCH  23  24
HETATM   24  C   UNL     1      26.117  45.910  50.725  1.00  0.00     0.046 C 
BRANCH  24  25
HETATM   25  C   UNL     1      25.847  45.428  52.150  1.00  0.00     0.203 A 
HETATM   26  N   UNL     1      26.939  44.529  52.602  1.00  0.00    -0.257 NA
HETATM   27  C   UNL     1      27.476  45.160  53.605  1.00  0.00     0.147 A 
HETATM   28  N   UNL     1      26.926  46.354  53.978  1.00  0.00    -0.239 N 
HETATM   29  C   UNL     1      28.637  44.662  54.352  1.00  0.00     0.037 A 
HETATM   30  C   UNL     1      27.394  47.143  55.035  1.00  0.00     0.187 A 
HETATM   31  C   UNL     1      25.868  46.589  53.127  1.00  0.00     0.257 A 
HETATM   32  S   UNL     1      26.779  48.609  55.555  1.00  0.00    -0.040 SA
HETATM   33  N   UNL     1      28.484  46.648  55.718  1.00  0.00    -0.332 N 
HETATM   34  C   UNL     1      29.113  45.440  55.405  1.00  0.00     0.048 A 
HETATM   35  H   UNL     1      28.836  47.215  56.484  1.00  0.00     0.168 HD
HETATM   36  C   UNL     1      30.218  45.019  56.143  1.00  0.00     0.030 A 
HETATM   37  C   UNL     1      30.845  43.814  55.817  1.00  0.00     0.002 A 
HETATM   38  C   UNL     1      30.368  43.035  54.761  1.00  0.00     0.001 A 
HETATM   39  C   UNL     1      29.260  43.457  54.023  1.00  0.00     0.017 A 
HETATM   40  O   UNL     1      25.059  47.503  53.102  1.00  0.00    -0.270 OA
ENDBRANCH  24  25
ENDBRANCH  23  24
ENDBRANCH   2  23
TORSDOF 9
ENDMDL
MODEL 4
REMARK VINA RESULT:      -9.0      3.227     11.222
REMARK  9 active torsions:
REMARK  status: ('A' for Active; 'I' for Inactive)
REMARK    1  A    between atoms: O_2  and  C_3 
REMARK    2  A    between atoms: C_6  and  N_7 
REMARK    3  A    between atoms: N_10  and  C_12 
REMARK    4  A    between atoms: C_12  and  C_13 
REMARK    5  A    between atoms: C_13  and  C_14 
REMARK    6  A    between atoms: C_14  and  N_15 
REMARK       I    between atoms: N_15  and  C_16 
REMARK    7  A    between atoms: C_16  and  C_17 
REMARK    8  A    between atoms: C_17  and  C_18 
REMARK    9  A    between atoms: C_18  and  C_19 
ROOT
HETATM    1  N   UNL     1      24.132  48.361  49.233  1.00  0.00    -0.361 N 
HETATM    2  C   UNL     1      24.772  49.503  48.793  1.00  0.00     0.217 C 
HETATM    3  O   UNL     1      25.921  49.785  49.123  1.00  0.00    -0.274 OA
HETATM    4  H   UNL     1      23.123  48.330  49.097  1.00  0.00     0.162 HD
ENDROOT
BRANCH   1   5
HETATM    5  C   UNL     1      24.713  47.544  50.276  1.00  0.00     0.124 C 
BRANCH   5   6
HETATM    6  C   UNL     1      25.796  46.588  49.763  1.00  0.00     0.047 C 
BRANCH   6   7
HETATM    7  C   UNL     1      25.186  45.236  49.413  1.00  0.00     0.236 C 
BRANCH   7   8
HETATM    8  N   UNL     1      25.655  44.167  50.379  1.00  0.00    -0.068 N 
HETATM    9  C   UNL     1      27.187  43.991  50.369  1.00  0.00     0.254 C 
HETATM   10  C   UNL     1      27.625  42.919  51.392  1.00  0.00     0.150 C 
HETATM   11  N   UNL     1      27.093  43.205  52.738  1.00  0.00    -0.378 N 
HETATM   12  C   UNL     1      25.621  43.338  52.771  1.00  0.00     0.150 C 
HETATM   13  C   UNL     1      25.161  44.450  51.806  1.00  0.00     0.254 C 
HETATM   14  H   UNL     1      25.247  43.267  50.096  1.00  0.00     0.280 HD
BRANCH  11  15
HETATM   15  C   UNL     1      27.819  43.982  53.647  1.00  0.00     0.030 A 
HETATM   16  C   UNL     1      27.478  45.300  53.987  1.00  0.00     0.032 A 
HETATM   17  C   UNL     1      28.221  46.047  54.918  1.00  0.00     0.039 A 
HETATM   18  C   UNL     1      29.346  45.498  55.524  1.00  0.00     0.068 A 
HETATM   19  C   UNL     1      29.728  44.210  55.171  1.00  0.00     0.039 A 
HETATM   20  C   UNL     1      28.982  43.470  54.244  1.00  0.00     0.032 A 
BRANCH  18  21
HETATM   21  O   UNL     1      30.150  46.106  56.444  1.00  0.00    -0.356 OA
HETATM   22  C   UNL     1      29.883  45.841  57.815  1.00  0.00     0.210 C 
ENDBRANCH  18  21
ENDBRANCH  11  15
ENDBRANCH   7   8
ENDBRANCH   6   7
ENDBRANCH   5   6
ENDBRANCH   1   5
BRANCH   2  23
HETATM   23  C   UNL     1      23.948  50.380  47.876  1.00  0.00     0.105 C 
BRANCH  23  24
HETATM   24  C   UNL     1      22.798  51.098  48.583  1.00  0.00     0.046 C 
BRANCH  24  25
HETATM   25  C   UNL     1      21.401  50.722  48.092  1.00  0.00     0.203 A 
HETATM   26  N   UNL     1      21.455  49.462  47.309  1.00  0.00    -0.257 NA
HETATM   27  C   UNL     1      20.735  48.627  48.001  1.00  0.00     0.147 A 
HETATM   28  N   UNL     1      20.137  49.089  49.138  1.00  0.00    -0.239 N 
HETATM   29  C   UNL     1      20.534  47.222  47.627  1.00  0.00     0.037 A 
HETATM   30  C   UNL     1      19.334  48.311  49.981  1.00  0.00     0.187 A 
HETATM   31  C   UNL     1      20.481  50.418  49.259  1.00  0.00     0.257 A 
HETATM   32  S   UNL     1      18.566  48.798  51.385  1.00  0.00    -0.040 SA
HETATM   33  N   UNL     1      19.164  46.997  49.603  1.00  0.00    -0.332 N 
HETATM   34  C   UNL     1      19.740  46.437  48.459  1.00  0.00     0.048 A 
HETATM   35  H   UNL     1      18.589  46.420  50.209  1.00  0.00     0.168 HD
HETATM   36  C   UNL     1      19.523  45.093  48.157  1.00  0.00     0.030 A 
HETATM   37  C   UNL     1      20.110  44.541  47.016  1.00  0.00     0.002 A 
HETATM   38  C   UNL     1      20.908  45.329  46.182  1.00  0.00     0.001 A 
HETATM   39  C   UNL     1      21.123  46.674  46.486  1.00  0.00     0.017 A 
HETATM   40  O   UNL     1      20.150  51.250  50.089  1.00  0.00    -0.270 OA
ENDBRANCH  24  25
ENDBRANCH  23  24
ENDBRANCH   2  23
TORSDOF 9
ENDMDL
MODEL 5
REMARK VINA RESULT:      -8.8      2.068      2.813
REMARK  9 active torsions:
REMARK  status: ('A' for Active; 'I' for Inactive)
REMARK    1  A    between atoms: O_2  and  C_3 
REMARK    2  A    between atoms: C_6  and  N_7 
REMARK    3  A    between atoms: N_10  and  C_12 
REMARK    4  A    between atoms: C_12  and  C_13 
REMARK    5  A    between atoms: C_13  and  C_14 
REMARK    6  A    between atoms: C_14  and  N_15 
REMARK       I    between atoms: N_15  and  C_16 
REMARK    7  A    between atoms: C_16  and  C_17 
REMARK    8  A    between atoms: C_17  and  C_18 
REMARK    9  A    between atoms: C_18  and  C_19 
ROOT
HETATM    1  N   UNL     1      23.698  46.712  50.071  1.00  0.00    -0.361 N 
HETATM    2  C   UNL     1      24.160  45.427  49.870  1.00  0.00     0.217 C 
HETATM    3  O   UNL     1      24.681  45.069  48.817  1.00  0.00    -0.274 OA
HETATM    4  H   UNL     1      23.084  46.849  50.872  1.00  0.00     0.162 HD
ENDROOT
BRANCH   1   5
HETATM    5  C   UNL     1      23.613  47.648  48.970  1.00  0.00     0.124 C 
BRANCH   5   6
HETATM    6  C   UNL     1      22.222  48.273  48.815  1.00  0.00     0.047 C 
BRANCH   6   7
HETATM    7  C   UNL     1      22.254  49.742  49.221  1.00  0.00     0.236 C 
BRANCH   7   8
HETATM    8  N   UNL     1      20.949  50.149  49.873  1.00  0.00    -0.068 N 
HETATM    9  C   UNL     1      20.296  51.364  49.183  1.00  0.00     0.254 C 
HETATM   10  C   UNL     1      18.951  51.723  49.855  1.00  0.00     0.150 C 
HETATM   11  N   UNL     1      18.052  50.556  49.925  1.00  0.00    -0.378 N 
HETATM   12  C   UNL     1      18.649  49.396  50.618  1.00  0.00     0.150 C 
HETATM   13  C   UNL     1      19.962  48.973  49.926  1.00  0.00     0.254 C 
HETATM   14  H   UNL     1      21.138  50.422  50.846  1.00  0.00     0.280 HD
BRANCH  11  15
HETATM   15  C   UNL     1      17.152  50.280  48.890  1.00  0.00     0.030 A 
HETATM   16  C   UNL     1      16.775  48.981  48.514  1.00  0.00     0.032 A 
HETATM   17  C   UNL     1      15.854  48.741  47.480  1.00  0.00     0.039 A 
HETATM   18  C   UNL     1      15.297  49.800  46.773  1.00  0.00     0.068 A 
HETATM   19  C   UNL     1      15.686  51.093  47.098  1.00  0.00     0.039 A 
HETATM   20  C   UNL     1      16.603  51.326  48.131  1.00  0.00     0.032 A 
BRANCH  18  21
HETATM   21  O   UNL     1      14.391  49.709  45.756  1.00  0.00    -0.356 OA
HETATM   22  C   UNL     1      14.177  50.876  44.972  1.00  0.00     0.210 C 
ENDBRANCH  18  21
ENDBRANCH  11  15
ENDBRANCH   7   8
ENDBRANCH   6   7
ENDBRANCH   5   6
ENDBRANCH   1   5
BRANCH   2  23
HETATM   23  C   UNL     1      23.974  44.494  51.046  1.00  0.00     0.105 C 
BRANCH  23  24
HETATM   24  C   UNL     1      24.921  44.778  52.212  1.00  0.00     0.046 C 
BRANCH  24  25
HETATM   25  C   UNL     1      26.400  44.859  51.838  1.00  0.00     0.203 A 
HETATM   26  N   UNL     1      27.190  45.376  52.985  1.00  0.00    -0.257 NA
HETATM   27  C   UNL     1      27.985  44.393  53.293  1.00  0.00     0.147 A 
HETATM   28  N   UNL     1      27.925  43.260  52.530  1.00  0.00    -0.239 N 
HETATM   29  C   UNL     1      28.935  44.434  54.410  1.00  0.00     0.037 A 
HETATM   30  C   UNL     1      28.716  42.124  52.740  1.00  0.00     0.187 A 
HETATM   31  C   UNL     1      26.966  43.479  51.565  1.00  0.00     0.257 A 
HETATM   32  S   UNL     1      28.707  40.705  51.856  1.00  0.00    -0.040 SA
HETATM   33  N   UNL     1      29.599  42.194  53.796  1.00  0.00    -0.332 N 
HETATM   34  C   UNL     1      29.726  43.308  54.630  1.00  0.00     0.048 A 
HETATM   35  H   UNL     1      30.175  41.374  53.961  1.00  0.00     0.168 HD
HETATM   36  C   UNL     1      30.639  43.289  55.683  1.00  0.00     0.030 A 
HETATM   37  C   UNL     1      30.753  44.405  56.516  1.00  0.00     0.002 A 
HETATM   38  C   UNL     1      29.958  45.532  56.296  1.00  0.00     0.001 A 
HETATM   39  C   UNL     1      29.045  45.550  55.240  1.00  0.00     0.017 A 
HETATM   40  O   UNL     1      26.597  42.772  50.640  1.00  0.00    -0.270 OA
ENDBRANCH  24  25
ENDBRANCH  23  24
ENDBRANCH   2  23
TORSDOF 9
ENDMDL
MODEL 6
REMARK VINA RESULT:      -8.8      3.018      5.190
REMARK  9 active torsions:
REMARK  status: ('A' for Active; 'I' for Inactive)
REMARK    1  A    between atoms: O_2  and  C_3 
REMARK    2  A    between atoms: C_6  and  N_7 
REMARK    3  A    between atoms: N_10  and  C_12 
REMARK    4  A    between atoms: C_12  and  C_13 
REMARK    5  A    between atoms: C_13  and  C_14 
REMARK    6  A    between atoms: C_14  and  N_15 
REMARK       I    between atoms: N_15  and  C_16 
REMARK    7  A    between atoms: C_16  and  C_17 
REMARK    8  A    between atoms: C_17  and  C_18 
REMARK    9  A    between atoms: C_18  and  C_19 
ROOT
HETATM    1  N   UNL     1      20.609  44.891  47.543  1.00  0.00    -0.361 N 
HETATM    2  C   UNL     1      21.860  45.329  47.157  1.00  0.00     0.217 C 
HETATM    3  O   UNL     1      22.028  46.349  46.495  1.00  0.00    -0.274 OA
HETATM    4  H   UNL     1      20.553  43.932  47.883  1.00  0.00     0.162 HD
ENDROOT
BRANCH   1   5
HETATM    5  C   UNL     1      19.414  45.503  47.003  1.00  0.00     0.124 C 
BRANCH   5   6
HETATM    6  C   UNL     1      18.306  45.689  48.047  1.00  0.00     0.047 C 
BRANCH   6   7
HETATM    7  C   UNL     1      17.351  46.794  47.614  1.00  0.00     0.236 C 
BRANCH   7   8
HETATM    8  N   UNL     1      17.813  48.140  48.132  1.00  0.00    -0.068 N 
HETATM    9  C   UNL     1      18.549  48.034  49.483  1.00  0.00     0.254 C 
HETATM   10  C   UNL     1      19.035  49.423  49.957  1.00  0.00     0.150 C 
HETATM   11  N   UNL     1      19.839  50.098  48.921  1.00  0.00    -0.378 N 
HETATM   12  C   UNL     1      19.133  50.242  47.631  1.00  0.00     0.150 C 
HETATM   13  C   UNL     1      18.695  48.861  47.101  1.00  0.00     0.254 C 
HETATM   14  H   UNL     1      16.988  48.734  48.285  1.00  0.00     0.280 HD
BRANCH  11  15
HETATM   15  C   UNL     1      21.227  49.930  48.867  1.00  0.00     0.030 A 
HETATM   16  C   UNL     1      22.119  50.948  48.496  1.00  0.00     0.032 A 
HETATM   17  C   UNL     1      23.510  50.749  48.469  1.00  0.00     0.039 A 
HETATM   18  C   UNL     1      24.051  49.511  48.795  1.00  0.00     0.068 A 
HETATM   19  C   UNL     1      23.186  48.475  49.124  1.00  0.00     0.039 A 
HETATM   20  C   UNL     1      21.800  48.679  49.151  1.00  0.00     0.032 A 
BRANCH  18  21
HETATM   21  O   UNL     1      25.376  49.185  48.817  1.00  0.00    -0.356 OA
HETATM   22  C   UNL     1      26.254  49.982  48.032  1.00  0.00     0.210 C 
ENDBRANCH  18  21
ENDBRANCH  11  15
ENDBRANCH   7   8
ENDBRANCH   6   7
ENDBRANCH   5   6
ENDBRANCH   1   5
BRANCH   2  23
HETATM   23  C   UNL     1      23.007  44.454  47.612  1.00  0.00     0.105 C 
BRANCH  23  24
HETATM   24  C   UNL     1      23.468  44.739  49.042  1.00  0.00     0.046 C 
BRANCH  24  25
HETATM   25  C   UNL     1      24.969  44.979  49.202  1.00  0.00     0.203 A 
HETATM   26  N   UNL     1      25.220  45.919  50.324  1.00  0.00    -0.257 NA
HETATM   27  C   UNL     1      25.895  45.213  51.184  1.00  0.00     0.147 A 
HETATM   28  N   UNL     1      26.206  43.925  50.850  1.00  0.00    -0.239 N 
HETATM   29  C   UNL     1      26.335  45.723  52.488  1.00  0.00     0.037 A 
HETATM   30  C   UNL     1      26.925  43.048  51.671  1.00  0.00     0.187 A 
HETATM   31  C   UNL     1      25.683  43.700  49.596  1.00  0.00     0.257 A 
HETATM   32  S   UNL     1      27.348  41.464  51.338  1.00  0.00    -0.040 SA
HETATM   33  N   UNL     1      27.325  43.556  52.888  1.00  0.00    -0.332 N 
HETATM   34  C   UNL     1      27.049  44.858  53.315  1.00  0.00     0.048 A 
HETATM   35  H   UNL     1      27.843  42.928  53.494  1.00  0.00     0.168 HD
HETATM   36  C   UNL     1      27.484  45.287  54.568  1.00  0.00     0.030 A 
HETATM   37  C   UNL     1      27.197  46.587  54.988  1.00  0.00     0.002 A 
HETATM   38  C   UNL     1      26.479  47.454  54.159  1.00  0.00     0.001 A 
HETATM   39  C   UNL     1      26.045  47.023  52.905  1.00  0.00     0.017 A 
HETATM   40  O   UNL     1      25.745  42.716  48.876  1.00  0.00    -0.270 OA
ENDBRANCH  24  25
ENDBRANCH  23  24
ENDBRANCH   2  23
TORSDOF 9
ENDMDL
MODEL 7
REMARK VINA RESULT:      -8.6      1.837      2.691
REMARK  9 active torsions:
REMARK  status: ('A' for Active; 'I' for Inactive)
REMARK    1  A    between atoms: O_2  and  C_3 
REMARK    2  A    between atoms: C_6  and  N_7 
REMARK    3  A    between atoms: N_10  and  C_12 
REMARK    4  A    between atoms: C_12  and  C_13 
REMARK    5  A    between atoms: C_13  and  C_14 
REMARK    6  A    between atoms: C_14  and  N_15 
REMARK       I    between atoms: N_15  and  C_16 
REMARK    7  A    between atoms: C_16  and  C_17 
REMARK    8  A    between atoms: C_17  and  C_18 
REMARK    9  A    between atoms: C_18  and  C_19 
ROOT
HETATM    1  N   UNL     1      24.921  43.108  49.264  1.00  0.00    -0.361 N 
HETATM    2  C   UNL     1      25.873  42.377  49.946  1.00  0.00     0.217 C 
HETATM    3  O   UNL     1      25.654  41.249  50.379  1.00  0.00    -0.274 OA
HETATM    4  H   UNL     1      25.114  44.102  49.149  1.00  0.00     0.162 HD
ENDROOT
BRANCH   1   5
HETATM    5  C   UNL     1      23.545  42.663  49.211  1.00  0.00     0.124 C 
BRANCH   5   6
HETATM    6  C   UNL     1      22.535  43.807  49.352  1.00  0.00     0.047 C 
BRANCH   6   7
HETATM    7  C   UNL     1      21.613  43.851  48.139  1.00  0.00     0.236 C 
BRANCH   7   8
HETATM    8  N   UNL     1      21.667  45.209  47.469  1.00  0.00    -0.068 N 
HETATM    9  C   UNL     1      20.323  45.607  46.828  1.00  0.00     0.254 C 
HETATM   10  C   UNL     1      20.411  47.011  46.188  1.00  0.00     0.150 C 
HETATM   11  N   UNL     1      20.902  48.015  47.152  1.00  0.00    -0.378 N 
HETATM   12  C   UNL     1      22.209  47.667  47.747  1.00  0.00     0.150 C 
HETATM   13  C   UNL     1      22.131  46.296  48.451  1.00  0.00     0.254 C 
HETATM   14  H   UNL     1      22.363  45.175  46.714  1.00  0.00     0.280 HD
BRANCH  11  15
HETATM   15  C   UNL     1      20.012  48.733  47.956  1.00  0.00     0.030 A 
HETATM   16  C   UNL     1      19.238  48.148  48.971  1.00  0.00     0.032 A 
HETATM   17  C   UNL     1      18.365  48.904  49.773  1.00  0.00     0.039 A 
HETATM   18  C   UNL     1      18.225  50.271  49.568  1.00  0.00     0.068 A 
HETATM   19  C   UNL     1      18.949  50.866  48.541  1.00  0.00     0.039 A 
HETATM   20  C   UNL     1      19.818  50.108  47.746  1.00  0.00     0.032 A 
BRANCH  18  21
HETATM   21  O   UNL     1      17.423  51.120  50.273  1.00  0.00    -0.356 OA
HETATM   22  C   UNL     1      17.379  52.477  49.848  1.00  0.00     0.210 C 
ENDBRANCH  18  21
ENDBRANCH  11  15
ENDBRANCH   7   8
ENDBRANCH   6   7
ENDBRANCH   5   6
ENDBRANCH   1   5
BRANCH   2  23
HETATM   23  C   UNL     1      27.205  43.073  50.118  1.00  0.00     0.105 C 
BRANCH  23  24
HETATM   24  C   UNL     1      27.132  44.335  50.977  1.00  0.00     0.046 C 
BRANCH  24  25
HETATM   25  C   UNL     1      26.729  44.105  52.433  1.00  0.00     0.203 A 
HETATM   26  N   UNL     1      27.886  43.594  53.210  1.00  0.00    -0.257 NA
HETATM   27  C   UNL     1      28.112  44.523  54.093  1.00  0.00     0.147 A 
HETATM   28  N   UNL     1      27.281  45.607  54.106  1.00  0.00    -0.239 N 
HETATM   29  C   UNL     1      29.206  44.469  55.069  1.00  0.00     0.037 A 
HETATM   30  C   UNL     1      27.399  46.682  54.995  1.00  0.00     0.187 A 
HETATM   31  C   UNL     1      26.355  45.414  53.104  1.00  0.00     0.257 A 
HETATM   32  S   UNL     1      26.428  48.041  55.078  1.00  0.00    -0.040 SA
HETATM   33  N   UNL     1      28.435  46.601  55.900  1.00  0.00    -0.332 N 
HETATM   34  C   UNL     1      29.335  45.534  55.958  1.00  0.00     0.048 A 
HETATM   35  H   UNL     1      28.535  47.378  56.547  1.00  0.00     0.168 HD
HETATM   36  C   UNL     1      30.362  45.539  56.900  1.00  0.00     0.030 A 
HETATM   37  C   UNL     1      31.260  44.470  56.945  1.00  0.00     0.002 A 
HETATM   38  C   UNL     1      31.132  43.403  56.052  1.00  0.00     0.001 A 
HETATM   39  C   UNL     1      30.102  43.399  55.110  1.00  0.00     0.017 A 
HETATM   40  O   UNL     1      25.397  46.091  52.768  1.00  0.00    -0.270 OA
ENDBRANCH  24  25
ENDBRANCH  23  24
ENDBRANCH   2  23
TORSDOF 9
ENDMDL
MODEL 8
REMARK VINA RESULT:      -8.5      2.086      3.020
REMARK  9 active torsions:
REMARK  status: ('A' for Active; 'I' for Inactive)
REMARK    1  A    between atoms: O_2  and  C_3 
REMARK    2  A    between atoms: C_6  and  N_7 
REMARK    3  A    between atoms: N_10  and  C_12 
REMARK    4  A    between atoms: C_12  and  C_13 
REMARK    5  A    between atoms: C_13  and  C_14 
REMARK    6  A    between atoms: C_14  and  N_15 
REMARK       I    between atoms: N_15  and  C_16 
REMARK    7  A    between atoms: C_16  and  C_17 
REMARK    8  A    between atoms: C_17  and  C_18 
REMARK    9  A    between atoms: C_18  and  C_19 
ROOT
HETATM    1  N   UNL     1      21.747  44.775  49.183  1.00  0.00    -0.361 N 
HETATM    2  C   UNL     1      22.345  43.645  48.662  1.00  0.00     0.217 C 
HETATM    3  O   UNL     1      21.860  43.011  47.729  1.00  0.00    -0.274 OA
HETATM    4  H   UNL     1      22.094  45.091  50.087  1.00  0.00     0.162 HD
ENDROOT
BRANCH   1   5
HETATM    5  C   UNL     1      20.404  45.147  48.791  1.00  0.00     0.124 C 
BRANCH   5   6
HETATM    6  C   UNL     1      20.305  46.585  48.269  1.00  0.00     0.047 C 
BRANCH   6   7
HETATM    7  C   UNL     1      21.472  47.418  48.786  1.00  0.00     0.236 C 
BRANCH   7   8
HETATM    8  N   UNL     1      20.975  48.657  49.502  1.00  0.00    -0.068 N 
HETATM    9  C   UNL     1      21.190  49.943  48.679  1.00  0.00     0.254 C 
HETATM   10  C   UNL     1      20.637  51.177  49.428  1.00  0.00     0.150 C 
HETATM   11  N   UNL     1      19.229  50.982  49.825  1.00  0.00    -0.378 N 
HETATM   12  C   UNL     1      19.012  49.774  50.648  1.00  0.00     0.150 C 
HETATM   13  C   UNL     1      19.496  48.518  49.894  1.00  0.00     0.254 C 
HETATM   14  H   UNL     1      21.505  48.767  50.375  1.00  0.00     0.280 HD
BRANCH  11  15
HETATM   15  C   UNL     1      18.185  51.366  48.977  1.00  0.00     0.030 A 
HETATM   16  C   UNL     1      16.827  51.235  49.308  1.00  0.00     0.032 A 
HETATM   17  C   UNL     1      15.803  51.647  48.438  1.00  0.00     0.039 A 
HETATM   18  C   UNL     1      16.111  52.187  47.194  1.00  0.00     0.068 A 
HETATM   19  C   UNL     1      17.447  52.288  46.826  1.00  0.00     0.039 A 
HETATM   20  C   UNL     1      18.463  51.877  47.698  1.00  0.00     0.032 A 
BRANCH  18  21
HETATM   21  O   UNL     1      15.220  52.631  46.260  1.00  0.00    -0.356 OA
HETATM   22  C   UNL     1      15.590  52.493  44.894  1.00  0.00     0.210 C 
ENDBRANCH  18  21
ENDBRANCH  11  15
ENDBRANCH   7   8
ENDBRANCH   6   7
ENDBRANCH   5   6
ENDBRANCH   1   5
BRANCH   2  23
HETATM   23  C   UNL     1      23.643  43.248  49.330  1.00  0.00     0.105 C 
BRANCH  23  24
HETATM   24  C   UNL     1      23.961  44.061  50.585  1.00  0.00     0.046 C 
BRANCH  24  25
HETATM   25  C   UNL     1      25.280  44.832  50.538  1.00  0.00     0.203 A 
HETATM   26  N   UNL     1      25.282  45.904  51.566  1.00  0.00    -0.257 NA
HETATM   27  C   UNL     1      26.250  45.571  52.370  1.00  0.00     0.147 A 
HETATM   28  N   UNL     1      26.973  44.451  52.070  1.00  0.00    -0.239 N 
HETATM   29  C   UNL     1      26.602  46.328  53.577  1.00  0.00     0.037 A 
HETATM   30  C   UNL     1      28.041  43.971  52.838  1.00  0.00     0.187 A 
HETATM   31  C   UNL     1      26.446  43.934  50.907  1.00  0.00     0.257 A 
HETATM   32  S   UNL     1      28.975  42.616  52.541  1.00  0.00    -0.040 SA
HETATM   33  N   UNL     1      28.347  44.704  53.964  1.00  0.00    -0.332 N 
HETATM   34  C   UNL     1      27.660  45.858  54.351  1.00  0.00     0.048 A 
HETATM   35  H   UNL     1      29.116  44.362  54.533  1.00  0.00     0.168 HD
HETATM   36  C   UNL     1      28.032  46.533  55.513  1.00  0.00     0.030 A 
HETATM   37  C   UNL     1      27.334  47.681  55.895  1.00  0.00     0.002 A 
HETATM   38  C   UNL     1      26.272  48.151  55.119  1.00  0.00     0.001 A 
HETATM   39  C   UNL     1      25.902  47.474  53.956  1.00  0.00     0.017 A 
HETATM   40  O   UNL     1      26.790  42.972  50.239  1.00  0.00    -0.270 OA
ENDBRANCH  24  25
ENDBRANCH  23  24
ENDBRANCH   2  23
TORSDOF 9
ENDMDL
MODEL 9
REMARK VINA RESULT:      -8.3      2.688      3.560
REMARK  9 active torsions:
REMARK  status: ('A' for Active; 'I' for Inactive)
REMARK    1  A    between atoms: O_2  and  C_3 
REMARK    2  A    between atoms: C_6  and  N_7 
REMARK    3  A    between atoms: N_10  and  C_12 
REMARK    4  A    between atoms: C_12  and  C_13 
REMARK    5  A    between atoms: C_13  and  C_14 
REMARK    6  A    between atoms: C_14  and  N_15 
REMARK       I    between atoms: N_15  and  C_16 
REMARK    7  A    between atoms: C_16  and  C_17 
REMARK    8  A    between atoms: C_17  and  C_18 
REMARK    9  A    between atoms: C_18  and  C_19 
ROOT
HETATM    1  N   UNL     1      22.199  45.575  48.736  1.00  0.00    -0.361 N 
HETATM    2  C   UNL     1      23.082  44.538  48.511  1.00  0.00     0.217 C 
HETATM    3  O   UNL     1      23.367  44.146  47.382  1.00  0.00    -0.274 OA
HETATM    4  H   UNL     1      21.855  45.674  49.690  1.00  0.00     0.162 HD
ENDROOT
BRANCH   1   5
HETATM    5  C   UNL     1      21.401  46.114  47.656  1.00  0.00     0.124 C 
BRANCH   5   6
HETATM    6  C   UNL     1      21.277  47.641  47.700  1.00  0.00     0.047 C 
BRANCH   6   7
HETATM    7  C   UNL     1      21.953  48.191  48.950  1.00  0.00     0.236 C 
BRANCH   7   8
HETATM    8  N   UNL     1      20.997  49.058  49.744  1.00  0.00    -0.068 N 
HETATM    9  C   UNL     1      21.086  50.547  49.353  1.00  0.00     0.254 C 
HETATM   10  C   UNL     1      20.070  51.390  50.158  1.00  0.00     0.150 C 
HETATM   11  N   UNL     1      18.703  50.850  50.038  1.00  0.00    -0.378 N 
HETATM   12  C   UNL     1      18.593  49.434  50.446  1.00  0.00     0.150 C 
HETATM   13  C   UNL     1      19.550  48.559  49.610  1.00  0.00     0.254 C 
HETATM   14  H   UNL     1      21.243  48.993  50.739  1.00  0.00     0.280 HD
BRANCH  11  15
HETATM   15  C   UNL     1      17.847  51.283  49.021  1.00  0.00     0.030 A 
HETATM   16  C   UNL     1      18.277  51.578  47.717  1.00  0.00     0.032 A 
HETATM   17  C   UNL     1      17.386  51.995  46.713  1.00  0.00     0.039 A 
HETATM   18  C   UNL     1      16.033  52.150  46.993  1.00  0.00     0.068 A 
HETATM   19  C   UNL     1      15.590  51.906  48.287  1.00  0.00     0.039 A 
HETATM   20  C   UNL     1      16.483  51.489  49.282  1.00  0.00     0.032 A 
BRANCH  18  21
HETATM   21  O   UNL     1      15.063  52.541  46.116  1.00  0.00    -0.356 OA
HETATM   22  C   UNL     1      15.412  53.536  45.162  1.00  0.00     0.210 C 
ENDBRANCH  18  21
ENDBRANCH  11  15
ENDBRANCH   7   8
ENDBRANCH   6   7
ENDBRANCH   5   6
ENDBRANCH   1   5
BRANCH   2  23
HETATM   23  C   UNL     1      23.671  43.922  49.761  1.00  0.00     0.105 C 
BRANCH  23  24
HETATM   24  C   UNL     1      24.501  42.666  49.494  1.00  0.00     0.046 C 
BRANCH  24  25
HETATM   25  C   UNL     1      26.002  42.904  49.338  1.00  0.00     0.203 A 
HETATM   26  N   UNL     1      26.532  43.628  50.521  1.00  0.00    -0.257 NA
HETATM   27  C   UNL     1      27.373  42.791  51.056  1.00  0.00     0.147 A 
HETATM   28  N   UNL     1      27.567  41.592  50.429  1.00  0.00    -0.239 N 
HETATM   29  C   UNL     1      28.120  43.063  52.289  1.00  0.00     0.037 A 
HETATM   30  C   UNL     1      28.439  40.595  50.883  1.00  0.00     0.187 A 
HETATM   31  C   UNL     1      26.759  41.589  49.313  1.00  0.00     0.257 A 
HETATM   32  S   UNL     1      28.734  39.108  50.178  1.00  0.00    -0.040 SA
HETATM   33  N   UNL     1      29.125  40.881  52.044  1.00  0.00    -0.332 N 
HETATM   34  C   UNL     1      28.987  42.077  52.753  1.00  0.00     0.048 A 
HETATM   35  H   UNL     1      29.756  40.163  52.386  1.00  0.00     0.168 HD
HETATM   36  C   UNL     1      29.715  42.279  53.925  1.00  0.00     0.030 A 
HETATM   37  C   UNL     1      29.564  43.475  54.631  1.00  0.00     0.002 A 
HETATM   38  C   UNL     1      28.692  44.463  54.166  1.00  0.00     0.001 A 
HETATM   39  C   UNL     1      27.966  44.259  52.992  1.00  0.00     0.017 A 
HETATM   40  O   UNL     1      26.627  40.755  48.432  1.00  0.00    -0.270 OA
ENDBRANCH  24  25
ENDBRANCH  23  24
ENDBRANCH   2  23
TORSDOF 9
ENDMDL
MODEL 10
REMARK VINA RESULT:      -8.2      3.459     10.593
REMARK  9 active torsions:
REMARK  status: ('A' for Active; 'I' for Inactive)
REMARK    1  A    between atoms: O_2  and  C_3 
REMARK    2  A    between atoms: C_6  and  N_7 
REMARK    3  A    between atoms: N_10  and  C_12 
REMARK    4  A    between atoms: C_12  and  C_13 
REMARK    5  A    between atoms: C_13  and  C_14 
REMARK    6  A    between atoms: C_14  and  N_15 
REMARK       I    between atoms: N_15  and  C_16 
REMARK    7  A    between atoms: C_16  and  C_17 
REMARK    8  A    between atoms: C_17  and  C_18 
REMARK    9  A    between atoms: C_18  and  C_19 
ROOT
HETATM    1  N   UNL     1      23.469  42.502  47.453  1.00  0.00    -0.361 N 
HETATM    2  C   UNL     1      22.188  42.517  46.939  1.00  0.00     0.217 C 
HETATM    3  O   UNL     1      21.422  41.563  47.046  1.00  0.00    -0.274 OA
HETATM    4  H   UNL     1      24.097  43.233  47.120  1.00  0.00     0.162 HD
ENDROOT
BRANCH   1   5
HETATM    5  C   UNL     1      24.047  41.276  47.961  1.00  0.00     0.124 C 
BRANCH   5   6
HETATM    6  C   UNL     1      25.504  41.436  48.410  1.00  0.00     0.047 C 
BRANCH   6   7
HETATM    7  C   UNL     1      25.569  41.729  49.904  1.00  0.00     0.236 C 
BRANCH   7   8
HETATM    8  N   UNL     1      25.419  43.213  50.169  1.00  0.00    -0.068 N 
HETATM    9  C   UNL     1      24.627  43.507  51.459  1.00  0.00     0.254 C 
HETATM   10  C   UNL     1      24.528  45.028  51.712  1.00  0.00     0.150 C 
HETATM   11  N   UNL     1      25.859  45.666  51.703  1.00  0.00    -0.378 N 
HETATM   12  C   UNL     1      26.616  45.426  50.457  1.00  0.00     0.150 C 
HETATM   13  C   UNL     1      26.786  43.912  50.215  1.00  0.00     0.254 C 
HETATM   14  H   UNL     1      24.895  43.635  49.392  1.00  0.00     0.280 HD
BRANCH  11  15
HETATM   15  C   UNL     1      26.602  45.791  52.881  1.00  0.00     0.030 A 
HETATM   16  C   UNL     1      26.540  46.912  53.723  1.00  0.00     0.032 A 
HETATM   17  C   UNL     1      27.289  46.997  54.910  1.00  0.00     0.039 A 
HETATM   18  C   UNL     1      28.143  45.965  55.279  1.00  0.00     0.068 A 
HETATM   19  C   UNL     1      28.255  44.863  54.440  1.00  0.00     0.039 A 
HETATM   20  C   UNL     1      27.504  44.783  53.260  1.00  0.00     0.032 A 
BRANCH  18  21
HETATM   21  O   UNL     1      28.919  45.915  56.401  1.00  0.00    -0.356 OA
HETATM   22  C   UNL     1      30.167  45.242  56.298  1.00  0.00     0.210 C 
ENDBRANCH  18  21
ENDBRANCH  11  15
ENDBRANCH   7   8
ENDBRANCH   6   7
ENDBRANCH   5   6
ENDBRANCH   1   5
BRANCH   2  23
HETATM   23  C   UNL     1      21.803  43.798  46.233  1.00  0.00     0.105 C 
BRANCH  23  24
HETATM   24  C   UNL     1      20.413  44.313  46.609  1.00  0.00     0.046 C 
BRANCH  24  25
HETATM   25  C   UNL     1      20.325  44.998  47.972  1.00  0.00     0.203 A 
HETATM   26  N   UNL     1      21.379  46.037  48.092  1.00  0.00    -0.257 NA
HETATM   27  C   UNL     1      20.716  47.151  48.208  1.00  0.00     0.147 A 
HETATM   28  N   UNL     1      19.351  47.083  48.230  1.00  0.00    -0.239 N 
HETATM   29  C   UNL     1      21.351  48.469  48.315  1.00  0.00     0.037 A 
HETATM   30  C   UNL     1      18.507  48.193  48.351  1.00  0.00     0.187 A 
HETATM   31  C   UNL     1      19.016  45.752  48.115  1.00  0.00     0.257 A 
HETATM   32  S   UNL     1      16.835  48.196  48.388  1.00  0.00    -0.040 SA
HETATM   33  N   UNL     1      19.134  49.416  48.450  1.00  0.00    -0.332 N 
HETATM   34  C   UNL     1      20.521  49.582  48.432  1.00  0.00     0.048 A 
HETATM   35  H   UNL     1      18.532  50.230  48.532  1.00  0.00     0.168 HD
HETATM   36  C   UNL     1      21.071  50.859  48.527  1.00  0.00     0.030 A 
HETATM   37  C   UNL     1      22.459  51.014  48.501  1.00  0.00     0.002 A 
HETATM   38  C   UNL     1      23.291  49.899  48.381  1.00  0.00     0.001 A 
HETATM   39  C   UNL     1      22.739  48.620  48.287  1.00  0.00     0.017 A 
HETATM   40  O   UNL     1      17.924  45.205  48.130  1.00  0.00    -0.270 OA
ENDBRANCH  24  25
ENDBRANCH  23  24
ENDBRANCH   2  23
TORSDOF 9
ENDMDL
