MODEL 1
REMARK VINA RESULT:     -10.0      0.000      0.000
REMARK  9 active torsions:
REMARK  status: ('A' for Active; 'I' for Inactive)
REMARK    1  A    between atoms: C_4  and  C_5 
REMARK    2  A    between atoms: C_8  and  C_9 
REMARK       I    between atoms: C_9  and  N_10 
REMARK    3  A    between atoms: N_10  and  C_11 
REMARK    4  A    between atoms: N_10  and  C_26 
REMARK    5  A    between atoms: C_11  and  C_12 
REMARK    6  A    between atoms: C_11  and  C_21 
REMARK       I    between atoms: C_12  and  N_13 
REMARK    7  A    between atoms: N_13  and  C_14 
REMARK    8  A    between atoms: C_14  and  C_15 
REMARK    9  A    between atoms: C_26  and  C_27 
ROOT
HETATM    1  C   UNL     1      26.030  46.545  53.047  1.00  0.00     0.271 C 
HETATM    2  N   UNL     1      25.977  45.348  52.328  1.00  0.00    -0.324 N 
HETATM    3  O   UNL     1      25.375  47.529  52.705  1.00  0.00    -0.266 OA
ENDROOT
BRANCH   2   4
HETATM    4  C   UNL     1      25.343  45.293  50.990  1.00  0.00     0.220 C 
BRANCH   4   5
HETATM    5  C   UNL     1      25.645  46.469  50.024  1.00  0.00     0.245 C 
HETATM    6  N   UNL     1      24.651  47.402  49.850  1.00  0.00    -0.357 N 
HETATM    7  H   UNL     1      23.730  47.190  50.237  1.00  0.00     0.162 HD
HETATM    8  O   UNL     1      26.725  46.550  49.436  1.00  0.00    -0.271 OA
BRANCH   6   9
HETATM    9  C   UNL     1      24.780  48.538  48.962  1.00  0.00     0.154 C 
BRANCH   9  10
HETATM   10  C   UNL     1      23.476  48.937  48.250  1.00  0.00     0.139 C 
HETATM   11  O   UNL     1      23.750  50.082  47.412  1.00  0.00    -0.384 OA
HETATM   12  C   UNL     1      23.078  51.227  47.951  1.00  0.00     0.168 C 
HETATM   13  C   UNL     1      22.608  50.852  49.339  1.00  0.00     0.029 C 
HETATM   14  C   UNL     1      22.360  49.372  49.194  1.00  0.00     0.035 C 
ENDBRANCH   9  10
ENDBRANCH   6   9
ENDBRANCH   4   5
BRANCH   4  15
HETATM   15  C   UNL     1      25.470  43.943  50.298  1.00  0.00     0.014 A 
HETATM   16  S   UNL     1      24.134  42.846  50.385  1.00  0.00    -0.104 SA
HETATM   17  C   UNL     1      24.935  41.665  49.454  1.00  0.00     0.050 A 
HETATM   18  C   UNL     1      26.183  42.082  49.059  1.00  0.00     0.008 A 
HETATM   19  C   UNL     1      26.485  43.392  49.535  1.00  0.00     0.017 A 
ENDBRANCH   4  15
ENDBRANCH   2   4
BRANCH   2  20
HETATM   20  C   UNL     1      26.022  44.067  53.046  1.00  0.00     0.173 C 
BRANCH  20  21
HETATM   21  C   UNL     1      27.364  43.403  52.913  1.00  0.00     0.000 A 
HETATM   22  S   UNL     1      27.597  41.861  53.641  1.00  0.00    -0.105 SA
HETATM   23  C   UNL     1      29.223  41.783  53.126  1.00  0.00     0.050 A 
HETATM   24  C   UNL     1      29.586  42.890  52.397  1.00  0.00     0.008 A 
HETATM   25  C   UNL     1      28.515  43.821  52.270  1.00  0.00     0.017 A 
ENDBRANCH  20  21
ENDBRANCH   2  20
BRANCH   1  26
HETATM   26  C   UNL     1      26.857  46.602  54.236  1.00  0.00     0.101 A 
HETATM   27  N   UNL     1      27.893  45.750  54.545  1.00  0.00    -0.351 N 
HETATM   28  C   UNL     1      28.485  46.094  55.741  1.00  0.00     0.043 A 
HETATM   29  H   UNL     1      28.173  44.962  53.978  1.00  0.00     0.166 HD
HETATM   30  C   UNL     1      27.832  47.234  56.179  1.00  0.00     0.033 A 
HETATM   31  C   UNL     1      26.839  47.565  55.230  1.00  0.00     0.037 A 
BRANCH  28  32
HETATM   32  C   UNL     1      29.587  45.335  56.341  1.00  0.00    -0.009 A 
HETATM   33  C   UNL     1      30.084  45.647  57.615  1.00  0.00     0.013 A 
HETATM   34  C   UNL     1      31.129  44.908  58.176  1.00  0.00     0.001 A 
HETATM   35  C   UNL     1      31.692  43.846  57.472  1.00  0.00     0.000 A 
HETATM   36  C   UNL     1      31.209  43.522  56.206  1.00  0.00     0.001 A 
HETATM   37  C   UNL     1      30.164  44.262  55.646  1.00  0.00     0.013 A 
ENDBRANCH  28  32
ENDBRANCH   1  26
TORSDOF 9
ENDMDL
MODEL 2
REMARK VINA RESULT:      -9.7      2.132      3.850
REMARK  9 active torsions:
REMARK  status: ('A' for Active; 'I' for Inactive)
REMARK    1  A    between atoms: C_4  and  C_5 
REMARK    2  A    between atoms: C_8  and  C_9 
REMARK       I    between atoms: C_9  and  N_10 
REMARK    3  A    between atoms: N_10  and  C_11 
REMARK    4  A    between atoms: N_10  and  C_26 
REMARK    5  A    between atoms: C_11  and  C_12 
REMARK    6  A    between atoms: C_11  and  C_21 
REMARK       I    between atoms: C_12  and  N_13 
REMARK    7  A    between atoms: N_13  and  C_14 
REMARK    8  A    between atoms: C_14  and  C_15 
REMARK    9  A    between atoms: C_26  and  C_27 
ROOT
HETATM    1  C   UNL     1      25.248  46.557  51.803  1.00  0.00     0.271 C 
HETATM    2  N   UNL     1      24.936  45.960  50.579  1.00  0.00    -0.324 N 
HETATM    3  O   UNL     1      25.066  47.758  51.997  1.00  0.00    -0.266 OA
ENDROOT
BRANCH   2   4
HETATM    4  C   UNL     1      24.622  46.786  49.389  1.00  0.00     0.220 C 
BRANCH   4   5
HETATM    5  C   UNL     1      23.148  47.247  49.227  1.00  0.00     0.245 C 
HETATM    6  N   UNL     1      22.836  48.502  49.688  1.00  0.00    -0.357 N 
HETATM    7  H   UNL     1      23.540  48.992  50.242  1.00  0.00     0.162 HD
HETATM    8  O   UNL     1      22.302  46.510  48.716  1.00  0.00    -0.271 OA
BRANCH   6   9
HETATM    9  C   UNL     1      21.499  49.056  49.629  1.00  0.00     0.154 C 
BRANCH   9  10
HETATM   10  C   UNL     1      21.441  50.586  49.774  1.00  0.00     0.139 C 
HETATM   11  O   UNL     1      20.259  50.923  50.535  1.00  0.00    -0.384 OA
HETATM   12  C   UNL     1      19.324  51.590  49.676  1.00  0.00     0.168 C 
HETATM   13  C   UNL     1      19.814  51.401  48.258  1.00  0.00     0.029 C 
HETATM   14  C   UNL     1      21.308  51.333  48.452  1.00  0.00     0.035 C 
ENDBRANCH   9  10
ENDBRANCH   6   9
ENDBRANCH   4   5
BRANCH   4  15
HETATM   15  C   UNL     1      25.602  47.924  49.147  1.00  0.00     0.014 A 
HETATM   16  S   UNL     1      27.290  47.617  49.375  1.00  0.00    -0.104 SA
HETATM   17  C   UNL     1      27.723  49.209  48.946  1.00  0.00     0.050 A 
HETATM   18  C   UNL     1      26.627  49.967  48.615  1.00  0.00     0.008 A 
HETATM   19  C   UNL     1      25.413  49.228  48.720  1.00  0.00     0.017 A 
ENDBRANCH   4  15
ENDBRANCH   2   4
BRANCH   2  20
HETATM   20  C   UNL     1      24.377  44.601  50.555  1.00  0.00     0.173 C 
BRANCH  20  21
HETATM   21  C   UNL     1      25.343  43.615  49.961  1.00  0.00     0.000 A 
HETATM   22  S   UNL     1      24.788  42.568  48.713  1.00  0.00    -0.105 SA
HETATM   23  C   UNL     1      26.307  41.798  48.584  1.00  0.00     0.050 A 
HETATM   24  C   UNL     1      27.230  42.332  49.451  1.00  0.00     0.008 A 
HETATM   25  C   UNL     1      26.677  43.381  50.241  1.00  0.00     0.017 A 
ENDBRANCH  20  21
ENDBRANCH   2  20
BRANCH   1  26
HETATM   26  C   UNL     1      25.770  45.722  52.867  1.00  0.00     0.101 A 
HETATM   27  N   UNL     1      27.084  45.649  53.269  1.00  0.00    -0.351 N 
HETATM   28  C   UNL     1      27.238  44.772  54.321  1.00  0.00     0.043 A 
HETATM   29  H   UNL     1      27.843  46.158  52.838  1.00  0.00     0.166 HD
HETATM   30  C   UNL     1      25.969  44.312  54.627  1.00  0.00     0.033 A 
HETATM   31  C   UNL     1      25.053  44.925  53.741  1.00  0.00     0.037 A 
BRANCH  28  32
HETATM   32  C   UNL     1      28.538  44.461  54.926  1.00  0.00    -0.009 A 
HETATM   33  C   UNL     1      29.230  43.283  54.609  1.00  0.00     0.013 A 
HETATM   34  C   UNL     1      30.472  43.006  55.187  1.00  0.00     0.001 A 
HETATM   35  C   UNL     1      31.039  43.902  56.090  1.00  0.00     0.000 A 
HETATM   36  C   UNL     1      30.364  45.076  56.416  1.00  0.00     0.001 A 
HETATM   37  C   UNL     1      29.123  45.353  55.837  1.00  0.00     0.013 A 
ENDBRANCH  28  32
ENDBRANCH   1  26
TORSDOF 9
ENDMDL
MODEL 3
REMARK VINA RESULT:      -9.3      2.831      8.476
REMARK  9 active torsions:
REMARK  status: ('A' for Active; 'I' for Inactive)
REMARK    1  A    between atoms: C_4  and  C_5 
REMARK    2  A    between atoms: C_8  and  C_9 
REMARK       I    between atoms: C_9  and  N_10 
REMARK    3  A    between atoms: N_10  and  C_11 
REMARK    4  A    between atoms: N_10  and  C_26 
REMARK    5  A    between atoms: C_11  and  C_12 
REMARK    6  A    between atoms: C_11  and  C_21 
REMARK       I    between atoms: C_12  and  N_13 
REMARK    7  A    between atoms: N_13  and  C_14 
REMARK    8  A    between atoms: C_14  and  C_15 
REMARK    9  A    between atoms: C_26  and  C_27 
ROOT
HETATM    1  C   UNL     1      26.306  44.650  50.018  1.00  0.00     0.271 C 
HETATM    2  N   UNL     1      26.210  44.196  51.336  1.00  0.00    -0.324 N 
HETATM    3  O   UNL     1      26.520  43.876  49.086  1.00  0.00    -0.266 OA
ENDROOT
BRANCH   2   4
HETATM    4  C   UNL     1      26.618  42.818  51.697  1.00  0.00     0.220 C 
BRANCH   4   5
HETATM    5  C   UNL     1      26.466  41.734  50.596  1.00  0.00     0.245 C 
HETATM    6  N   UNL     1      27.617  41.318  49.970  1.00  0.00    -0.357 N 
HETATM    7  H   UNL     1      28.471  41.848  50.151  1.00  0.00     0.162 HD
HETATM    8  O   UNL     1      25.360  41.279  50.296  1.00  0.00    -0.271 OA
BRANCH   6   9
HETATM    9  C   UNL     1      27.628  40.335  48.908  1.00  0.00     0.154 C 
BRANCH   9  10
HETATM   10  C   UNL     1      27.729  38.879  49.393  1.00  0.00     0.139 C 
HETATM   11  O   UNL     1      28.571  38.851  50.567  1.00  0.00    -0.384 OA
HETATM   12  C   UNL     1      29.795  38.176  50.248  1.00  0.00     0.168 C 
HETATM   13  C   UNL     1      29.845  38.038  48.744  1.00  0.00     0.029 C 
HETATM   14  C   UNL     1      28.382  37.933  48.393  1.00  0.00     0.035 C 
ENDBRANCH   9  10
ENDBRANCH   6   9
ENDBRANCH   4   5
BRANCH   4  15
HETATM   15  C   UNL     1      27.966  42.732  52.396  1.00  0.00     0.014 A 
HETATM   16  S   UNL     1      28.178  41.534  53.628  1.00  0.00    -0.104 SA
HETATM   17  C   UNL     1      29.794  41.995  53.915  1.00  0.00     0.050 A 
HETATM   18  C   UNL     1      30.189  43.020  53.091  1.00  0.00     0.008 A 
HETATM   19  C   UNL     1      29.145  43.436  52.214  1.00  0.00     0.017 A 
ENDBRANCH   4  15
ENDBRANCH   2   4
BRANCH   2  20
HETATM   20  C   UNL     1      25.236  44.813  52.247  1.00  0.00     0.173 C 
BRANCH  20  21
HETATM   21  C   UNL     1      25.912  45.654  53.294  1.00  0.00     0.000 A 
HETATM   22  S   UNL     1      25.649  47.355  53.281  1.00  0.00    -0.105 SA
HETATM   23  C   UNL     1      26.673  47.596  54.626  1.00  0.00     0.050 A 
HETATM   24  C   UNL     1      27.193  46.414  55.097  1.00  0.00     0.008 A 
HETATM   25  C   UNL     1      26.751  45.294  54.333  1.00  0.00     0.017 A 
ENDBRANCH  20  21
ENDBRANCH   2  20
BRANCH   1  26
HETATM   26  C   UNL     1      26.118  46.063  49.757  1.00  0.00     0.101 A 
HETATM   27  N   UNL     1      24.915  46.691  49.524  1.00  0.00    -0.351 N 
HETATM   28  C   UNL     1      25.086  48.046  49.331  1.00  0.00     0.043 A 
HETATM   29  H   UNL     1      24.023  46.219  49.481  1.00  0.00     0.166 HD
HETATM   30  C   UNL     1      26.439  48.290  49.498  1.00  0.00     0.033 A 
HETATM   31  C   UNL     1      27.075  47.062  49.791  1.00  0.00     0.037 A 
BRANCH  28  32
HETATM   32  C   UNL     1      23.982  48.959  49.019  1.00  0.00    -0.009 A 
HETATM   33  C   UNL     1      24.215  50.230  48.471  1.00  0.00     0.013 A 
HETATM   34  C   UNL     1      23.152  51.085  48.170  1.00  0.00     0.001 A 
HETATM   35  C   UNL     1      21.841  50.684  48.414  1.00  0.00     0.000 A 
HETATM   36  C   UNL     1      21.592  49.426  48.958  1.00  0.00     0.001 A 
HETATM   37  C   UNL     1      22.656  48.571  49.257  1.00  0.00     0.013 A 
ENDBRANCH  28  32
ENDBRANCH   1  26
TORSDOF 9
ENDMDL
MODEL 4
REMARK VINA RESULT:      -9.2      2.191      3.601
REMARK  9 active torsions:
REMARK  status: ('A' for Active; 'I' for Inactive)
REMARK    1  A    between atoms: C_4  and  C_5 
REMARK    2  A    between atoms: C_8  and  C_9 
REMARK       I    between atoms: C_9  and  N_10 
REMARK    3  A    between atoms: N_10  and  C_11 
REMARK    4  A    between atoms: N_10  and  C_26 
REMARK    5  A    between atoms: C_11  and  C_12 
REMARK    6  A    between atoms: C_11  and  C_21 
REMARK       I    between atoms: C_12  and  N_13 
REMARK    7  A    between atoms: N_13  and  C_14 
REMARK    8  A    between atoms: C_14  and  C_15 
REMARK    9  A    between atoms: C_26  and  C_27 
ROOT
HETATM    1  C   UNL     1      24.561  44.844  51.657  1.00  0.00     0.271 C 
HETATM    2  N   UNL     1      24.636  45.157  50.297  1.00  0.00    -0.324 N 
HETATM    3  O   UNL     1      23.694  44.091  52.096  1.00  0.00    -0.266 OA
ENDROOT
BRANCH   2   4
HETATM    4  C   UNL     1      23.529  44.807  49.375  1.00  0.00     0.220 C 
BRANCH   4   5
HETATM    5  C   UNL     1      22.900  45.972  48.565  1.00  0.00     0.245 C 
HETATM    6  N   UNL     1      22.172  46.899  49.270  1.00  0.00    -0.357 N 
HETATM    7  H   UNL     1      21.958  46.689  50.247  1.00  0.00     0.162 HD
HETATM    8  O   UNL     1      23.045  46.050  47.343  1.00  0.00    -0.271 OA
BRANCH   6   9
HETATM    9  C   UNL     1      21.507  48.024  48.647  1.00  0.00     0.154 C 
BRANCH   9  10
HETATM   10  C   UNL     1      22.381  49.282  48.513  1.00  0.00     0.139 C 
HETATM   11  O   UNL     1      22.642  49.793  49.839  1.00  0.00    -0.384 OA
HETATM   12  C   UNL     1      21.957  51.041  50.003  1.00  0.00     0.168 C 
HETATM   13  C   UNL     1      20.992  51.171  48.846  1.00  0.00     0.029 C 
HETATM   14  C   UNL     1      21.715  50.424  47.754  1.00  0.00     0.035 C 
ENDBRANCH   9  10
ENDBRANCH   6   9
ENDBRANCH   4   5
BRANCH   4  15
HETATM   15  C   UNL     1      23.808  43.594  48.501  1.00  0.00     0.014 A 
HETATM   16  S   UNL     1      24.521  42.198  49.236  1.00  0.00    -0.104 SA
HETATM   17  C   UNL     1      24.522  41.325  47.773  1.00  0.00     0.050 A 
HETATM   18  C   UNL     1      23.980  42.051  46.741  1.00  0.00     0.008 A 
HETATM   19  C   UNL     1      23.562  43.348  47.161  1.00  0.00     0.017 A 
ENDBRANCH   4  15
ENDBRANCH   2   4
BRANCH   2  20
HETATM   20  C   UNL     1      25.950  45.309  49.658  1.00  0.00     0.173 C 
BRANCH  20  21
HETATM   21  C   UNL     1      26.321  46.756  49.489  1.00  0.00     0.000 A 
HETATM   22  S   UNL     1      27.957  47.151  49.131  1.00  0.00    -0.105 SA
HETATM   23  C   UNL     1      27.624  48.826  49.115  1.00  0.00     0.050 A 
HETATM   24  C   UNL     1      26.297  49.090  49.354  1.00  0.00     0.008 A 
HETATM   25  C   UNL     1      25.544  47.898  49.564  1.00  0.00     0.017 A 
ENDBRANCH  20  21
ENDBRANCH   2  20
BRANCH   1  26
HETATM   26  C   UNL     1      25.554  45.407  52.551  1.00  0.00     0.101 A 
HETATM   27  N   UNL     1      26.637  44.742  53.080  1.00  0.00    -0.351 N 
HETATM   28  C   UNL     1      27.394  45.574  53.878  1.00  0.00     0.043 A 
HETATM   29  H   UNL     1      26.843  43.766  52.921  1.00  0.00     0.166 HD
HETATM   30  C   UNL     1      26.796  46.820  53.810  1.00  0.00     0.033 A 
HETATM   31  C   UNL     1      25.668  46.723  52.963  1.00  0.00     0.037 A 
BRANCH  28  32
HETATM   32  C   UNL     1      28.584  45.124  54.608  1.00  0.00    -0.009 A 
HETATM   33  C   UNL     1      29.177  43.879  54.347  1.00  0.00     0.013 A 
HETATM   34  C   UNL     1      30.316  43.469  55.045  1.00  0.00     0.001 A 
HETATM   35  C   UNL     1      30.878  44.296  56.014  1.00  0.00     0.000 A 
HETATM   36  C   UNL     1      30.302  45.535  56.285  1.00  0.00     0.001 A 
HETATM   37  C   UNL     1      29.164  45.945  55.586  1.00  0.00     0.013 A 
ENDBRANCH  28  32
ENDBRANCH   1  26
TORSDOF 9
ENDMDL
MODEL 5
REMARK VINA RESULT:      -9.2      3.226      6.419
REMARK  9 active torsions:
REMARK  status: ('A' for Active; 'I' for Inactive)
REMARK    1  A    between atoms: C_4  and  C_5 
REMARK    2  A    between atoms: C_8  and  C_9 
REMARK       I    between atoms: C_9  and  N_10 
REMARK    3  A    between atoms: N_10  and  C_11 
REMARK    4  A    between atoms: N_10  and  C_26 
REMARK    5  A    between atoms: C_11  and  C_12 
REMARK    6  A    between atoms: C_11  and  C_21 
REMARK       I    between atoms: C_12  and  N_13 
REMARK    7  A    between atoms: N_13  and  C_14 
REMARK    8  A    between atoms: C_14  and  C_15 
REMARK    9  A    between atoms: C_26  and  C_27 
ROOT
HETATM    1  C   UNL     1      25.694  43.116  51.125  1.00  0.00     0.271 C 
HETATM    2  N   UNL     1      25.764  43.810  49.914  1.00  0.00    -0.324 N 
HETATM    3  O   UNL     1      25.256  41.968  51.183  1.00  0.00    -0.266 OA
ENDROOT
BRANCH   2   4
HETATM    4  C   UNL     1      25.081  43.297  48.703  1.00  0.00     0.220 C 
BRANCH   4   5
HETATM    5  C   UNL     1      25.096  41.760  48.490  1.00  0.00     0.245 C 
HETATM    6  N   UNL     1      26.327  41.154  48.426  1.00  0.00    -0.357 N 
HETATM    7  H   UNL     1      27.149  41.757  48.366  1.00  0.00     0.162 HD
HETATM    8  O   UNL     1      24.048  41.122  48.375  1.00  0.00    -0.271 OA
BRANCH   6   9
HETATM    9  C   UNL     1      26.499  39.733  48.205  1.00  0.00     0.154 C 
BRANCH   9  10
HETATM   10  C   UNL     1      26.778  38.922  49.482  1.00  0.00     0.139 C 
HETATM   11  O   UNL     1      27.770  39.630  50.258  1.00  0.00    -0.384 OA
HETATM   12  C   UNL     1      28.989  38.876  50.257  1.00  0.00     0.168 C 
HETATM   13  C   UNL     1      28.847  37.806  49.198  1.00  0.00     0.029 C 
HETATM   14  C   UNL     1      27.363  37.539  49.225  1.00  0.00     0.035 C 
ENDBRANCH   9  10
ENDBRANCH   6   9
ENDBRANCH   4   5
BRANCH   4  15
HETATM   15  C   UNL     1      23.697  43.888  48.475  1.00  0.00     0.014 A 
HETATM   16  S   UNL     1      22.596  43.942  49.809  1.00  0.00    -0.104 SA
HETATM   17  C   UNL     1      21.373  44.678  48.877  1.00  0.00     0.050 A 
HETATM   18  C   UNL     1      21.778  44.903  47.585  1.00  0.00     0.008 A 
HETATM   19  C   UNL     1      23.113  44.460  47.357  1.00  0.00     0.017 A 
ENDBRANCH   4  15
ENDBRANCH   2   4
BRANCH   2  20
HETATM   20  C   UNL     1      26.905  44.699  49.653  1.00  0.00     0.173 C 
BRANCH  20  21
HETATM   21  C   UNL     1      26.485  46.142  49.612  1.00  0.00     0.000 A 
HETATM   22  S   UNL     1      27.661  47.331  49.209  1.00  0.00    -0.105 SA
HETATM   23  C   UNL     1      26.537  48.606  49.381  1.00  0.00     0.050 A 
HETATM   24  C   UNL     1      25.285  48.146  49.717  1.00  0.00     0.008 A 
HETATM   25  C   UNL     1      25.254  46.727  49.845  1.00  0.00     0.017 A 
ENDBRANCH  20  21
ENDBRANCH   2  20
BRANCH   1  26
HETATM   26  C   UNL     1      26.178  43.767  52.326  1.00  0.00     0.101 A 
HETATM   27  N   UNL     1      27.426  43.611  52.886  1.00  0.00    -0.351 N 
HETATM   28  C   UNL     1      27.570  44.390  54.014  1.00  0.00     0.043 A 
HETATM   29  H   UNL     1      28.139  42.992  52.528  1.00  0.00     0.166 HD
HETATM   30  C   UNL     1      26.389  45.101  54.143  1.00  0.00     0.033 A 
HETATM   31  C   UNL     1      25.535  44.735  53.078  1.00  0.00     0.037 A 
BRANCH  28  32
HETATM   32  C   UNL     1      28.781  44.391  54.841  1.00  0.00    -0.009 A 
HETATM   33  C   UNL     1      29.074  45.454  55.710  1.00  0.00     0.013 A 
HETATM   34  C   UNL     1      30.228  45.436  56.498  1.00  0.00     0.001 A 
HETATM   35  C   UNL     1      31.105  44.356  56.430  1.00  0.00     0.000 A 
HETATM   36  C   UNL     1      30.829  43.293  55.573  1.00  0.00     0.001 A 
HETATM   37  C   UNL     1      29.674  43.312  54.786  1.00  0.00     0.013 A 
ENDBRANCH  28  32
ENDBRANCH   1  26
TORSDOF 9
ENDMDL
MODEL 6
REMARK VINA RESULT:      -9.2      2.832      4.320
REMARK  9 active torsions:
REMARK  status: ('A' for Active; 'I' for Inactive)
REMARK    1  A    between atoms: C_4  and  C_5 
REMARK    2  A    between atoms: C_8  and  C_9 
REMARK       I    between atoms: C_9  and  N_10 
REMARK    3  A    between atoms: N_10  and  C_11 
REMARK    4  A    between atoms: N_10  and  C_26 
REMARK    5  A    between atoms: C_11  and  C_12 
REMARK    6  A    between atoms: C_11  and  C_21 
REMARK       I    between atoms: C_12  and  N_13 
REMARK    7  A    between atoms: N_13  and  C_14 
REMARK    8  A    between atoms: C_14  and  C_15 
REMARK    9  A    between atoms: C_26  and  C_27 
ROOT
HETATM    1  C   UNL     1      26.492  41.543  51.171  1.00  0.00     0.271 C 
HETATM    2  N   UNL     1      25.836  42.569  50.486  1.00  0.00    -0.324 N 
HETATM    3  O   UNL     1      26.120  40.373  51.085  1.00  0.00    -0.266 OA
ENDROOT
BRANCH   2   4
HETATM    4  C   UNL     1      24.522  42.334  49.842  1.00  0.00     0.220 C 
BRANCH   4   5
HETATM    5  C   UNL     1      23.556  43.546  49.763  1.00  0.00     0.245 C 
HETATM    6  N   UNL     1      23.629  44.327  48.635  1.00  0.00    -0.357 N 
HETATM    7  H   UNL     1      24.407  44.162  47.995  1.00  0.00     0.162 HD
HETATM    8  O   UNL     1      22.769  43.795  50.679  1.00  0.00    -0.271 OA
BRANCH   6   9
HETATM    9  C   UNL     1      22.810  45.504  48.434  1.00  0.00     0.154 C 
BRANCH   9  10
HETATM   10  C   UNL     1      21.871  45.422  47.218  1.00  0.00     0.139 C 
HETATM   11  O   UNL     1      21.824  46.726  46.596  1.00  0.00    -0.384 OA
HETATM   12  C   UNL     1      20.518  47.287  46.785  1.00  0.00     0.168 C 
HETATM   13  C   UNL     1      19.815  46.433  47.816  1.00  0.00     0.029 C 
HETATM   14  C   UNL     1      20.428  45.078  47.568  1.00  0.00     0.035 C 
ENDBRANCH   9  10
ENDBRANCH   6   9
ENDBRANCH   4   5
BRANCH   4  15
HETATM   15  C   UNL     1      24.603  41.586  48.519  1.00  0.00     0.014 A 
HETATM   16  S   UNL     1      23.138  40.978  47.827  1.00  0.00    -0.104 SA
HETATM   17  C   UNL     1      23.947  40.331  46.474  1.00  0.00     0.050 A 
HETATM   18  C   UNL     1      25.297  40.578  46.517  1.00  0.00     0.008 A 
HETATM   19  C   UNL     1      25.672  41.306  47.684  1.00  0.00     0.017 A 
ENDBRANCH   4  15
ENDBRANCH   2   4
BRANCH   2  20
HETATM   20  C   UNL     1      26.617  43.675  49.915  1.00  0.00     0.173 C 
BRANCH  20  21
HETATM   21  C   UNL     1      26.335  44.973  50.619  1.00  0.00     0.000 A 
HETATM   22  S   UNL     1      26.528  46.443  49.745  1.00  0.00    -0.105 SA
HETATM   23  C   UNL     1      26.091  47.389  51.098  1.00  0.00     0.050 A 
HETATM   24  C   UNL     1      25.782  46.614  52.190  1.00  0.00     0.008 A 
HETATM   25  C   UNL     1      25.917  45.222  51.914  1.00  0.00     0.017 A 
ENDBRANCH  20  21
ENDBRANCH   2  20
BRANCH   1  26
HETATM   26  C   UNL     1      27.651  41.878  51.974  1.00  0.00     0.101 A 
HETATM   27  N   UNL     1      27.695  42.812  52.984  1.00  0.00    -0.351 N 
HETATM   28  C   UNL     1      28.947  42.870  53.558  1.00  0.00     0.043 A 
HETATM   29  H   UNL     1      26.917  43.394  53.258  1.00  0.00     0.166 HD
HETATM   30  C   UNL     1      29.707  41.903  52.922  1.00  0.00     0.033 A 
HETATM   31  C   UNL     1      28.893  41.267  51.957  1.00  0.00     0.037 A 
BRANCH  28  32
HETATM   32  C   UNL     1      29.298  43.808  54.630  1.00  0.00    -0.009 A 
HETATM   33  C   UNL     1      28.503  44.930  54.911  1.00  0.00     0.013 A 
HETATM   34  C   UNL     1      28.846  45.809  55.941  1.00  0.00     0.001 A 
HETATM   35  C   UNL     1      29.988  45.580  56.706  1.00  0.00     0.000 A 
HETATM   36  C   UNL     1      30.787  44.471  56.440  1.00  0.00     0.001 A 
HETATM   37  C   UNL     1      30.443  43.591  55.410  1.00  0.00     0.013 A 
ENDBRANCH  28  32
ENDBRANCH   1  26
TORSDOF 9
ENDMDL
MODEL 7
REMARK VINA RESULT:      -9.0      2.739      4.186
REMARK  9 active torsions:
REMARK  status: ('A' for Active; 'I' for Inactive)
REMARK    1  A    between atoms: C_4  and  C_5 
REMARK    2  A    between atoms: C_8  and  C_9 
REMARK       I    between atoms: C_9  and  N_10 
REMARK    3  A    between atoms: N_10  and  C_11 
REMARK    4  A    between atoms: N_10  and  C_26 
REMARK    5  A    between atoms: C_11  and  C_12 
REMARK    6  A    between atoms: C_11  and  C_21 
REMARK       I    between atoms: C_12  and  N_13 
REMARK    7  A    between atoms: N_13  and  C_14 
REMARK    8  A    between atoms: C_14  and  C_15 
REMARK    9  A    between atoms: C_26  and  C_27 
ROOT
HETATM    1  C   UNL     1      25.240  46.725  51.858  1.00  0.00     0.271 C 
HETATM    2  N   UNL     1      24.947  46.252  50.576  1.00  0.00    -0.324 N 
HETATM    3  O   UNL     1      25.049  47.900  52.168  1.00  0.00    -0.266 OA
ENDROOT
BRANCH   2   4
HETATM    4  C   UNL     1      24.643  47.191  49.470  1.00  0.00     0.220 C 
BRANCH   4   5
HETATM    5  C   UNL     1      23.248  47.871  49.494  1.00  0.00     0.245 C 
HETATM    6  N   UNL     1      22.229  47.221  48.841  1.00  0.00    -0.357 N 
HETATM    7  H   UNL     1      22.476  46.422  48.255  1.00  0.00     0.162 HD
HETATM    8  O   UNL     1      23.073  48.948  50.067  1.00  0.00    -0.271 OA
BRANCH   6   9
HETATM    9  C   UNL     1      20.882  47.746  48.756  1.00  0.00     0.154 C 
BRANCH   9  10
HETATM   10  C   UNL     1      19.778  46.687  48.920  1.00  0.00     0.139 C 
HETATM   11  O   UNL     1      20.258  45.444  48.361  1.00  0.00    -0.384 OA
HETATM   12  C   UNL     1      19.509  45.144  47.176  1.00  0.00     0.168 C 
HETATM   13  C   UNL     1      18.735  46.391  46.815  1.00  0.00     0.029 C 
HETATM   14  C   UNL     1      18.492  47.009  48.169  1.00  0.00     0.035 C 
ENDBRANCH   9  10
ENDBRANCH   6   9
ENDBRANCH   4   5
BRANCH   4  15
HETATM   15  C   UNL     1      25.755  48.189  49.180  1.00  0.00     0.014 A 
HETATM   16  S   UNL     1      25.344  49.666  48.377  1.00  0.00    -0.104 SA
HETATM   17  C   UNL     1      26.954  50.226  48.406  1.00  0.00     0.050 A 
HETATM   18  C   UNL     1      27.796  49.336  49.024  1.00  0.00     0.008 A 
HETATM   19  C   UNL     1      27.108  48.173  49.476  1.00  0.00     0.017 A 
ENDBRANCH   4  15
ENDBRANCH   2   4
BRANCH   2  20
HETATM   20  C   UNL     1      24.397  44.900  50.410  1.00  0.00     0.173 C 
BRANCH  20  21
HETATM   21  C   UNL     1      25.484  43.866  50.315  1.00  0.00     0.000 A 
HETATM   22  S   UNL     1      25.100  42.230  50.685  1.00  0.00    -0.105 SA
HETATM   23  C   UNL     1      26.703  41.714  50.401  1.00  0.00     0.050 A 
HETATM   24  C   UNL     1      27.517  42.752  50.012  1.00  0.00     0.008 A 
HETATM   25  C   UNL     1      26.814  43.990  49.957  1.00  0.00     0.017 A 
ENDBRANCH  20  21
ENDBRANCH   2  20
BRANCH   1  26
HETATM   26  C   UNL     1      25.754  45.790  52.840  1.00  0.00     0.101 A 
HETATM   27  N   UNL     1      27.069  45.659  53.223  1.00  0.00    -0.351 N 
HETATM   28  C   UNL     1      27.214  44.690  54.193  1.00  0.00     0.043 A 
HETATM   29  H   UNL     1      27.835  46.190  52.832  1.00  0.00     0.166 HD
HETATM   30  C   UNL     1      25.938  44.228  54.467  1.00  0.00     0.033 A 
HETATM   31  C   UNL     1      25.028  44.932  53.646  1.00  0.00     0.037 A 
BRANCH  28  32
HETATM   32  C   UNL     1      28.512  44.303  54.757  1.00  0.00    -0.009 A 
HETATM   33  C   UNL     1      29.124  43.087  54.421  1.00  0.00     0.013 A 
HETATM   34  C   UNL     1      30.365  42.737  54.960  1.00  0.00     0.001 A 
HETATM   35  C   UNL     1      31.011  43.599  55.843  1.00  0.00     0.000 A 
HETATM   36  C   UNL     1      30.418  44.811  56.186  1.00  0.00     0.001 A 
HETATM   37  C   UNL     1      29.177  45.160  55.646  1.00  0.00     0.013 A 
ENDBRANCH  28  32
ENDBRANCH   1  26
TORSDOF 9
ENDMDL
MODEL 8
REMARK VINA RESULT:      -8.9      1.764      3.276
REMARK  9 active torsions:
REMARK  status: ('A' for Active; 'I' for Inactive)
REMARK    1  A    between atoms: C_4  and  C_5 
REMARK    2  A    between atoms: C_8  and  C_9 
REMARK       I    between atoms: C_9  and  N_10 
REMARK    3  A    between atoms: N_10  and  C_11 
REMARK    4  A    between atoms: N_10  and  C_26 
REMARK    5  A    between atoms: C_11  and  C_12 
REMARK    6  A    between atoms: C_11  and  C_21 
REMARK       I    between atoms: C_12  and  N_13 
REMARK    7  A    between atoms: N_13  and  C_14 
REMARK    8  A    between atoms: C_14  and  C_15 
REMARK    9  A    between atoms: C_26  and  C_27 
ROOT
HETATM    1  C   UNL     1      26.884  43.468  50.983  1.00  0.00     0.271 C 
HETATM    2  N   UNL     1      25.502  43.470  51.190  1.00  0.00    -0.324 N 
HETATM    3  O   UNL     1      27.375  43.838  49.918  1.00  0.00    -0.266 OA
ENDROOT
BRANCH   2   4
HETATM    4  C   UNL     1      24.565  43.669  50.059  1.00  0.00     0.220 C 
BRANCH   4   5
HETATM    5  C   UNL     1      24.569  45.067  49.385  1.00  0.00     0.245 C 
HETATM    6  N   UNL     1      23.434  45.828  49.526  1.00  0.00    -0.357 N 
HETATM    7  H   UNL     1      22.609  45.377  49.926  1.00  0.00     0.162 HD
HETATM    8  O   UNL     1      25.545  45.465  48.747  1.00  0.00    -0.271 OA
BRANCH   6   9
HETATM    9  C   UNL     1      23.282  47.140  48.932  1.00  0.00     0.154 C 
BRANCH   9  10
HETATM   10  C   UNL     1      23.947  48.276  49.727  1.00  0.00     0.139 C 
HETATM   11  O   UNL     1      23.029  49.391  49.774  1.00  0.00    -0.384 OA
HETATM   12  C   UNL     1      23.560  50.467  48.988  1.00  0.00     0.168 C 
HETATM   13  C   UNL     1      24.706  49.900  48.180  1.00  0.00     0.029 C 
HETATM   14  C   UNL     1      25.223  48.816  49.092  1.00  0.00     0.035 C 
ENDBRANCH   9  10
ENDBRANCH   6   9
ENDBRANCH   4   5
BRANCH   4  15
HETATM   15  C   UNL     1      24.583  42.545  49.033  1.00  0.00     0.014 A 
HETATM   16  S   UNL     1      23.646  42.734  47.590  1.00  0.00    -0.104 SA
HETATM   17  C   UNL     1      24.130  41.219  46.978  1.00  0.00     0.050 A 
HETATM   18  C   UNL     1      24.998  40.576  47.825  1.00  0.00     0.008 A 
HETATM   19  C   UNL     1      25.266  41.340  48.998  1.00  0.00     0.017 A 
ENDBRANCH   4  15
ENDBRANCH   2   4
BRANCH   2  20
HETATM   20  C   UNL     1      24.967  43.831  52.510  1.00  0.00     0.173 C 
BRANCH  20  21
HETATM   21  C   UNL     1      25.461  45.178  52.959  1.00  0.00     0.000 A 
HETATM   22  S   UNL     1      25.756  45.430  54.636  1.00  0.00    -0.105 SA
HETATM   23  C   UNL     1      26.225  47.052  54.384  1.00  0.00     0.050 A 
HETATM   24  C   UNL     1      26.183  47.400  53.054  1.00  0.00     0.008 A 
HETATM   25  C   UNL     1      25.747  46.319  52.233  1.00  0.00     0.017 A 
ENDBRANCH  20  21
ENDBRANCH   2  20
BRANCH   1  26
HETATM   26  C   UNL     1      27.746  43.043  52.069  1.00  0.00     0.101 A 
HETATM   27  N   UNL     1      28.278  43.853  53.045  1.00  0.00    -0.351 N 
HETATM   28  C   UNL     1      29.038  43.129  53.939  1.00  0.00     0.043 A 
HETATM   29  H   UNL     1      28.146  44.854  53.093  1.00  0.00     0.166 HD
HETATM   30  C   UNL     1      28.942  41.806  53.540  1.00  0.00     0.033 A 
HETATM   31  C   UNL     1      28.115  41.750  52.395  1.00  0.00     0.037 A 
BRANCH  28  32
HETATM   32  C   UNL     1      29.763  43.738  55.058  1.00  0.00    -0.009 A 
HETATM   33  C   UNL     1      30.790  43.054  55.726  1.00  0.00     0.013 A 
HETATM   34  C   UNL     1      31.478  43.652  56.785  1.00  0.00     0.001 A 
HETATM   35  C   UNL     1      31.149  44.943  57.192  1.00  0.00     0.000 A 
HETATM   36  C   UNL     1      30.132  45.637  56.540  1.00  0.00     0.001 A 
HETATM   37  C   UNL     1      29.445  45.037  55.480  1.00  0.00     0.013 A 
ENDBRANCH  28  32
ENDBRANCH   1  26
TORSDOF 9
ENDMDL
MODEL 9
REMARK VINA RESULT:      -8.8      3.048      4.511
REMARK  9 active torsions:
REMARK  status: ('A' for Active; 'I' for Inactive)
REMARK    1  A    between atoms: C_4  and  C_5 
REMARK    2  A    between atoms: C_8  and  C_9 
REMARK       I    between atoms: C_9  and  N_10 
REMARK    3  A    between atoms: N_10  and  C_11 
REMARK    4  A    between atoms: N_10  and  C_26 
REMARK    5  A    between atoms: C_11  and  C_12 
REMARK    6  A    between atoms: C_11  and  C_21 
REMARK       I    between atoms: C_12  and  N_13 
REMARK    7  A    between atoms: N_13  and  C_14 
REMARK    8  A    between atoms: C_14  and  C_15 
REMARK    9  A    between atoms: C_26  and  C_27 
ROOT
HETATM    1  C   UNL     1      23.774  43.552  50.745  1.00  0.00     0.271 C 
HETATM    2  N   UNL     1      23.709  44.151  49.484  1.00  0.00    -0.324 N 
HETATM    3  O   UNL     1      23.037  42.617  51.051  1.00  0.00    -0.266 OA
ENDROOT
BRANCH   2   4
HETATM    4  C   UNL     1      22.583  43.863  48.564  1.00  0.00     0.220 C 
BRANCH   4   5
HETATM    5  C   UNL     1      21.400  44.867  48.571  1.00  0.00     0.245 C 
HETATM    6  N   UNL     1      21.715  46.199  48.690  1.00  0.00    -0.357 N 
HETATM    7  H   UNL     1      22.681  46.438  48.919  1.00  0.00     0.162 HD
HETATM    8  O   UNL     1      20.233  44.478  48.485  1.00  0.00    -0.271 OA
BRANCH   6   9
HETATM    9  C   UNL     1      20.717  47.247  48.738  1.00  0.00     0.154 C 
BRANCH   9  10
HETATM   10  C   UNL     1      21.272  48.634  49.101  1.00  0.00     0.139 C 
HETATM   11  O   UNL     1      20.214  49.394  49.728  1.00  0.00    -0.384 OA
HETATM   12  C   UNL     1      19.825  50.462  48.855  1.00  0.00     0.168 C 
HETATM   13  C   UNL     1      20.455  50.185  47.508  1.00  0.00     0.029 C 
HETATM   14  C   UNL     1      21.717  49.460  47.900  1.00  0.00     0.035 C 
ENDBRANCH   9  10
ENDBRANCH   6   9
ENDBRANCH   4   5
BRANCH   4  15
HETATM   15  C   UNL     1      23.015  43.505  47.149  1.00  0.00     0.014 A 
HETATM   16  S   UNL     1      23.624  41.912  46.854  1.00  0.00    -0.104 SA
HETATM   17  C   UNL     1      23.868  42.222  45.196  1.00  0.00     0.050 A 
HETATM   18  C   UNL     1      23.484  43.495  44.850  1.00  0.00     0.008 A 
HETATM   19  C   UNL     1      22.986  44.226  45.967  1.00  0.00     0.017 A 
ENDBRANCH   4  15
ENDBRANCH   2   4
BRANCH   2  20
HETATM   20  C   UNL     1      24.944  44.604  48.831  1.00  0.00     0.173 C 
BRANCH  20  21
HETATM   21  C   UNL     1      25.320  45.996  49.258  1.00  0.00     0.000 A 
HETATM   22  S   UNL     1      26.964  46.323  49.647  1.00  0.00    -0.105 SA
HETATM   23  C   UNL     1      26.625  47.952  50.028  1.00  0.00     0.050 A 
HETATM   24  C   UNL     1      25.297  48.258  49.847  1.00  0.00     0.008 A 
HETATM   25  C   UNL     1      24.546  47.133  49.399  1.00  0.00     0.017 A 
ENDBRANCH  20  21
ENDBRANCH   2  20
BRANCH   1  26
HETATM   26  C   UNL     1      24.759  44.037  51.692  1.00  0.00     0.101 A 
HETATM   27  N   UNL     1      25.998  43.484  51.927  1.00  0.00    -0.351 N 
HETATM   28  C   UNL     1      26.694  44.202  52.876  1.00  0.00     0.043 A 
HETATM   29  H   UNL     1      26.346  42.649  51.478  1.00  0.00     0.166 HD
HETATM   30  C   UNL     1      25.888  45.275  53.215  1.00  0.00     0.033 A 
HETATM   31  C   UNL     1      24.697  45.188  52.458  1.00  0.00     0.037 A 
BRANCH  28  32
HETATM   32  C   UNL     1      28.025  43.818  53.358  1.00  0.00    -0.009 A 
HETATM   33  C   UNL     1      28.501  44.239  54.609  1.00  0.00     0.013 A 
HETATM   34  C   UNL     1      29.768  43.857  55.058  1.00  0.00     0.001 A 
HETATM   35  C   UNL     1      30.577  43.049  54.264  1.00  0.00     0.000 A 
HETATM   36  C   UNL     1      30.120  42.622  53.019  1.00  0.00     0.001 A 
HETATM   37  C   UNL     1      28.852  43.004  52.571  1.00  0.00     0.013 A 
ENDBRANCH  28  32
ENDBRANCH   1  26
TORSDOF 9
ENDMDL
MODEL 10
REMARK VINA RESULT:      -8.8      2.744      9.165
REMARK  9 active torsions:
REMARK  status: ('A' for Active; 'I' for Inactive)
REMARK    1  A    between atoms: C_4  and  C_5 
REMARK    2  A    between atoms: C_8  and  C_9 
REMARK       I    between atoms: C_9  and  N_10 
REMARK    3  A    between atoms: N_10  and  C_11 
REMARK    4  A    between atoms: N_10  and  C_26 
REMARK    5  A    between atoms: C_11  and  C_12 
REMARK    6  A    between atoms: C_11  and  C_21 
REMARK       I    between atoms: C_12  and  N_13 
REMARK    7  A    between atoms: N_13  and  C_14 
REMARK    8  A    between atoms: C_14  and  C_15 
REMARK    9  A    between atoms: C_26  and  C_27 
ROOT
HETATM    1  C   UNL     1      24.375  47.573  49.537  1.00  0.00     0.271 C 
HETATM    2  N   UNL     1      24.016  46.247  49.284  1.00  0.00    -0.324 N 
HETATM    3  O   UNL     1      25.404  47.855  50.148  1.00  0.00    -0.266 OA
ENDROOT
BRANCH   2   4
HETATM    4  C   UNL     1      24.715  45.128  49.960  1.00  0.00     0.220 C 
BRANCH   4   5
HETATM    5  C   UNL     1      24.827  45.206  51.506  1.00  0.00     0.245 C 
HETATM    6  N   UNL     1      25.926  45.850  52.019  1.00  0.00    -0.357 N 
HETATM    7  H   UNL     1      26.674  46.101  51.369  1.00  0.00     0.162 HD
HETATM    8  O   UNL     1      23.969  44.701  52.233  1.00  0.00    -0.271 OA
BRANCH   6   9
HETATM    9  C   UNL     1      26.177  45.977  53.439  1.00  0.00     0.154 C 
BRANCH   9  10
HETATM   10  C   UNL     1      27.485  45.321  53.912  1.00  0.00     0.139 C 
HETATM   11  O   UNL     1      27.984  44.486  52.843  1.00  0.00    -0.384 OA
HETATM   12  C   UNL     1      27.879  43.112  53.236  1.00  0.00     0.168 C 
HETATM   13  C   UNL     1      27.010  43.070  54.473  1.00  0.00     0.029 C 
HETATM   14  C   UNL     1      27.319  44.399  55.114  1.00  0.00     0.035 C 
ENDBRANCH   9  10
ENDBRANCH   6   9
ENDBRANCH   4   5
BRANCH   4  15
HETATM   15  C   UNL     1      24.277  43.749  49.491  1.00  0.00     0.014 A 
HETATM   16  S   UNL     1      25.471  42.694  48.813  1.00  0.00    -0.104 SA
HETATM   17  C   UNL     1      24.341  41.445  48.554  1.00  0.00     0.050 A 
HETATM   18  C   UNL     1      23.084  41.793  48.983  1.00  0.00     0.008 A 
HETATM   19  C   UNL     1      23.050  43.109  49.529  1.00  0.00     0.017 A 
ENDBRANCH   4  15
ENDBRANCH   2   4
BRANCH   2  20
HETATM   20  C   UNL     1      23.378  45.899  48.007  1.00  0.00     0.173 C 
BRANCH  20  21
HETATM   21  C   UNL     1      21.893  46.134  48.047  1.00  0.00     0.000 A 
HETATM   22  S   UNL     1      21.141  46.877  46.689  1.00  0.00    -0.105 SA
HETATM   23  C   UNL     1      19.601  46.832  47.427  1.00  0.00     0.050 A 
HETATM   24  C   UNL     1      19.643  46.247  48.670  1.00  0.00     0.008 A 
HETATM   25  C   UNL     1      20.962  45.840  49.026  1.00  0.00     0.017 A 
ENDBRANCH  20  21
ENDBRANCH   2  20
BRANCH   1  26
HETATM   26  C   UNL     1      23.517  48.630  49.037  1.00  0.00     0.101 A 
HETATM   27  N   UNL     1      22.293  48.992  49.550  1.00  0.00    -0.351 N 
HETATM   28  C   UNL     1      21.749  50.048  48.852  1.00  0.00     0.043 A 
HETATM   29  H   UNL     1      21.840  48.531  50.328  1.00  0.00     0.166 HD
HETATM   30  C   UNL     1      22.685  50.399  47.895  1.00  0.00     0.033 A 
HETATM   31  C   UNL     1      23.797  49.535  48.028  1.00  0.00     0.037 A 
BRANCH  28  32
HETATM   32  C   UNL     1      20.429  50.616  49.150  1.00  0.00    -0.009 A 
HETATM   33  C   UNL     1      20.028  51.852  48.623  1.00  0.00     0.013 A 
HETATM   34  C   UNL     1      18.763  52.375  48.909  1.00  0.00     0.001 A 
HETATM   35  C   UNL     1      17.883  51.669  49.726  1.00  0.00     0.000 A 
HETATM   36  C   UNL     1      18.266  50.440  50.257  1.00  0.00     0.001 A 
HETATM   37  C   UNL     1      19.531  49.918  49.970  1.00  0.00     0.013 A 
ENDBRANCH  28  32
ENDBRANCH   1  26
TORSDOF 9
ENDMDL
