MODEL 1
REMARK VINA RESULT:      -9.5      0.000      0.000
REMARK  5 active torsions:
REMARK  status: ('A' for Active; 'I' for Inactive)
REMARK    1  A    between atoms: C_3  and  O_4 
REMARK    2  A    between atoms: C_6  and  N_7 
REMARK       I    between atoms: N_7  and  C_8 
REMARK    3  A    between atoms: C_8  and  C_9 
REMARK    4  A    between atoms: C_14  and  C_15 
REMARK    5  A    between atoms: C_23  and  C_24 
ROOT
HETATM    1  C   UNL     1      25.391  45.306  50.576  1.00  0.00     0.148 A 
HETATM    2  N   UNL     1      24.914  44.543  51.588  1.00  0.00    -0.165 NA
HETATM    3  N   UNL     1      26.031  44.101  52.197  1.00  0.00    -0.240 N 
HETATM    4  C   UNL     1      27.188  44.466  51.570  1.00  0.00     0.123 A 
HETATM    5  N   UNL     1      28.396  44.048  51.999  1.00  0.00    -0.366 N 
HETATM    6  C   UNL     1      28.570  43.274  53.222  1.00  0.00     0.118 C 
HETATM    7  C   UNL     1      27.290  42.486  53.560  1.00  0.00     0.066 C 
HETATM    8  C   UNL     1      25.978  43.274  53.388  1.00  0.00     0.221 C 
HETATM    9  C   UNL     1      26.811  45.270  50.529  1.00  0.00     0.089 A 
HETATM   10  H   UNL     1      29.253  44.416  51.590  1.00  0.00     0.161 HD
ENDROOT
BRANCH   1  11
HETATM   11  C   UNL     1      24.503  46.055  49.666  1.00  0.00     0.276 C 
HETATM   12  N   UNL     1      24.499  47.407  49.950  1.00  0.00    -0.322 N 
HETATM   13  H   UNL     1      25.078  47.654  50.748  1.00  0.00     0.169 HD
HETATM   14  O   UNL     1      23.869  45.485  48.788  1.00  0.00    -0.266 OA
BRANCH  12  15
HETATM   15  C   UNL     1      23.812  48.435  49.283  1.00  0.00     0.037 A 
HETATM   16  C   UNL     1      22.419  48.525  49.213  1.00  0.00     0.066 A 
HETATM   17  C   UNL     1      21.823  49.574  48.516  1.00  0.00     0.067 A 
HETATM   18  C   UNL     1      22.591  50.550  47.889  1.00  0.00     0.036 A 
HETATM   19  C   UNL     1      23.980  50.469  47.957  1.00  0.00     0.005 A 
HETATM   20  C   UNL     1      24.587  49.415  48.647  1.00  0.00     0.029 A 
BRANCH  17  21
HETATM   21  O   UNL     1      20.460  49.610  48.466  1.00  0.00    -0.361 OA
HETATM   22  H   UNL     1      20.173  49.360  47.573  1.00  0.00     0.217 HD
ENDBRANCH  17  21
ENDBRANCH  12  15
ENDBRANCH   1  11
BRANCH   8  23
HETATM   23  C   UNL     1      25.606  44.113  54.589  1.00  0.00     0.409 C 
HETATM   24  F   UNL     1      25.923  45.415  54.468  1.00  0.00    -0.169 F 
HETATM   25  F   UNL     1      24.280  44.044  54.861  1.00  0.00    -0.169 F 
HETATM   26  F   UNL     1      26.240  43.648  55.697  1.00  0.00    -0.169 F 
ENDBRANCH   8  23
BRANCH   6  27
HETATM   27  C   UNL     1      29.144  44.100  54.362  1.00  0.00    -0.035 A 
HETATM   28  C   UNL     1      28.733  45.418  54.634  1.00  0.00     0.012 A 
HETATM   29  C   UNL     1      29.308  46.150  55.674  1.00  0.00     0.043 A 
HETATM   30  C   UNL     1      30.306  45.575  56.447  1.00  0.00     0.116 A 
HETATM   31  F   UNL     1      30.864  46.280  57.440  1.00  0.00    -0.206 F 
HETATM   32  C   UNL     1      30.738  44.279  56.201  1.00  0.00     0.043 A 
HETATM   33  C   UNL     1      30.160  43.544  55.164  1.00  0.00     0.012 A 
ENDBRANCH   6  27
TORSDOF 5
ENDMDL
MODEL 2
REMARK VINA RESULT:      -9.3      2.680      4.313
REMARK  5 active torsions:
REMARK  status: ('A' for Active; 'I' for Inactive)
REMARK    1  A    between atoms: C_3  and  O_4 
REMARK    2  A    between atoms: C_6  and  N_7 
REMARK       I    between atoms: N_7  and  C_8 
REMARK    3  A    between atoms: C_8  and  C_9 
REMARK    4  A    between atoms: C_14  and  C_15 
REMARK    5  A    between atoms: C_23  and  C_24 
ROOT
HETATM    1  C   UNL     1      23.183  47.409  48.977  1.00  0.00     0.148 A 
HETATM    2  N   UNL     1      23.361  46.117  48.613  1.00  0.00    -0.165 NA
HETATM    3  N   UNL     1      24.432  45.735  49.335  1.00  0.00    -0.240 N 
HETATM    4  C   UNL     1      24.998  46.742  50.064  1.00  0.00     0.123 A 
HETATM    5  N   UNL     1      26.123  46.557  50.785  1.00  0.00    -0.366 N 
HETATM    6  C   UNL     1      26.752  45.251  50.935  1.00  0.00     0.118 C 
HETATM    7  C   UNL     1      26.416  44.338  49.740  1.00  0.00     0.066 C 
HETATM    8  C   UNL     1      24.944  44.379  49.287  1.00  0.00     0.221 C 
HETATM    9  C   UNL     1      24.198  47.836  49.875  1.00  0.00     0.089 A 
HETATM   10  H   UNL     1      26.470  47.283  51.409  1.00  0.00     0.161 HD
ENDROOT
BRANCH   1  11
HETATM   11  C   UNL     1      22.062  48.224  48.471  1.00  0.00     0.276 C 
HETATM   12  N   UNL     1      21.633  49.145  49.406  1.00  0.00    -0.322 N 
HETATM   13  H   UNL     1      22.135  49.088  50.289  1.00  0.00     0.169 HD
HETATM   14  O   UNL     1      21.608  48.051  47.347  1.00  0.00    -0.266 OA
BRANCH  12  15
HETATM   15  C   UNL     1      20.621  50.112  49.277  1.00  0.00     0.037 A 
HETATM   16  C   UNL     1      19.370  50.018  49.891  1.00  0.00     0.066 A 
HETATM   17  C   UNL     1      18.421  51.020  49.695  1.00  0.00     0.067 A 
HETATM   18  C   UNL     1      18.698  52.129  48.901  1.00  0.00     0.036 A 
HETATM   19  C   UNL     1      19.945  52.231  48.289  1.00  0.00     0.005 A 
HETATM   20  C   UNL     1      20.900  51.226  48.473  1.00  0.00     0.029 A 
BRANCH  17  21
HETATM   21  O   UNL     1      17.209  50.875  50.305  1.00  0.00    -0.361 OA
HETATM   22  H   UNL     1      17.352  50.706  51.250  1.00  0.00     0.217 HD
ENDBRANCH  17  21
ENDBRANCH  12  15
ENDBRANCH   1  11
BRANCH   8  23
HETATM   23  C   UNL     1      24.038  43.453  50.067  1.00  0.00     0.409 C 
HETATM   24  F   UNL     1      24.691  42.504  50.762  1.00  0.00    -0.169 F 
HETATM   25  F   UNL     1      23.258  44.130  50.942  1.00  0.00    -0.169 F 
HETATM   26  F   UNL     1      23.186  42.814  49.222  1.00  0.00    -0.169 F 
ENDBRANCH   8  23
BRANCH   6  27
HETATM   27  C   UNL     1      26.516  44.640  52.306  1.00  0.00    -0.035 A 
HETATM   28  C   UNL     1      27.319  43.612  52.834  1.00  0.00     0.012 A 
HETATM   29  C   UNL     1      27.048  43.061  54.089  1.00  0.00     0.043 A 
HETATM   30  C   UNL     1      25.966  43.526  54.823  1.00  0.00     0.116 A 
HETATM   31  F   UNL     1      25.701  42.992  56.022  1.00  0.00    -0.206 F 
HETATM   32  C   UNL     1      25.152  44.534  54.327  1.00  0.00     0.043 A 
HETATM   33  C   UNL     1      25.425  45.091  53.076  1.00  0.00     0.012 A 
ENDBRANCH   6  27
TORSDOF 5
ENDMDL
MODEL 3
REMARK VINA RESULT:      -9.1      5.634      9.251
REMARK  5 active torsions:
REMARK  status: ('A' for Active; 'I' for Inactive)
REMARK    1  A    between atoms: C_3  and  O_4 
REMARK    2  A    between atoms: C_6  and  N_7 
REMARK       I    between atoms: N_7  and  C_8 
REMARK    3  A    between atoms: C_8  and  C_9 
REMARK    4  A    between atoms: C_14  and  C_15 
REMARK    5  A    between atoms: C_23  and  C_24 
ROOT
HETATM    1  C   UNL     1      28.127  42.158  52.398  1.00  0.00     0.148 A 
HETATM    2  N   UNL     1      27.323  42.645  51.424  1.00  0.00    -0.165 NA
HETATM    3  N   UNL     1      27.541  41.806  50.392  1.00  0.00    -0.240 N 
HETATM    4  C   UNL     1      28.509  40.873  50.630  1.00  0.00     0.123 A 
HETATM    5  N   UNL     1      28.910  40.002  49.682  1.00  0.00    -0.366 N 
HETATM    6  C   UNL     1      28.268  39.912  48.377  1.00  0.00     0.118 C 
HETATM    7  C   UNL     1      27.605  41.250  47.997  1.00  0.00     0.066 C 
HETATM    8  C   UNL     1      26.827  41.935  49.137  1.00  0.00     0.221 C 
HETATM    9  C   UNL     1      28.894  41.056  51.931  1.00  0.00     0.089 A 
HETATM   10  H   UNL     1      29.553  39.243  49.906  1.00  0.00     0.161 HD
ENDROOT
BRANCH   1  11
HETATM   11  C   UNL     1      28.167  42.740  53.754  1.00  0.00     0.276 C 
HETATM   12  N   UNL     1      29.382  43.337  54.022  1.00  0.00    -0.322 N 
HETATM   13  H   UNL     1      30.051  43.251  53.261  1.00  0.00     0.169 HD
HETATM   14  O   UNL     1      27.203  42.663  54.505  1.00  0.00    -0.266 OA
BRANCH  12  15
HETATM   15  C   UNL     1      29.780  44.023  55.182  1.00  0.00     0.037 A 
HETATM   16  C   UNL     1      30.791  43.582  56.040  1.00  0.00     0.066 A 
HETATM   17  C   UNL     1      31.109  44.321  57.179  1.00  0.00     0.067 A 
HETATM   18  C   UNL     1      30.441  45.504  57.479  1.00  0.00     0.036 A 
HETATM   19  C   UNL     1      29.435  45.951  56.626  1.00  0.00     0.005 A 
HETATM   20  C   UNL     1      29.104  45.212  55.486  1.00  0.00     0.029 A 
BRANCH  17  21
HETATM   21  O   UNL     1      32.094  43.841  57.992  1.00  0.00    -0.361 OA
HETATM   22  H   UNL     1      32.118  44.374  58.803  1.00  0.00     0.217 HD
ENDBRANCH  17  21
ENDBRANCH  12  15
ENDBRANCH   1  11
BRANCH   8  23
HETATM   23  C   UNL     1      25.407  41.440  49.291  1.00  0.00     0.409 C 
HETATM   24  F   UNL     1      24.555  42.362  49.776  1.00  0.00    -0.169 F 
HETATM   25  F   UNL     1      24.897  40.998  48.116  1.00  0.00    -0.169 F 
HETATM   26  F   UNL     1      25.373  40.379  50.138  1.00  0.00    -0.169 F 
ENDBRANCH   8  23
BRANCH   6  27
HETATM   27  C   UNL     1      27.379  38.686  48.245  1.00  0.00    -0.035 A 
HETATM   28  C   UNL     1      27.296  37.691  49.235  1.00  0.00     0.012 A 
HETATM   29  C   UNL     1      26.487  36.566  49.059  1.00  0.00     0.043 A 
HETATM   30  C   UNL     1      25.760  36.423  47.886  1.00  0.00     0.116 A 
HETATM   31  F   UNL     1      24.989  35.340  47.714  1.00  0.00    -0.206 F 
HETATM   32  C   UNL     1      25.824  37.383  46.887  1.00  0.00     0.043 A 
HETATM   33  C   UNL     1      26.629  38.511  47.065  1.00  0.00     0.012 A 
ENDBRANCH   6  27
TORSDOF 5
ENDMDL
MODEL 4
REMARK VINA RESULT:      -8.9     17.081     18.804
REMARK  5 active torsions:
REMARK  status: ('A' for Active; 'I' for Inactive)
REMARK    1  A    between atoms: C_3  and  O_4 
REMARK    2  A    between atoms: C_6  and  N_7 
REMARK       I    between atoms: N_7  and  C_8 
REMARK    3  A    between atoms: C_8  and  C_9 
REMARK    4  A    between atoms: C_14  and  C_15 
REMARK    5  A    between atoms: C_23  and  C_24 
ROOT
HETATM    1  C   UNL     1      38.871  46.518  65.384  1.00  0.00     0.148 A 
HETATM    2  N   UNL     1      37.738  45.778  65.322  1.00  0.00    -0.165 NA
HETATM    3  N   UNL     1      38.077  44.758  64.511  1.00  0.00    -0.240 N 
HETATM    4  C   UNL     1      39.331  44.862  63.981  1.00  0.00     0.123 A 
HETATM    5  N   UNL     1      39.807  43.969  63.089  1.00  0.00    -0.366 N 
HETATM    6  C   UNL     1      39.070  42.769  62.711  1.00  0.00     0.118 C 
HETATM    7  C   UNL     1      37.555  42.973  62.901  1.00  0.00     0.066 C 
HETATM    8  C   UNL     1      37.154  43.680  64.210  1.00  0.00     0.221 C 
HETATM    9  C   UNL     1      39.885  45.979  64.546  1.00  0.00     0.089 A 
HETATM   10  H   UNL     1      40.779  43.997  62.787  1.00  0.00     0.161 HD
ENDROOT
BRANCH   1  11
HETATM   11  C   UNL     1      38.981  47.724  66.227  1.00  0.00     0.276 C 
HETATM   12  N   UNL     1      37.972  48.629  65.965  1.00  0.00    -0.322 N 
HETATM   13  H   UNL     1      37.345  48.331  65.222  1.00  0.00     0.169 HD
HETATM   14  O   UNL     1      39.889  47.848  67.040  1.00  0.00    -0.266 OA
BRANCH  12  15
HETATM   15  C   UNL     1      37.726  49.864  66.587  1.00  0.00     0.037 A 
HETATM   16  C   UNL     1      37.956  51.102  65.982  1.00  0.00     0.066 A 
HETATM   17  C   UNL     1      37.697  52.279  66.681  1.00  0.00     0.067 A 
HETATM   18  C   UNL     1      37.198  52.249  67.980  1.00  0.00     0.036 A 
HETATM   19  C   UNL     1      36.962  51.019  68.589  1.00  0.00     0.005 A 
HETATM   20  C   UNL     1      37.229  49.833  67.897  1.00  0.00     0.029 A 
BRANCH  17  21
HETATM   21  O   UNL     1      37.952  53.462  66.051  1.00  0.00    -0.361 OA
HETATM   22  H   UNL     1      37.605  53.415  65.145  1.00  0.00     0.217 HD
ENDBRANCH  17  21
ENDBRANCH  12  15
ENDBRANCH   1  11
BRANCH   8  23
HETATM   23  C   UNL     1      37.033  42.750  65.396  1.00  0.00     0.409 C 
HETATM   24  F   UNL     1      36.869  41.457  65.063  1.00  0.00    -0.169 F 
HETATM   25  F   UNL     1      38.116  42.825  66.206  1.00  0.00    -0.169 F 
HETATM   26  F   UNL     1      35.967  43.106  66.160  1.00  0.00    -0.169 F 
ENDBRANCH   8  23
BRANCH   6  27
HETATM   27  C   UNL     1      39.640  41.508  63.339  1.00  0.00    -0.035 A 
HETATM   28  C   UNL     1      40.480  41.529  64.468  1.00  0.00     0.012 A 
HETATM   29  C   UNL     1      41.005  40.347  64.995  1.00  0.00     0.043 A 
HETATM   30  C   UNL     1      40.701  39.134  64.393  1.00  0.00     0.116 A 
HETATM   31  F   UNL     1      41.211  38.001  64.894  1.00  0.00    -0.206 F 
HETATM   32  C   UNL     1      39.881  39.081  63.275  1.00  0.00     0.043 A 
HETATM   33  C   UNL     1      39.351  40.262  62.750  1.00  0.00     0.012 A 
ENDBRANCH   6  27
TORSDOF 5
ENDMDL
MODEL 5
REMARK VINA RESULT:      -8.9      5.881     11.645
REMARK  5 active torsions:
REMARK  status: ('A' for Active; 'I' for Inactive)
REMARK    1  A    between atoms: C_3  and  O_4 
REMARK    2  A    between atoms: C_6  and  N_7 
REMARK       I    between atoms: N_7  and  C_8 
REMARK    3  A    between atoms: C_8  and  C_9 
REMARK    4  A    between atoms: C_14  and  C_15 
REMARK    5  A    between atoms: C_23  and  C_24 
ROOT
HETATM    1  C   UNL     1      21.947  49.615  48.949  1.00  0.00     0.148 A 
HETATM    2  N   UNL     1      20.838  49.114  49.542  1.00  0.00    -0.165 NA
HETATM    3  N   UNL     1      19.909  50.065  49.320  1.00  0.00    -0.240 N 
HETATM    4  C   UNL     1      20.395  51.181  48.701  1.00  0.00     0.123 A 
HETATM    5  N   UNL     1      19.622  52.262  48.468  1.00  0.00    -0.366 N 
HETATM    6  C   UNL     1      18.193  52.281  48.753  1.00  0.00     0.118 C 
HETATM    7  C   UNL     1      17.842  51.279  49.868  1.00  0.00     0.066 C 
HETATM    8  C   UNL     1      18.533  49.907  49.750  1.00  0.00     0.221 C 
HETATM    9  C   UNL     1      21.708  50.914  48.423  1.00  0.00     0.089 A 
HETATM   10  H   UNL     1      19.967  53.042  47.910  1.00  0.00     0.161 HD
ENDROOT
BRANCH   1  11
HETATM   11  C   UNL     1      23.217  48.867  48.890  1.00  0.00     0.276 C 
HETATM   12  N   UNL     1      23.254  47.843  49.815  1.00  0.00    -0.322 N 
HETATM   13  H   UNL     1      22.422  47.794  50.397  1.00  0.00     0.169 HD
HETATM   14  O   UNL     1      24.097  49.172  48.094  1.00  0.00    -0.266 OA
BRANCH  12  15
HETATM   15  C   UNL     1      24.273  46.899  50.031  1.00  0.00     0.037 A 
HETATM   16  C   UNL     1      24.451  45.752  49.254  1.00  0.00     0.066 A 
HETATM   17  C   UNL     1      25.482  44.862  49.551  1.00  0.00     0.067 A 
HETATM   18  C   UNL     1      26.353  45.098  50.610  1.00  0.00     0.036 A 
HETATM   19  C   UNL     1      26.184  46.241  51.387  1.00  0.00     0.005 A 
HETATM   20  C   UNL     1      25.146  47.135  51.101  1.00  0.00     0.029 A 
BRANCH  17  21
HETATM   21  O   UNL     1      25.605  43.750  48.771  1.00  0.00    -0.361 OA
HETATM   22  H   UNL     1      26.212  43.946  48.039  1.00  0.00     0.217 HD
ENDBRANCH  17  21
ENDBRANCH  12  15
ENDBRANCH   1  11
BRANCH   8  23
HETATM   23  C   UNL     1      17.812  48.934  48.846  1.00  0.00     0.409 C 
HETATM   24  F   UNL     1      18.276  48.912  47.583  1.00  0.00    -0.169 F 
HETATM   25  F   UNL     1      17.871  47.667  49.321  1.00  0.00    -0.169 F 
HETATM   26  F   UNL     1      16.492  49.249  48.781  1.00  0.00    -0.169 F 
ENDBRANCH   8  23
BRANCH   6  27
HETATM   27  C   UNL     1      17.344  52.179  47.496  1.00  0.00    -0.035 A 
HETATM   28  C   UNL     1      17.895  52.014  46.212  1.00  0.00     0.012 A 
HETATM   29  C   UNL     1      17.078  51.953  45.082  1.00  0.00     0.043 A 
HETATM   30  C   UNL     1      15.702  52.065  45.223  1.00  0.00     0.116 A 
HETATM   31  F   UNL     1      14.918  52.015  44.138  1.00  0.00    -0.206 F 
HETATM   32  C   UNL     1      15.128  52.235  46.475  1.00  0.00     0.043 A 
HETATM   33  C   UNL     1      15.944  52.290  47.607  1.00  0.00     0.012 A 
ENDBRANCH   6  27
TORSDOF 5
ENDMDL
MODEL 6
REMARK VINA RESULT:      -8.8      5.028      6.916
REMARK  5 active torsions:
REMARK  status: ('A' for Active; 'I' for Inactive)
REMARK    1  A    between atoms: C_3  and  O_4 
REMARK    2  A    between atoms: C_6  and  N_7 
REMARK       I    between atoms: N_7  and  C_8 
REMARK    3  A    between atoms: C_8  and  C_9 
REMARK    4  A    between atoms: C_14  and  C_15 
REMARK    5  A    between atoms: C_23  and  C_24 
ROOT
HETATM    1  C   UNL     1      27.969  40.712  49.630  1.00  0.00     0.148 A 
HETATM    2  N   UNL     1      27.266  41.869  49.597  1.00  0.00    -0.165 NA
HETATM    3  N   UNL     1      27.130  42.186  50.900  1.00  0.00    -0.240 N 
HETATM    4  C   UNL     1      27.626  41.244  51.755  1.00  0.00     0.123 A 
HETATM    5  N   UNL     1      27.506  41.362  53.094  1.00  0.00    -0.366 N 
HETATM    6  C   UNL     1      26.946  42.547  53.730  1.00  0.00     0.118 C 
HETATM    7  C   UNL     1      25.977  43.276  52.780  1.00  0.00     0.066 C 
HETATM    8  C   UNL     1      26.470  43.405  51.326  1.00  0.00     0.221 C 
HETATM    9  C   UNL     1      28.201  40.286  50.966  1.00  0.00     0.089 A 
HETATM   10  H   UNL     1      27.975  40.710  53.721  1.00  0.00     0.161 HD
ENDROOT
BRANCH   1  11
HETATM   11  C   UNL     1      28.410  40.021  48.402  1.00  0.00     0.276 C 
HETATM   12  N   UNL     1      27.845  40.575  47.270  1.00  0.00    -0.322 N 
HETATM   13  H   UNL     1      27.204  41.338  47.470  1.00  0.00     0.169 HD
HETATM   14  O   UNL     1      29.182  39.072  48.451  1.00  0.00    -0.266 OA
BRANCH  12  15
HETATM   15  C   UNL     1      28.052  40.215  45.927  1.00  0.00     0.037 A 
HETATM   16  C   UNL     1      28.709  41.022  44.996  1.00  0.00     0.066 A 
HETATM   17  C   UNL     1      28.856  40.589  43.679  1.00  0.00     0.067 A 
HETATM   18  C   UNL     1      28.365  39.353  43.269  1.00  0.00     0.036 A 
HETATM   19  C   UNL     1      27.712  38.541  44.193  1.00  0.00     0.005 A 
HETATM   20  C   UNL     1      27.553  38.972  45.514  1.00  0.00     0.029 A 
BRANCH  17  21
HETATM   21  O   UNL     1      29.492  41.420  42.805  1.00  0.00    -0.361 OA
HETATM   22  H   UNL     1      29.799  42.206  43.286  1.00  0.00     0.217 HD
ENDBRANCH  17  21
ENDBRANCH  12  15
ENDBRANCH   1  11
BRANCH   8  23
HETATM   23  C   UNL     1      27.371  44.596  51.089  1.00  0.00     0.409 C 
HETATM   24  F   UNL     1      27.419  45.000  49.807  1.00  0.00    -0.169 F 
HETATM   25  F   UNL     1      27.001  45.663  51.836  1.00  0.00    -0.169 F 
HETATM   26  F   UNL     1      28.643  44.299  51.463  1.00  0.00    -0.169 F 
ENDBRANCH   8  23
BRANCH   6  27
HETATM   27  C   UNL     1      28.007  43.424  54.374  1.00  0.00    -0.035 A 
HETATM   28  C   UNL     1      29.338  43.005  54.556  1.00  0.00     0.012 A 
HETATM   29  C   UNL     1      30.274  43.834  55.178  1.00  0.00     0.043 A 
HETATM   30  C   UNL     1      29.886  45.086  55.631  1.00  0.00     0.116 A 
HETATM   31  F   UNL     1      30.782  45.879  56.235  1.00  0.00    -0.206 F 
HETATM   32  C   UNL     1      28.580  45.527  55.472  1.00  0.00     0.043 A 
HETATM   33  C   UNL     1      27.644  44.701  54.845  1.00  0.00     0.012 A 
ENDBRANCH   6  27
TORSDOF 5
ENDMDL
MODEL 7
REMARK VINA RESULT:      -8.7     12.543     13.743
REMARK  5 active torsions:
REMARK  status: ('A' for Active; 'I' for Inactive)
REMARK    1  A    between atoms: C_3  and  O_4 
REMARK    2  A    between atoms: C_6  and  N_7 
REMARK       I    between atoms: N_7  and  C_8 
REMARK    3  A    between atoms: C_8  and  C_9 
REMARK    4  A    between atoms: C_14  and  C_15 
REMARK    5  A    between atoms: C_23  and  C_24 
ROOT
HETATM    1  C   UNL     1      27.414  49.976  38.486  1.00  0.00     0.148 A 
HETATM    2  N   UNL     1      28.476  49.144  38.367  1.00  0.00    -0.165 NA
HETATM    3  N   UNL     1      29.512  49.902  38.774  1.00  0.00    -0.240 N 
HETATM    4  C   UNL     1      29.178  51.196  39.054  1.00  0.00     0.123 A 
HETATM    5  N   UNL     1      30.103  52.114  39.402  1.00  0.00    -0.366 N 
HETATM    6  C   UNL     1      31.503  51.774  39.617  1.00  0.00     0.118 C 
HETATM    7  C   UNL     1      31.893  50.518  38.815  1.00  0.00     0.066 C 
HETATM    8  C   UNL     1      30.861  49.375  38.856  1.00  0.00     0.221 C 
HETATM    9  C   UNL     1      27.820  51.273  38.902  1.00  0.00     0.089 A 
HETATM   10  H   UNL     1      29.826  53.044  39.713  1.00  0.00     0.161 HD
ENDROOT
BRANCH   1  11
HETATM   11  C   UNL     1      26.034  49.539  38.202  1.00  0.00     0.276 C 
HETATM   12  N   UNL     1      25.170  49.867  39.228  1.00  0.00    -0.322 N 
HETATM   13  H   UNL     1      25.629  50.322  40.013  1.00  0.00     0.169 HD
HETATM   14  O   UNL     1      25.754  48.955  37.163  1.00  0.00    -0.266 OA
BRANCH  12  15
HETATM   15  C   UNL     1      23.783  49.650  39.304  1.00  0.00     0.037 A 
HETATM   16  C   UNL     1      22.827  50.544  38.817  1.00  0.00     0.066 A 
HETATM   17  C   UNL     1      21.470  50.253  38.949  1.00  0.00     0.067 A 
HETATM   18  C   UNL     1      21.042  49.074  39.552  1.00  0.00     0.036 A 
HETATM   19  C   UNL     1      21.990  48.176  40.036  1.00  0.00     0.005 A 
HETATM   20  C   UNL     1      23.354  48.465  39.916  1.00  0.00     0.029 A 
BRANCH  17  21
HETATM   21  O   UNL     1      20.575  51.165  38.469  1.00  0.00    -0.361 OA
HETATM   22  H   UNL     1      19.677  50.822  38.603  1.00  0.00     0.217 HD
ENDBRANCH  17  21
ENDBRANCH  12  15
ENDBRANCH   1  11
BRANCH   8  23
HETATM   23  C   UNL     1      30.996  48.472  40.061  1.00  0.00     0.409 C 
HETATM   24  F   UNL     1      32.256  48.355  40.519  1.00  0.00    -0.169 F 
HETATM   25  F   UNL     1      30.228  48.894  41.094  1.00  0.00    -0.169 F 
HETATM   26  F   UNL     1      30.563  47.221  39.757  1.00  0.00    -0.169 F 
ENDBRANCH   8  23
BRANCH   6  27
HETATM   27  C   UNL     1      31.881  51.748  41.089  1.00  0.00    -0.035 A 
HETATM   28  C   UNL     1      31.007  52.164  42.110  1.00  0.00     0.012 A 
HETATM   29  C   UNL     1      31.406  52.149  43.448  1.00  0.00     0.043 A 
HETATM   30  C   UNL     1      32.686  51.727  43.777  1.00  0.00     0.116 A 
HETATM   31  F   UNL     1      33.072  51.720  45.060  1.00  0.00    -0.206 F 
HETATM   32  C   UNL     1      33.574  51.316  42.793  1.00  0.00     0.043 A 
HETATM   33  C   UNL     1      33.174  51.325  41.455  1.00  0.00     0.012 A 
ENDBRANCH   6  27
TORSDOF 5
ENDMDL
MODEL 8
REMARK VINA RESULT:      -8.7      6.988     12.691
REMARK  5 active torsions:
REMARK  status: ('A' for Active; 'I' for Inactive)
REMARK    1  A    between atoms: C_3  and  O_4 
REMARK    2  A    between atoms: C_6  and  N_7 
REMARK       I    between atoms: N_7  and  C_8 
REMARK    3  A    between atoms: C_8  and  C_9 
REMARK    4  A    between atoms: C_14  and  C_15 
REMARK    5  A    between atoms: C_23  and  C_24 
ROOT
HETATM    1  C   UNL     1      20.367  50.779  49.168  1.00  0.00     0.148 A 
HETATM    2  N   UNL     1      19.497  49.757  48.986  1.00  0.00    -0.165 NA
HETATM    3  N   UNL     1      18.410  50.363  48.470  1.00  0.00    -0.240 N 
HETATM    4  C   UNL     1      18.510  51.723  48.404  1.00  0.00     0.123 A 
HETATM    5  N   UNL     1      17.487  52.496  47.986  1.00  0.00    -0.366 N 
HETATM    6  C   UNL     1      16.245  51.939  47.466  1.00  0.00     0.118 C 
HETATM    7  C   UNL     1      15.995  50.530  48.034  1.00  0.00     0.066 C 
HETATM    8  C   UNL     1      17.233  49.614  48.069  1.00  0.00     0.221 C 
HETATM    9  C   UNL     1      19.777  52.026  48.826  1.00  0.00     0.089 A 
HETATM   10  H   UNL     1      17.613  53.497  47.838  1.00  0.00     0.161 HD
ENDROOT
BRANCH   1  11
HETATM   11  C   UNL     1      21.740  50.567  49.666  1.00  0.00     0.276 C 
HETATM   12  N   UNL     1      22.461  49.726  48.842  1.00  0.00    -0.322 N 
HETATM   13  H   UNL     1      21.923  49.372  48.055  1.00  0.00     0.169 HD
HETATM   14  O   UNL     1      22.129  51.100  50.698  1.00  0.00    -0.266 OA
BRANCH  12  15
HETATM   15  C   UNL     1      23.802  49.322  48.967  1.00  0.00     0.037 A 
HETATM   16  C   UNL     1      24.882  50.031  48.436  1.00  0.00     0.066 A 
HETATM   17  C   UNL     1      26.179  49.547  48.596  1.00  0.00     0.067 A 
HETATM   18  C   UNL     1      26.426  48.366  49.288  1.00  0.00     0.036 A 
HETATM   19  C   UNL     1      25.354  47.656  49.824  1.00  0.00     0.005 A 
HETATM   20  C   UNL     1      24.049  48.130  49.661  1.00  0.00     0.029 A 
BRANCH  17  21
HETATM   21  O   UNL     1      27.198  50.268  48.046  1.00  0.00    -0.361 OA
HETATM   22  H   UNL     1      26.886  51.171  47.874  1.00  0.00     0.217 HD
ENDBRANCH  17  21
ENDBRANCH  12  15
ENDBRANCH   1  11
BRANCH   8  23
HETATM   23  C   UNL     1      17.495  48.888  46.770  1.00  0.00     0.409 C 
HETATM   24  F   UNL     1      18.043  47.669  46.924  1.00  0.00    -0.169 F 
HETATM   25  F   UNL     1      16.362  48.733  46.043  1.00  0.00    -0.169 F 
HETATM   26  F   UNL     1      18.343  49.612  45.994  1.00  0.00    -0.169 F 
ENDBRANCH   8  23
BRANCH   6  27
HETATM   27  C   UNL     1      16.136  52.059  45.954  1.00  0.00    -0.035 A 
HETATM   28  C   UNL     1      17.151  52.619  45.156  1.00  0.00     0.012 A 
HETATM   29  C   UNL     1      16.996  52.735  43.773  1.00  0.00     0.043 A 
HETATM   30  C   UNL     1      15.821  52.300  43.176  1.00  0.00     0.116 A 
HETATM   31  F   UNL     1      15.669  52.419  41.851  1.00  0.00    -0.206 F 
HETATM   32  C   UNL     1      14.799  51.749  43.936  1.00  0.00     0.043 A 
HETATM   33  C   UNL     1      14.955  51.627  45.319  1.00  0.00     0.012 A 
ENDBRANCH   6  27
TORSDOF 5
ENDMDL
MODEL 9
REMARK VINA RESULT:      -8.6     14.143     16.395
REMARK  5 active torsions:
REMARK  status: ('A' for Active; 'I' for Inactive)
REMARK    1  A    between atoms: C_3  and  O_4 
REMARK    2  A    between atoms: C_6  and  N_7 
REMARK       I    between atoms: N_7  and  C_8 
REMARK    3  A    between atoms: C_8  and  C_9 
REMARK    4  A    between atoms: C_14  and  C_15 
REMARK    5  A    between atoms: C_23  and  C_24 
ROOT
HETATM    1  C   UNL     1      33.493  52.130  39.980  1.00  0.00     0.148 A 
HETATM    2  N   UNL     1      32.511  52.767  40.661  1.00  0.00    -0.165 NA
HETATM    3  N   UNL     1      31.416  52.542  39.909  1.00  0.00    -0.240 N 
HETATM    4  C   UNL     1      31.670  51.879  38.742  1.00  0.00     0.123 A 
HETATM    5  N   UNL     1      30.703  51.636  37.833  1.00  0.00    -0.366 N 
HETATM    6  C   UNL     1      29.302  51.958  38.073  1.00  0.00     0.118 C 
HETATM    7  C   UNL     1      29.169  53.111  39.086  1.00  0.00     0.066 C 
HETATM    8  C   UNL     1      30.103  53.014  40.307  1.00  0.00     0.221 C 
HETATM    9  C   UNL     1      33.003  51.573  38.768  1.00  0.00     0.089 A 
HETATM   10  H   UNL     1      30.883  51.047  37.022  1.00  0.00     0.161 HD
ENDROOT
BRANCH   1  11
HETATM   11  C   UNL     1      34.880  52.058  40.479  1.00  0.00     0.276 C 
HETATM   12  N   UNL     1      34.926  51.913  41.851  1.00  0.00    -0.322 N 
HETATM   13  H   UNL     1      34.008  51.910  42.288  1.00  0.00     0.169 HD
HETATM   14  O   UNL     1      35.834  52.131  39.714  1.00  0.00    -0.266 OA
BRANCH  12  15
HETATM   15  C   UNL     1      36.055  51.774  42.676  1.00  0.00     0.037 A 
HETATM   16  C   UNL     1      37.019  50.776  42.516  1.00  0.00     0.066 A 
HETATM   17  C   UNL     1      38.101  50.705  43.393  1.00  0.00     0.067 A 
HETATM   18  C   UNL     1      38.248  51.621  44.429  1.00  0.00     0.036 A 
HETATM   19  C   UNL     1      37.293  52.621  44.592  1.00  0.00     0.005 A 
HETATM   20  C   UNL     1      36.200  52.694  43.723  1.00  0.00     0.029 A 
BRANCH  17  21
HETATM   21  O   UNL     1      39.007  49.703  43.203  1.00  0.00    -0.361 OA
HETATM   22  H   UNL     1      38.529  48.872  43.053  1.00  0.00     0.217 HD
ENDBRANCH  17  21
ENDBRANCH  12  15
ENDBRANCH   1  11
BRANCH   8  23
HETATM   23  C   UNL     1      29.559  52.157  41.427  1.00  0.00     0.409 C 
HETATM   24  F   UNL     1      29.987  50.882  41.400  1.00  0.00    -0.169 F 
HETATM   25  F   UNL     1      29.872  52.662  42.644  1.00  0.00    -0.169 F 
HETATM   26  F   UNL     1      28.202  52.125  41.372  1.00  0.00    -0.169 F 
ENDBRANCH   8  23
BRANCH   6  27
HETATM   27  C   UNL     1      28.461  50.728  38.374  1.00  0.00    -0.035 A 
HETATM   28  C   UNL     1      29.022  49.467  38.649  1.00  0.00     0.012 A 
HETATM   29  C   UNL     1      28.210  48.357  38.892  1.00  0.00     0.043 A 
HETATM   30  C   UNL     1      26.830  48.496  38.855  1.00  0.00     0.116 A 
HETATM   31  F   UNL     1      26.051  47.430  39.081  1.00  0.00    -0.206 F 
HETATM   32  C   UNL     1      26.246  49.725  38.581  1.00  0.00     0.043 A 
HETATM   33  C   UNL     1      27.057  50.837  38.343  1.00  0.00     0.012 A 
ENDBRANCH   6  27
TORSDOF 5
ENDMDL
MODEL 10
REMARK VINA RESULT:      -8.4     12.595     13.589
REMARK  5 active torsions:
REMARK  status: ('A' for Active; 'I' for Inactive)
REMARK    1  A    between atoms: C_3  and  O_4 
REMARK    2  A    between atoms: C_6  and  N_7 
REMARK       I    between atoms: N_7  and  C_8 
REMARK    3  A    between atoms: C_8  and  C_9 
REMARK    4  A    between atoms: C_14  and  C_15 
REMARK    5  A    between atoms: C_23  and  C_24 
ROOT
HETATM    1  C   UNL     1      28.573  49.116  40.848  1.00  0.00     0.148 A 
HETATM    2  N   UNL     1      28.756  50.456  40.795  1.00  0.00    -0.165 NA
HETATM    3  N   UNL     1      29.853  50.651  41.552  1.00  0.00    -0.240 N 
HETATM    4  C   UNL     1      30.317  49.519  42.158  1.00  0.00     0.123 A 
HETATM    5  N   UNL     1      31.361  49.543  43.013  1.00  0.00    -0.366 N 
HETATM    6  C   UNL     1      32.140  50.749  43.266  1.00  0.00     0.118 C 
HETATM    7  C   UNL     1      31.298  52.012  43.005  1.00  0.00     0.066 C 
HETATM    8  C   UNL     1      30.439  51.966  41.727  1.00  0.00     0.221 C 
HETATM    9  C   UNL     1      29.527  48.499  41.703  1.00  0.00     0.089 A 
HETATM   10  H   UNL     1      31.765  48.679  43.371  1.00  0.00     0.161 HD
ENDROOT
BRANCH   1  11
HETATM   11  C   UNL     1      27.502  48.434  40.096  1.00  0.00     0.276 C 
HETATM   12  N   UNL     1      26.306  49.121  40.168  1.00  0.00    -0.322 N 
HETATM   13  H   UNL     1      26.355  49.957  40.746  1.00  0.00     0.169 HD
HETATM   14  O   UNL     1      27.712  47.383  39.505  1.00  0.00    -0.266 OA
BRANCH  12  15
HETATM   15  C   UNL     1      25.081  48.806  39.556  1.00  0.00     0.037 A 
HETATM   16  C   UNL     1      24.656  49.346  38.340  1.00  0.00     0.066 A 
HETATM   17  C   UNL     1      23.416  48.986  37.815  1.00  0.00     0.067 A 
HETATM   18  C   UNL     1      22.587  48.085  38.476  1.00  0.00     0.036 A 
HETATM   19  C   UNL     1      23.007  47.540  39.687  1.00  0.00     0.005 A 
HETATM   20  C   UNL     1      24.246  47.902  40.226  1.00  0.00     0.029 A 
BRANCH  17  21
HETATM   21  O   UNL     1      23.040  49.552  36.631  1.00  0.00    -0.361 OA
HETATM   22  H   UNL     1      23.835  49.834  36.152  1.00  0.00     0.217 HD
ENDBRANCH  17  21
ENDBRANCH  12  15
ENDBRANCH   1  11
BRANCH   8  23
HETATM   23  C   UNL     1      31.182  52.376  40.475  1.00  0.00     0.409 C 
HETATM   24  F   UNL     1      32.276  53.124  40.707  1.00  0.00    -0.169 F 
HETATM   25  F   UNL     1      31.573  51.302  39.748  1.00  0.00    -0.169 F 
HETATM   26  F   UNL     1      30.366  53.101  39.666  1.00  0.00    -0.169 F 
ENDBRANCH   8  23
BRANCH   6  27
HETATM   27  C   UNL     1      33.499  50.721  42.587  1.00  0.00    -0.035 A 
HETATM   28  C   UNL     1      33.813  49.837  41.539  1.00  0.00     0.012 A 
HETATM   29  C   UNL     1      35.085  49.827  40.962  1.00  0.00     0.043 A 
HETATM   30  C   UNL     1      36.058  50.696  41.435  1.00  0.00     0.116 A 
HETATM   31  F   UNL     1      37.280  50.682  40.888  1.00  0.00    -0.206 F 
HETATM   32  C   UNL     1      35.782  51.576  42.471  1.00  0.00     0.043 A 
HETATM   33  C   UNL     1      34.509  51.591  43.045  1.00  0.00     0.012 A 
ENDBRANCH   6  27
TORSDOF 5
ENDMDL
