MODEL 1
REMARK VINA RESULT:      -9.4      0.000      0.000
REMARK  4 active torsions:
REMARK  status: ('A' for Active; 'I' for Inactive)
REMARK    1  A    between atoms: O_2  and  C_3 
REMARK    2  A    between atoms: C_5  and  O_6 
REMARK    3  A    between atoms: C_8  and  C_9 
REMARK    4  A    between atoms: C_20  and  N_21 
ROOT
HETATM    1  C   UNL     1      26.215  45.807  52.372  1.00  0.00    -0.022 A 
HETATM    2  C   UNL     1      26.266  46.920  51.521  1.00  0.00     0.031 A 
HETATM    3  C   UNL     1      25.330  47.107  50.484  1.00  0.00     0.059 A 
HETATM    4  C   UNL     1      24.304  46.168  50.296  1.00  0.00     0.050 A 
HETATM    5  N   UNL     1      23.216  46.276  49.405  1.00  0.00    -0.324 N 
HETATM    6  C   UNL     1      22.597  47.412  48.971  1.00  0.00     0.247 C 
HETATM    7  O   UNL     1      21.477  47.340  48.456  1.00  0.00    -0.271 OA
HETATM    8  C   UNL     1      23.173  48.762  49.350  1.00  0.00     0.210 C 
HETATM    9  N   UNL     1      24.558  48.879  48.955  1.00  0.00    -0.332 N 
HETATM   10  C   UNL     1      25.610  48.237  49.562  1.00  0.00     0.256 C 
HETATM   11  O   UNL     1      26.772  48.579  49.362  1.00  0.00    -0.267 OA
HETATM   12  C   UNL     1      22.459  49.888  48.569  1.00  0.00     0.217 C 
HETATM   13  C   UNL     1      23.574  50.877  48.244  1.00  0.00     0.055 C 
HETATM   14  C   UNL     1      24.766  49.963  48.010  1.00  0.00     0.129 C 
HETATM   15  C   UNL     1      24.310  45.006  51.079  1.00  0.00     0.031 A 
HETATM   16  C   UNL     1      25.246  44.833  52.103  1.00  0.00     0.014 A 
HETATM   17  H   UNL     1      22.659  45.440  49.251  1.00  0.00     0.169 HD
ENDROOT
BRANCH   1  18
HETATM   18  C   UNL     1      27.151  45.662  53.506  1.00  0.00     0.008 A 
HETATM   19  C   UNL     1      27.141  46.548  54.609  1.00  0.00     0.082 A 
HETATM   20  C   UNL     1      28.053  46.369  55.657  1.00  0.00     0.074 A 
HETATM   21  C   UNL     1      28.967  45.312  55.646  1.00  0.00     0.070 A 
HETATM   22  C   UNL     1      28.989  44.439  54.564  1.00  0.00     0.038 A 
HETATM   23  C   UNL     1      28.090  44.614  53.507  1.00  0.00     0.018 A 
BRANCH  19  24
HETATM   24  O   UNL     1      26.238  47.584  54.561  1.00  0.00    -0.355 OA
HETATM   25  C   UNL     1      26.339  48.575  55.577  1.00  0.00     0.210 C 
ENDBRANCH  19  24
BRANCH  21  26
HETATM   26  O   UNL     1      29.786  45.258  56.741  1.00  0.00    -0.356 OA
HETATM   27  C   UNL     1      29.398  46.029  57.871  1.00  0.00     0.210 C 
ENDBRANCH  21  26
ENDBRANCH   1  18
BRANCH  12  28
HETATM   28  N   UNL     1      21.400  50.564  49.372  1.00  0.00    -0.072 N 
HETATM   29  H   UNL     1      21.673  51.538  49.581  1.00  0.00     0.274 HD
HETATM   30  H   UNL     1      20.485  50.585  48.903  1.00  0.00     0.274 HD
HETATM   31  H   UNL     1      21.267  50.099  50.281  1.00  0.00     0.274 HD
ENDBRANCH  12  28
TORSDOF 4
ENDMDL
MODEL 2
REMARK VINA RESULT:      -9.3      1.054      1.870
REMARK  4 active torsions:
REMARK  status: ('A' for Active; 'I' for Inactive)
REMARK    1  A    between atoms: O_2  and  C_3 
REMARK    2  A    between atoms: C_5  and  O_6 
REMARK    3  A    between atoms: C_8  and  C_9 
REMARK    4  A    between atoms: C_20  and  N_21 
ROOT
HETATM    1  C   UNL     1      26.160  46.011  52.488  1.00  0.00    -0.022 A 
HETATM    2  C   UNL     1      26.201  47.101  51.607  1.00  0.00     0.031 A 
HETATM    3  C   UNL     1      25.309  47.213  50.522  1.00  0.00     0.059 A 
HETATM    4  C   UNL     1      24.338  46.222  50.314  1.00  0.00     0.050 A 
HETATM    5  N   UNL     1      23.291  46.253  49.370  1.00  0.00    -0.324 N 
HETATM    6  C   UNL     1      22.642  47.345  48.872  1.00  0.00     0.247 C 
HETATM    7  O   UNL     1      21.553  47.206  48.307  1.00  0.00    -0.271 OA
HETATM    8  C   UNL     1      23.136  48.732  49.236  1.00  0.00     0.210 C 
HETATM    9  N   UNL     1      24.532  48.903  48.904  1.00  0.00    -0.332 N 
HETATM   10  C   UNL     1      25.581  48.329  49.580  1.00  0.00     0.256 C 
HETATM   11  O   UNL     1      26.735  48.721  49.425  1.00  0.00    -0.267 OA
HETATM   12  C   UNL     1      22.410  49.800  48.389  1.00  0.00     0.217 C 
HETATM   13  C   UNL     1      23.493  50.831  48.087  1.00  0.00     0.055 C 
HETATM   14  C   UNL     1      24.736  49.968  47.938  1.00  0.00     0.129 C 
HETATM   15  C   UNL     1      24.360  45.085  51.132  1.00  0.00     0.031 A 
HETATM   16  C   UNL     1      25.252  44.985  52.204  1.00  0.00     0.014 A 
HETATM   17  H   UNL     1      22.781  45.388  49.215  1.00  0.00     0.169 HD
ENDROOT
BRANCH   1  18
HETATM   18  C   UNL     1      27.045  45.943  53.669  1.00  0.00     0.008 A 
HETATM   19  C   UNL     1      27.990  44.904  53.844  1.00  0.00     0.082 A 
HETATM   20  C   UNL     1      28.803  44.882  54.984  1.00  0.00     0.074 A 
HETATM   21  C   UNL     1      28.714  45.885  55.952  1.00  0.00     0.070 A 
HETATM   22  C   UNL     1      27.785  46.908  55.794  1.00  0.00     0.038 A 
HETATM   23  C   UNL     1      26.961  46.935  54.664  1.00  0.00     0.018 A 
BRANCH  19  24
HETATM   24  O   UNL     1      28.022  43.929  52.874  1.00  0.00    -0.355 OA
HETATM   25  C   UNL     1      29.270  43.285  52.648  1.00  0.00     0.210 C 
ENDBRANCH  19  24
BRANCH  21  26
HETATM   26  O   UNL     1      29.577  45.738  57.004  1.00  0.00    -0.356 OA
HETATM   27  C   UNL     1      30.694  44.881  56.801  1.00  0.00     0.210 C 
ENDBRANCH  21  26
ENDBRANCH   1  18
BRANCH  12  28
HETATM   28  N   UNL     1      21.283  50.448  49.120  1.00  0.00    -0.072 N 
HETATM   29  H   UNL     1      21.581  51.356  49.509  1.00  0.00     0.274 HD
HETATM   30  H   UNL     1      20.456  50.611  48.529  1.00  0.00     0.274 HD
HETATM   31  H   UNL     1      20.979  49.874  49.920  1.00  0.00     0.274 HD
ENDBRANCH  12  28
TORSDOF 4
ENDMDL
MODEL 3
REMARK VINA RESULT:      -8.6      3.497      9.498
REMARK  4 active torsions:
REMARK  status: ('A' for Active; 'I' for Inactive)
REMARK    1  A    between atoms: O_2  and  C_3 
REMARK    2  A    between atoms: C_5  and  O_6 
REMARK    3  A    between atoms: C_8  and  C_9 
REMARK    4  A    between atoms: C_20  and  N_21 
ROOT
HETATM    1  C   UNL     1      21.085  50.547  48.497  1.00  0.00    -0.022 A 
HETATM    2  C   UNL     1      21.324  49.191  48.765  1.00  0.00     0.031 A 
HETATM    3  C   UNL     1      22.629  48.661  48.805  1.00  0.00     0.059 A 
HETATM    4  C   UNL     1      23.730  49.504  48.590  1.00  0.00     0.050 A 
HETATM    5  N   UNL     1      25.092  49.165  48.733  1.00  0.00    -0.324 N 
HETATM    6  C   UNL     1      25.643  48.247  49.578  1.00  0.00     0.247 C 
HETATM    7  O   UNL     1      26.854  48.286  49.819  1.00  0.00    -0.271 OA
HETATM    8  C   UNL     1      24.734  47.356  50.402  1.00  0.00     0.210 C 
HETATM    9  N   UNL     1      23.802  46.632  49.568  1.00  0.00    -0.332 N 
HETATM   10  C   UNL     1      22.718  47.184  48.930  1.00  0.00     0.256 C 
HETATM   11  O   UNL     1      21.822  46.484  48.467  1.00  0.00    -0.267 OA
HETATM   12  C   UNL     1      25.556  46.251  51.102  1.00  0.00     0.217 C 
HETATM   13  C   UNL     1      24.657  45.020  51.030  1.00  0.00     0.055 C 
HETATM   14  C   UNL     1      23.970  45.194  49.686  1.00  0.00     0.129 C 
HETATM   15  C   UNL     1      23.490  50.835  48.224  1.00  0.00     0.031 A 
HETATM   16  C   UNL     1      22.190  51.348  48.186  1.00  0.00     0.014 A 
HETATM   17  H   UNL     1      25.774  49.824  48.367  1.00  0.00     0.169 HD
ENDROOT
BRANCH   1  18
HETATM   18  C   UNL     1      19.720  51.110  48.537  1.00  0.00     0.008 A 
HETATM   19  C   UNL     1      18.840  51.032  47.431  1.00  0.00     0.082 A 
HETATM   20  C   UNL     1      17.557  51.586  47.518  1.00  0.00     0.074 A 
HETATM   21  C   UNL     1      17.115  52.202  48.692  1.00  0.00     0.070 A 
HETATM   22  C   UNL     1      17.973  52.289  49.783  1.00  0.00     0.038 A 
HETATM   23  C   UNL     1      19.260  51.748  49.704  1.00  0.00     0.018 A 
BRANCH  19  24
HETATM   24  O   UNL     1      19.332  50.437  46.293  1.00  0.00    -0.355 OA
HETATM   25  C   UNL     1      18.620  49.308  45.797  1.00  0.00     0.210 C 
ENDBRANCH  19  24
BRANCH  21  26
HETATM   26  O   UNL     1      15.837  52.686  48.632  1.00  0.00    -0.356 OA
HETATM   27  C   UNL     1      15.141  52.813  49.867  1.00  0.00     0.210 C 
ENDBRANCH  21  26
ENDBRANCH   1  18
BRANCH  12  28
HETATM   28  N   UNL     1      25.861  46.574  52.526  1.00  0.00    -0.072 N 
HETATM   29  H   UNL     1      26.217  47.540  52.608  1.00  0.00     0.274 HD
HETATM   30  H   UNL     1      25.045  46.483  53.146  1.00  0.00     0.274 HD
HETATM   31  H   UNL     1      26.599  45.960  52.897  1.00  0.00     0.274 HD
ENDBRANCH  12  28
TORSDOF 4
ENDMDL
MODEL 4
REMARK VINA RESULT:      -8.0      2.043      3.317
REMARK  4 active torsions:
REMARK  status: ('A' for Active; 'I' for Inactive)
REMARK    1  A    between atoms: O_2  and  C_3 
REMARK    2  A    between atoms: C_5  and  O_6 
REMARK    3  A    between atoms: C_8  and  C_9 
REMARK    4  A    between atoms: C_20  and  N_21 
ROOT
HETATM    1  C   UNL     1      24.852  45.673  50.424  1.00  0.00    -0.022 A 
HETATM    2  C   UNL     1      24.577  47.034  50.228  1.00  0.00     0.031 A 
HETATM    3  C   UNL     1      23.525  47.467  49.396  1.00  0.00     0.059 A 
HETATM    4  C   UNL     1      22.714  46.521  48.751  1.00  0.00     0.050 A 
HETATM    5  N   UNL     1      21.546  46.782  48.004  1.00  0.00    -0.324 N 
HETATM    6  C   UNL     1      20.656  47.803  48.168  1.00  0.00     0.247 C 
HETATM    7  O   UNL     1      19.533  47.723  47.661  1.00  0.00    -0.271 OA
HETATM    8  C   UNL     1      20.959  48.898  49.172  1.00  0.00     0.210 C 
HETATM    9  N   UNL     1      22.241  49.515  48.914  1.00  0.00    -0.332 N 
HETATM   10  C   UNL     1      23.461  48.930  49.151  1.00  0.00     0.256 C 
HETATM   11  O   UNL     1      24.496  49.591  49.169  1.00  0.00    -0.267 OA
HETATM   12  C   UNL     1      19.945  50.054  49.027  1.00  0.00     0.217 C 
HETATM   13  C   UNL     1      20.782  51.310  49.251  1.00  0.00     0.055 C 
HETATM   14  C   UNL     1      22.115  50.933  48.625  1.00  0.00     0.129 C 
HETATM   15  C   UNL     1      23.049  45.165  48.865  1.00  0.00     0.031 A 
HETATM   16  C   UNL     1      24.096  44.750  49.693  1.00  0.00     0.014 A 
HETATM   17  H   UNL     1      21.171  46.018  47.449  1.00  0.00     0.169 HD
ENDROOT
BRANCH   1  18
HETATM   18  C   UNL     1      25.904  45.228  51.362  1.00  0.00     0.008 A 
HETATM   19  C   UNL     1      26.968  44.388  50.956  1.00  0.00     0.082 A 
HETATM   20  C   UNL     1      27.938  43.990  51.886  1.00  0.00     0.074 A 
HETATM   21  C   UNL     1      27.888  44.427  53.212  1.00  0.00     0.070 A 
HETATM   22  C   UNL     1      26.844  45.249  53.622  1.00  0.00     0.038 A 
HETATM   23  C   UNL     1      25.864  45.644  52.706  1.00  0.00     0.018 A 
BRANCH  19  24
HETATM   24  O   UNL     1      26.958  43.968  49.647  1.00  0.00    -0.355 OA
HETATM   25  C   UNL     1      26.940  42.563  49.421  1.00  0.00     0.210 C 
ENDBRANCH  19  24
BRANCH  21  26
HETATM   26  O   UNL     1      28.908  43.967  54.000  1.00  0.00    -0.356 OA
HETATM   27  C   UNL     1      29.198  44.715  55.174  1.00  0.00     0.210 C 
ENDBRANCH  21  26
ENDBRANCH   1  18
BRANCH  12  28
HETATM   28  N   UNL     1      18.849  49.989  50.036  1.00  0.00    -0.072 N 
HETATM   29  H   UNL     1      17.979  49.642  49.602  1.00  0.00     0.274 HD
HETATM   30  H   UNL     1      19.069  49.380  50.836  1.00  0.00     0.274 HD
HETATM   31  H   UNL     1      18.633  50.923  50.412  1.00  0.00     0.274 HD
ENDBRANCH  12  28
TORSDOF 4
ENDMDL
MODEL 5
REMARK VINA RESULT:      -7.8      4.706      6.365
REMARK  4 active torsions:
REMARK  status: ('A' for Active; 'I' for Inactive)
REMARK    1  A    between atoms: O_2  and  C_3 
REMARK    2  A    between atoms: C_5  and  O_6 
REMARK    3  A    between atoms: C_8  and  C_9 
REMARK    4  A    between atoms: C_20  and  N_21 
ROOT
HETATM    1  C   UNL     1      27.731  43.219  52.982  1.00  0.00    -0.022 A 
HETATM    2  C   UNL     1      28.174  42.160  52.177  1.00  0.00     0.031 A 
HETATM    3  C   UNL     1      27.383  41.640  51.133  1.00  0.00     0.059 A 
HETATM    4  C   UNL     1      26.123  42.199  50.871  1.00  0.00     0.050 A 
HETATM    5  N   UNL     1      25.275  41.893  49.785  1.00  0.00    -0.324 N 
HETATM    6  C   UNL     1      25.629  41.479  48.534  1.00  0.00     0.247 C 
HETATM    7  O   UNL     1      24.814  41.558  47.610  1.00  0.00    -0.271 OA
HETATM    8  C   UNL     1      27.083  41.168  48.240  1.00  0.00     0.210 C 
HETATM    9  N   UNL     1      27.612  40.184  49.157  1.00  0.00    -0.332 N 
HETATM   10  C   UNL     1      27.908  40.415  50.479  1.00  0.00     0.256 C 
HETATM   11  O   UNL     1      28.598  39.633  51.127  1.00  0.00    -0.267 OA
HETATM   12  C   UNL     1      27.219  40.504  46.852  1.00  0.00     0.217 C 
HETATM   13  C   UNL     1      28.309  39.455  47.048  1.00  0.00     0.055 C 
HETATM   14  C   UNL     1      28.059  38.984  48.471  1.00  0.00     0.129 C 
HETATM   15  C   UNL     1      25.638  43.188  51.736  1.00  0.00     0.031 A 
HETATM   16  C   UNL     1      26.432  43.693  52.769  1.00  0.00     0.014 A 
HETATM   17  H   UNL     1      24.321  42.243  49.830  1.00  0.00     0.169 HD
ENDROOT
BRANCH   1  18
HETATM   18  C   UNL     1      28.600  43.810  54.022  1.00  0.00     0.008 A 
HETATM   19  C   UNL     1      28.364  45.098  54.558  1.00  0.00     0.082 A 
HETATM   20  C   UNL     1      29.220  45.614  55.539  1.00  0.00     0.074 A 
HETATM   21  C   UNL     1      30.301  44.870  56.018  1.00  0.00     0.070 A 
HETATM   22  C   UNL     1      30.545  43.604  55.495  1.00  0.00     0.038 A 
HETATM   23  C   UNL     1      29.703  43.083  54.507  1.00  0.00     0.018 A 
BRANCH  19  24
HETATM   24  O   UNL     1      27.302  45.798  54.036  1.00  0.00    -0.355 OA
HETATM   25  C   UNL     1      27.189  47.168  54.406  1.00  0.00     0.210 C 
ENDBRANCH  19  24
BRANCH  21  26
HETATM   26  O   UNL     1      31.041  45.498  56.982  1.00  0.00    -0.356 OA
HETATM   27  C   UNL     1      30.357  45.878  58.170  1.00  0.00     0.210 C 
ENDBRANCH  21  26
ENDBRANCH   1  18
BRANCH  12  28
HETATM   28  N   UNL     1      27.628  41.468  45.790  1.00  0.00    -0.072 N 
HETATM   29  H   UNL     1      27.386  42.433  46.066  1.00  0.00     0.274 HD
HETATM   30  H   UNL     1      28.636  41.441  45.583  1.00  0.00     0.274 HD
HETATM   31  H   UNL     1      27.129  41.285  44.908  1.00  0.00     0.274 HD
ENDBRANCH  12  28
TORSDOF 4
ENDMDL
MODEL 6
REMARK VINA RESULT:      -7.8      5.413      9.228
REMARK  4 active torsions:
REMARK  status: ('A' for Active; 'I' for Inactive)
REMARK    1  A    between atoms: O_2  and  C_3 
REMARK    2  A    between atoms: C_5  and  O_6 
REMARK    3  A    between atoms: C_8  and  C_9 
REMARK    4  A    between atoms: C_20  and  N_21 
ROOT
HETATM    1  C   UNL     1      20.241  50.724  47.758  1.00  0.00    -0.022 A 
HETATM    2  C   UNL     1      19.656  50.310  46.554  1.00  0.00     0.031 A 
HETATM    3  C   UNL     1      18.472  50.896  46.063  1.00  0.00     0.059 A 
HETATM    4  C   UNL     1      17.860  51.934  46.782  1.00  0.00     0.050 A 
HETATM    5  N   UNL     1      16.762  52.715  46.364  1.00  0.00    -0.324 N 
HETATM    6  C   UNL     1      16.408  53.052  45.091  1.00  0.00     0.247 C 
HETATM    7  O   UNL     1      15.626  53.988  44.900  1.00  0.00    -0.271 OA
HETATM    8  C   UNL     1      17.167  52.448  43.925  1.00  0.00     0.210 C 
HETATM    9  N   UNL     1      17.160  51.004  43.979  1.00  0.00    -0.332 N 
HETATM   10  C   UNL     1      17.879  50.243  44.868  1.00  0.00     0.256 C 
HETATM   11  O   UNL     1      18.045  49.038  44.695  1.00  0.00    -0.267 OA
HETATM   12  C   UNL     1      16.459  52.782  42.594  1.00  0.00     0.217 C 
HETATM   13  C   UNL     1      16.615  51.511  41.763  1.00  0.00     0.055 C 
HETATM   14  C   UNL     1      16.519  50.418  42.815  1.00  0.00     0.129 C 
HETATM   15  C   UNL     1      18.387  52.280  48.033  1.00  0.00     0.031 A 
HETATM   16  C   UNL     1      19.561  51.689  48.509  1.00  0.00     0.014 A 
HETATM   17  H   UNL     1      16.318  53.303  47.065  1.00  0.00     0.169 HD
ENDROOT
BRANCH   1  18
HETATM   18  C   UNL     1      21.525  50.159  48.224  1.00  0.00     0.008 A 
HETATM   19  C   UNL     1      21.599  48.933  48.925  1.00  0.00     0.082 A 
HETATM   20  C   UNL     1      22.841  48.443  49.349  1.00  0.00     0.074 A 
HETATM   21  C   UNL     1      24.022  49.137  49.073  1.00  0.00     0.070 A 
HETATM   22  C   UNL     1      23.961  50.347  48.389  1.00  0.00     0.038 A 
HETATM   23  C   UNL     1      22.725  50.850  47.970  1.00  0.00     0.018 A 
BRANCH  19  24
HETATM   24  O   UNL     1      20.407  48.301  49.191  1.00  0.00    -0.355 OA
HETATM   25  C   UNL     1      20.208  47.024  48.595  1.00  0.00     0.210 C 
ENDBRANCH  19  24
BRANCH  21  26
HETATM   26  O   UNL     1      25.158  48.533  49.538  1.00  0.00    -0.356 OA
HETATM   27  C   UNL     1      24.985  47.366  50.333  1.00  0.00     0.210 C 
ENDBRANCH  21  26
ENDBRANCH   1  18
BRANCH  12  28
HETATM   28  N   UNL     1      17.084  53.933  41.881  1.00  0.00    -0.072 N 
HETATM   29  H   UNL     1      17.541  54.568  42.555  1.00  0.00     0.274 HD
HETATM   30  H   UNL     1      17.787  53.647  41.187  1.00  0.00     0.274 HD
HETATM   31  H   UNL     1      16.376  54.494  41.387  1.00  0.00     0.274 HD
ENDBRANCH  12  28
TORSDOF 4
ENDMDL
MODEL 7
REMARK VINA RESULT:      -7.7     11.881     15.001
REMARK  4 active torsions:
REMARK  status: ('A' for Active; 'I' for Inactive)
REMARK    1  A    between atoms: O_2  and  C_3 
REMARK    2  A    between atoms: C_5  and  O_6 
REMARK    3  A    between atoms: C_8  and  C_9 
REMARK    4  A    between atoms: C_20  and  N_21 
ROOT
HETATM    1  C   UNL     1      32.301  51.121  42.794  1.00  0.00    -0.022 A 
HETATM    2  C   UNL     1      33.401  51.221  41.930  1.00  0.00     0.031 A 
HETATM    3  C   UNL     1      34.664  51.654  42.381  1.00  0.00     0.059 A 
HETATM    4  C   UNL     1      34.843  51.984  43.733  1.00  0.00     0.050 A 
HETATM    5  N   UNL     1      36.063  52.296  44.369  1.00  0.00    -0.324 N 
HETATM    6  C   UNL     1      37.313  51.849  44.054  1.00  0.00     0.247 C 
HETATM    7  O   UNL     1      38.225  51.949  44.879  1.00  0.00    -0.271 OA
HETATM    8  C   UNL     1      37.508  51.011  42.805  1.00  0.00     0.210 C 
HETATM    9  N   UNL     1      37.010  51.688  41.629  1.00  0.00    -0.332 N 
HETATM   10  C   UNL     1      35.683  51.871  41.324  1.00  0.00     0.256 C 
HETATM   11  O   UNL     1      35.324  52.205  40.198  1.00  0.00    -0.267 OA
HETATM   12  C   UNL     1      39.013  50.814  42.521  1.00  0.00     0.217 C 
HETATM   13  C   UNL     1      39.116  50.891  41.001  1.00  0.00     0.055 C 
HETATM   14  C   UNL     1      38.059  51.926  40.652  1.00  0.00     0.129 C 
HETATM   15  C   UNL     1      33.724  51.981  44.576  1.00  0.00     0.031 A 
HETATM   16  C   UNL     1      32.477  51.551  44.114  1.00  0.00     0.014 A 
HETATM   17  H   UNL     1      36.010  52.690  45.305  1.00  0.00     0.169 HD
ENDROOT
BRANCH   1  18
HETATM   18  C   UNL     1      31.003  50.589  42.330  1.00  0.00     0.008 A 
HETATM   19  C   UNL     1      29.998  51.423  41.785  1.00  0.00     0.082 A 
HETATM   20  C   UNL     1      28.783  50.869  41.364  1.00  0.00     0.074 A 
HETATM   21  C   UNL     1      28.547  49.495  41.451  1.00  0.00     0.070 A 
HETATM   22  C   UNL     1      29.526  48.667  41.990  1.00  0.00     0.038 A 
HETATM   23  C   UNL     1      30.739  49.210  42.423  1.00  0.00     0.018 A 
BRANCH  19  24
HETATM   24  O   UNL     1      30.271  52.770  41.742  1.00  0.00    -0.355 OA
HETATM   25  C   UNL     1      30.262  53.389  40.460  1.00  0.00     0.210 C 
ENDBRANCH  19  24
BRANCH  21  26
HETATM   26  O   UNL     1      27.321  49.098  40.991  1.00  0.00    -0.356 OA
HETATM   27  C   UNL     1      26.792  49.811  39.880  1.00  0.00     0.210 C 
ENDBRANCH  21  26
ENDBRANCH   1  18
BRANCH  12  28
HETATM   28  N   UNL     1      39.521  49.495  42.998  1.00  0.00    -0.072 N 
HETATM   29  H   UNL     1      39.288  49.357  43.994  1.00  0.00     0.274 HD
HETATM   30  H   UNL     1      39.140  48.698  42.469  1.00  0.00     0.274 HD
HETATM   31  H   UNL     1      40.547  49.444  42.930  1.00  0.00     0.274 HD
ENDBRANCH  12  28
TORSDOF 4
ENDMDL
MODEL 8
REMARK VINA RESULT:      -7.7     11.954     13.063
REMARK  4 active torsions:
REMARK  status: ('A' for Active; 'I' for Inactive)
REMARK    1  A    between atoms: O_2  and  C_3 
REMARK    2  A    between atoms: C_5  and  O_6 
REMARK    3  A    between atoms: C_8  and  C_9 
REMARK    4  A    between atoms: C_20  and  N_21 
ROOT
HETATM    1  C   UNL     1      32.593  49.724  41.517  1.00  0.00    -0.022 A 
HETATM    2  C   UNL     1      31.453  50.249  40.892  1.00  0.00     0.031 A 
HETATM    3  C   UNL     1      30.521  49.424  40.231  1.00  0.00     0.059 A 
HETATM    4  C   UNL     1      30.720  48.035  40.202  1.00  0.00     0.050 A 
HETATM    5  N   UNL     1      29.821  47.066  39.710  1.00  0.00    -0.324 N 
HETATM    6  C   UNL     1      28.458  47.123  39.681  1.00  0.00     0.247 C 
HETATM    7  O   UNL     1      27.805  46.088  39.521  1.00  0.00    -0.271 OA
HETATM    8  C   UNL     1      27.760  48.405  40.094  1.00  0.00     0.210 C 
HETATM    9  N   UNL     1      28.230  49.536  39.328  1.00  0.00    -0.332 N 
HETATM   10  C   UNL     1      29.459  50.134  39.474  1.00  0.00     0.256 C 
HETATM   11  O   UNL     1      29.694  51.240  38.996  1.00  0.00    -0.267 OA
HETATM   12  C   UNL     1      26.253  48.324  39.767  1.00  0.00     0.217 C 
HETATM   13  C   UNL     1      25.901  49.732  39.295  1.00  0.00     0.055 C 
HETATM   14  C   UNL     1      27.163  50.158  38.563  1.00  0.00     0.129 C 
HETATM   15  C   UNL     1      31.907  47.519  40.738  1.00  0.00     0.031 A 
HETATM   16  C   UNL     1      32.823  48.350  41.389  1.00  0.00     0.014 A 
HETATM   17  H   UNL     1      30.178  46.122  39.590  1.00  0.00     0.169 HD
ENDROOT
BRANCH   1  18
HETATM   18  C   UNL     1      33.521  50.588  42.276  1.00  0.00     0.008 A 
HETATM   19  C   UNL     1      34.836  50.856  41.830  1.00  0.00     0.082 A 
HETATM   20  C   UNL     1      35.678  51.678  42.589  1.00  0.00     0.074 A 
HETATM   21  C   UNL     1      35.236  52.260  43.780  1.00  0.00     0.070 A 
HETATM   22  C   UNL     1      33.947  51.999  44.231  1.00  0.00     0.038 A 
HETATM   23  C   UNL     1      33.100  51.171  43.486  1.00  0.00     0.018 A 
BRANCH  19  24
HETATM   24  O   UNL     1      35.230  50.241  40.665  1.00  0.00    -0.355 OA
HETATM   25  C   UNL     1      36.530  50.555  40.178  1.00  0.00     0.210 C 
ENDBRANCH  19  24
BRANCH  21  26
HETATM   26  O   UNL     1      36.164  53.047  44.407  1.00  0.00    -0.356 OA
HETATM   27  C   UNL     1      37.449  52.476  44.621  1.00  0.00     0.210 C 
ENDBRANCH  21  26
ENDBRANCH   1  18
BRANCH  12  28
HETATM   28  N   UNL     1      25.424  47.964  40.953  1.00  0.00    -0.072 N 
HETATM   29  H   UNL     1      25.469  46.948  41.130  1.00  0.00     0.274 HD
HETATM   30  H   UNL     1      25.714  48.449  41.813  1.00  0.00     0.274 HD
HETATM   31  H   UNL     1      24.431  48.188  40.795  1.00  0.00     0.274 HD
ENDBRANCH  12  28
TORSDOF 4
ENDMDL
MODEL 9
REMARK VINA RESULT:      -7.7     11.954     13.311
REMARK  4 active torsions:
REMARK  status: ('A' for Active; 'I' for Inactive)
REMARK    1  A    between atoms: O_2  and  C_3 
REMARK    2  A    between atoms: C_5  and  O_6 
REMARK    3  A    between atoms: C_8  and  C_9 
REMARK    4  A    between atoms: C_20  and  N_21 
ROOT
HETATM    1  C   UNL     1      29.966  50.863  41.235  1.00  0.00    -0.022 A 
HETATM    2  C   UNL     1      29.570  49.640  40.675  1.00  0.00     0.031 A 
HETATM    3  C   UNL     1      28.236  49.397  40.289  1.00  0.00     0.059 A 
HETATM    4  C   UNL     1      27.271  50.403  40.450  1.00  0.00     0.050 A 
HETATM    5  N   UNL     1      25.938  50.371  39.991  1.00  0.00    -0.324 N 
HETATM    6  C   UNL     1      25.441  49.723  38.898  1.00  0.00     0.247 C 
HETATM    7  O   UNL     1      24.338  50.041  38.446  1.00  0.00    -0.271 OA
HETATM    8  C   UNL     1      26.349  48.802  38.106  1.00  0.00     0.210 C 
HETATM    9  N   UNL     1      26.940  47.786  38.948  1.00  0.00    -0.332 N 
HETATM   10  C   UNL     1      27.933  48.005  39.871  1.00  0.00     0.256 C 
HETATM   11  O   UNL     1      28.576  47.076  40.354  1.00  0.00    -0.267 OA
HETATM   12  C   UNL     1      25.530  48.005  37.067  1.00  0.00     0.217 C 
HETATM   13  C   UNL     1      26.173  46.621  37.071  1.00  0.00     0.055 C 
HETATM   14  C   UNL     1      26.566  46.446  38.529  1.00  0.00     0.129 C 
HETATM   15  C   UNL     1      27.643  51.587  41.100  1.00  0.00     0.031 A 
HETATM   16  C   UNL     1      28.968  51.814  41.480  1.00  0.00     0.014 A 
HETATM   17  H   UNL     1      25.311  51.092  40.340  1.00  0.00     0.169 HD
ENDROOT
BRANCH   1  18
HETATM   18  C   UNL     1      31.380  51.138  41.562  1.00  0.00     0.008 A 
HETATM   19  C   UNL     1      32.275  51.701  40.621  1.00  0.00     0.082 A 
HETATM   20  C   UNL     1      33.608  51.938  40.979  1.00  0.00     0.074 A 
HETATM   21  C   UNL     1      34.073  51.646  42.264  1.00  0.00     0.070 A 
HETATM   22  C   UNL     1      33.203  51.088  43.195  1.00  0.00     0.038 A 
HETATM   23  C   UNL     1      31.873  50.837  42.845  1.00  0.00     0.018 A 
BRANCH  19  24
HETATM   24  O   UNL     1      31.775  51.948  39.365  1.00  0.00    -0.355 OA
HETATM   25  C   UNL     1      32.363  51.233  38.284  1.00  0.00     0.210 C 
ENDBRANCH  19  24
BRANCH  21  26
HETATM   26  O   UNL     1      35.393  51.941  42.472  1.00  0.00    -0.356 OA
HETATM   27  C   UNL     1      36.307  50.851  42.437  1.00  0.00     0.210 C 
ENDBRANCH  21  26
ENDBRANCH   1  18
BRANCH  12  28
HETATM   28  N   UNL     1      25.605  48.594  35.699  1.00  0.00    -0.072 N 
HETATM   29  H   UNL     1      25.031  48.046  35.039  1.00  0.00     0.274 HD
HETATM   30  H   UNL     1      25.287  49.572  35.660  1.00  0.00     0.274 HD
HETATM   31  H   UNL     1      26.568  48.571  35.336  1.00  0.00     0.274 HD
ENDBRANCH  12  28
TORSDOF 4
ENDMDL
MODEL 10
REMARK VINA RESULT:      -7.7     17.938     22.103
REMARK  4 active torsions:
REMARK  status: ('A' for Active; 'I' for Inactive)
REMARK    1  A    between atoms: O_2  and  C_3 
REMARK    2  A    between atoms: C_5  and  O_6 
REMARK    3  A    between atoms: C_8  and  C_9 
REMARK    4  A    between atoms: C_20  and  N_21 
ROOT
HETATM    1  C   UNL     1      39.426  41.062  63.884  1.00  0.00    -0.022 A 
HETATM    2  C   UNL     1      40.193  40.802  65.028  1.00  0.00     0.031 A 
HETATM    3  C   UNL     1      40.936  39.613  65.170  1.00  0.00     0.059 A 
HETATM    4  C   UNL     1      40.930  38.662  64.138  1.00  0.00     0.050 A 
HETATM    5  N   UNL     1      41.722  37.497  64.061  1.00  0.00    -0.324 N 
HETATM    6  C   UNL     1      42.967  37.293  64.580  1.00  0.00     0.247 C 
HETATM    7  O   UNL     1      43.656  36.356  64.168  1.00  0.00    -0.271 OA
HETATM    8  C   UNL     1      43.585  38.357  65.466  1.00  0.00     0.210 C 
HETATM    9  N   UNL     1      42.728  38.682  66.583  1.00  0.00    -0.332 N 
HETATM   10  C   UNL     1      41.559  39.400  66.500  1.00  0.00     0.256 C 
HETATM   11  O   UNL     1      41.024  39.871  67.500  1.00  0.00    -0.267 OA
HETATM   12  C   UNL     1      44.878  37.824  66.122  1.00  0.00     0.217 C 
HETATM   13  C   UNL     1      44.849  38.413  67.529  1.00  0.00     0.055 C 
HETATM   14  C   UNL     1      43.365  38.402  67.858  1.00  0.00     0.129 C 
HETATM   15  C   UNL     1      40.087  38.874  63.039  1.00  0.00     0.031 A 
HETATM   16  C   UNL     1      39.353  40.057  62.913  1.00  0.00     0.014 A 
HETATM   17  H   UNL     1      41.476  36.816  63.347  1.00  0.00     0.169 HD
ENDROOT
BRANCH   1  18
HETATM   18  C   UNL     1      38.715  42.346  63.710  1.00  0.00     0.008 A 
HETATM   19  C   UNL     1      37.442  42.586  64.280  1.00  0.00     0.082 A 
HETATM   20  C   UNL     1      36.809  43.819  64.081  1.00  0.00     0.074 A 
HETATM   21  C   UNL     1      37.421  44.835  63.342  1.00  0.00     0.070 A 
HETATM   22  C   UNL     1      38.670  44.608  62.773  1.00  0.00     0.038 A 
HETATM   23  C   UNL     1      39.308  43.377  62.956  1.00  0.00     0.018 A 
BRANCH  19  24
HETATM   24  O   UNL     1      36.873  41.548  64.978  1.00  0.00    -0.355 OA
HETATM   25  C   UNL     1      35.508  41.695  65.353  1.00  0.00     0.210 C 
ENDBRANCH  19  24
BRANCH  21  26
HETATM   26  O   UNL     1      36.689  45.986  63.242  1.00  0.00    -0.356 OA
HETATM   27  C   UNL     1      36.742  46.878  64.349  1.00  0.00     0.210 C 
ENDBRANCH  21  26
ENDBRANCH   1  18
BRANCH  12  28
HETATM   28  N   UNL     1      46.111  38.272  65.411  1.00  0.00    -0.072 N 
HETATM   29  H   UNL     1      46.567  39.038  65.930  1.00  0.00     0.274 HD
HETATM   30  H   UNL     1      46.801  37.519  65.283  1.00  0.00     0.274 HD
HETATM   31  H   UNL     1      45.888  38.645  64.478  1.00  0.00     0.274 HD
ENDBRANCH  12  28
TORSDOF 4
ENDMDL
