MODEL 1
REMARK VINA RESULT:      -9.0      0.000      0.000
REMARK  4 active torsions:
REMARK  status: ('A' for Active; 'I' for Inactive)
REMARK    1  A    between atoms: C_9  and  C_10 
REMARK       I    between atoms: C_10  and  N_11 
REMARK    2  A    between atoms: N_11  and  C_12 
REMARK    3  A    between atoms: C_12  and  C_13 
REMARK    4  A    between atoms: C_14  and  O_15 
ROOT
HETATM    1  C   UNL     1      25.231  45.793  52.624  1.00  0.00     0.273 C 
HETATM    2  N   UNL     1      25.192  46.652  51.550  1.00  0.00    -0.347 N 
HETATM    3  O   UNL     1      24.646  44.717  52.677  1.00  0.00    -0.266 OA
HETATM    4  H   UNL     1      25.815  47.450  51.634  1.00  0.00     0.163 HD
ENDROOT
BRANCH   1   5
HETATM    5  C   UNL     1      26.082  46.290  53.720  1.00  0.00     0.157 A 
HETATM    6  C   UNL     1      27.273  45.689  54.228  1.00  0.00     0.029 A 
HETATM    7  C   UNL     1      28.025  44.530  53.948  1.00  0.00     0.023 A 
HETATM    8  C   UNL     1      27.706  46.541  55.236  1.00  0.00     0.063 A 
HETATM    9  C   UNL     1      29.189  44.264  54.688  1.00  0.00    -0.061 A 
HETATM   10  C   UNL     1      30.002  43.034  54.408  1.00  0.00     0.048 C 
HETATM   11  C   UNL     1      29.591  45.150  55.695  1.00  0.00     0.009 A 
HETATM   12  C   UNL     1      28.858  46.307  55.990  1.00  0.00     0.032 A 
HETATM   13  N   UNL     1      26.789  47.554  55.270  1.00  0.00    -0.277 N 
HETATM   14  H   UNL     1      26.787  48.358  55.888  1.00  0.00     0.189 HD
HETATM   15  N   UNL     1      25.796  47.441  54.370  1.00  0.00    -0.168 NA
ENDBRANCH   1   5
BRANCH   2  16
HETATM   16  C   UNL     1      24.555  46.417  50.260  1.00  0.00     0.116 C 
HETATM   17  C   UNL     1      25.240  45.350  49.403  1.00  0.00     0.037 C 
BRANCH  16  18
HETATM   18  C   UNL     1      24.298  47.693  49.467  1.00  0.00    -0.003 A 
HETATM   19  C   UNL     1      25.349  48.605  49.219  1.00  0.00     0.076 A 
HETATM   20  C   UNL     1      25.100  49.782  48.501  1.00  0.00     0.037 A 
HETATM   21  C   UNL     1      23.815  50.073  48.040  1.00  0.00     0.003 A 
HETATM   22  C   UNL     1      22.769  49.196  48.299  1.00  0.00     0.001 A 
HETATM   23  C   UNL     1      23.007  48.021  49.012  1.00  0.00     0.012 A 
BRANCH  19  24
HETATM   24  O   UNL     1      26.578  48.255  49.716  1.00  0.00    -0.355 OA
HETATM   25  C   UNL     1      27.719  48.909  49.173  1.00  0.00     0.210 C 
ENDBRANCH  19  24
ENDBRANCH  16  18
ENDBRANCH   2  16
TORSDOF 4
ENDMDL
MODEL 2
REMARK VINA RESULT:      -8.9      1.035      1.963
REMARK  4 active torsions:
REMARK  status: ('A' for Active; 'I' for Inactive)
REMARK    1  A    between atoms: C_9  and  C_10 
REMARK       I    between atoms: C_10  and  N_11 
REMARK    2  A    between atoms: N_11  and  C_12 
REMARK    3  A    between atoms: C_12  and  C_13 
REMARK    4  A    between atoms: C_14  and  O_15 
ROOT
HETATM    1  C   UNL     1      25.700  46.089  52.873  1.00  0.00     0.273 C 
HETATM    2  N   UNL     1      26.024  46.849  51.773  1.00  0.00    -0.347 N 
HETATM    3  O   UNL     1      24.867  45.189  52.876  1.00  0.00    -0.266 OA
HETATM    4  H   UNL     1      26.806  47.481  51.921  1.00  0.00     0.163 HD
ENDROOT
BRANCH   1   5
HETATM    5  C   UNL     1      26.486  46.450  54.066  1.00  0.00     0.157 A 
HETATM    6  C   UNL     1      27.650  45.791  54.565  1.00  0.00     0.029 A 
HETATM    7  C   UNL     1      28.423  44.673  54.191  1.00  0.00     0.023 A 
HETATM    8  C   UNL     1      28.021  46.516  55.690  1.00  0.00     0.063 A 
HETATM    9  C   UNL     1      29.545  44.320  54.958  1.00  0.00    -0.061 A 
HETATM   10  C   UNL     1      30.380  43.131  54.579  1.00  0.00     0.048 C 
HETATM   11  C   UNL     1      29.885  45.078  56.085  1.00  0.00     0.009 A 
HETATM   12  C   UNL     1      29.131  46.192  56.475  1.00  0.00     0.032 A 
HETATM   13  N   UNL     1      27.097  47.518  55.794  1.00  0.00    -0.277 N 
HETATM   14  H   UNL     1      27.056  48.242  56.503  1.00  0.00     0.189 HD
HETATM   15  N   UNL     1      26.157  47.514  54.833  1.00  0.00    -0.168 NA
ENDBRANCH   1   5
BRANCH   2  16
HETATM   16  C   UNL     1      25.535  46.676  50.410  1.00  0.00     0.116 C 
HETATM   17  C   UNL     1      26.172  45.509  49.655  1.00  0.00     0.037 C 
BRANCH  16  18
HETATM   18  C   UNL     1      25.562  47.959  49.587  1.00  0.00    -0.003 A 
HETATM   19  C   UNL     1      24.359  48.528  49.110  1.00  0.00     0.076 A 
HETATM   20  C   UNL     1      24.395  49.699  48.343  1.00  0.00     0.037 A 
HETATM   21  C   UNL     1      25.613  50.305  48.030  1.00  0.00     0.003 A 
HETATM   22  C   UNL     1      26.803  49.742  48.473  1.00  0.00     0.001 A 
HETATM   23  C   UNL     1      26.778  48.576  49.238  1.00  0.00     0.012 A 
BRANCH  19  24
HETATM   24  O   UNL     1      23.206  47.865  49.448  1.00  0.00    -0.355 OA
HETATM   25  C   UNL     1      22.039  48.145  48.684  1.00  0.00     0.210 C 
ENDBRANCH  19  24
ENDBRANCH  16  18
ENDBRANCH   2  16
TORSDOF 4
ENDMDL
MODEL 3
REMARK VINA RESULT:      -8.4      1.868      3.066
REMARK  4 active torsions:
REMARK  status: ('A' for Active; 'I' for Inactive)
REMARK    1  A    between atoms: C_9  and  C_10 
REMARK       I    between atoms: C_10  and  N_11 
REMARK    2  A    between atoms: N_11  and  C_12 
REMARK    3  A    between atoms: C_12  and  C_13 
REMARK    4  A    between atoms: C_14  and  O_15 
ROOT
HETATM    1  C   UNL     1      26.374  45.285  52.602  1.00  0.00     0.273 C 
HETATM    2  N   UNL     1      26.295  45.726  51.302  1.00  0.00    -0.347 N 
HETATM    3  O   UNL     1      25.560  45.552  53.479  1.00  0.00    -0.266 OA
HETATM    4  H   UNL     1      26.997  45.327  50.685  1.00  0.00     0.163 HD
ENDROOT
BRANCH   1   5
HETATM    5  C   UNL     1      27.542  44.417  52.840  1.00  0.00     0.157 A 
HETATM    6  C   UNL     1      28.462  44.487  53.929  1.00  0.00     0.029 A 
HETATM    7  C   UNL     1      28.627  45.301  55.068  1.00  0.00     0.023 A 
HETATM    8  C   UNL     1      29.364  43.454  53.706  1.00  0.00     0.063 A 
HETATM    9  C   UNL     1      29.693  45.051  55.948  1.00  0.00    -0.061 A 
HETATM   10  C   UNL     1      29.889  45.908  57.165  1.00  0.00     0.048 C 
HETATM   11  C   UNL     1      30.580  43.999  55.688  1.00  0.00     0.009 A 
HETATM   12  C   UNL     1      30.434  43.179  54.561  1.00  0.00     0.032 A 
HETATM   13  N   UNL     1      28.950  42.857  52.549  1.00  0.00    -0.277 N 
HETATM   14  H   UNL     1      29.376  42.064  52.082  1.00  0.00     0.189 HD
HETATM   15  N   UNL     1      27.854  43.407  51.997  1.00  0.00    -0.168 NA
ENDBRANCH   1   5
BRANCH   2  16
HETATM   16  C   UNL     1      25.211  46.490  50.697  1.00  0.00     0.116 C 
HETATM   17  C   UNL     1      24.210  45.647  49.904  1.00  0.00     0.037 C 
BRANCH  16  18
HETATM   18  C   UNL     1      25.689  47.695  49.895  1.00  0.00    -0.003 A 
HETATM   19  C   UNL     1      24.764  48.662  49.439  1.00  0.00     0.076 A 
HETATM   20  C   UNL     1      25.211  49.759  48.692  1.00  0.00     0.037 A 
HETATM   21  C   UNL     1      26.563  49.900  48.377  1.00  0.00     0.003 A 
HETATM   22  C   UNL     1      27.478  48.943  48.800  1.00  0.00     0.001 A 
HETATM   23  C   UNL     1      27.043  47.848  49.545  1.00  0.00     0.012 A 
BRANCH  19  24
HETATM   24  O   UNL     1      23.452  48.445  49.776  1.00  0.00    -0.355 OA
HETATM   25  C   UNL     1      22.454  48.987  48.919  1.00  0.00     0.210 C 
ENDBRANCH  19  24
ENDBRANCH  16  18
ENDBRANCH   2  16
TORSDOF 4
ENDMDL
MODEL 4
REMARK VINA RESULT:      -8.4      2.298      7.147
REMARK  4 active torsions:
REMARK  status: ('A' for Active; 'I' for Inactive)
REMARK    1  A    between atoms: C_9  and  C_10 
REMARK       I    between atoms: C_10  and  N_11 
REMARK    2  A    between atoms: N_11  and  C_12 
REMARK    3  A    between atoms: C_12  and  C_13 
REMARK    4  A    between atoms: C_14  and  O_15 
ROOT
HETATM    1  C   UNL     1      26.874  43.513  51.297  1.00  0.00     0.273 C 
HETATM    2  N   UNL     1      27.436  43.748  52.530  1.00  0.00    -0.347 N 
HETATM    3  O   UNL     1      27.245  42.643  50.517  1.00  0.00    -0.266 OA
HETATM    4  H   UNL     1      26.941  44.438  53.087  1.00  0.00     0.163 HD
ENDROOT
BRANCH   1   5
HETATM    5  C   UNL     1      25.741  44.410  51.007  1.00  0.00     0.157 A 
HETATM    6  C   UNL     1      25.801  45.730  50.466  1.00  0.00     0.029 A 
HETATM    7  C   UNL     1      26.819  46.612  50.051  1.00  0.00     0.023 A 
HETATM    8  C   UNL     1      24.478  46.141  50.370  1.00  0.00     0.063 A 
HETATM    9  C   UNL     1      26.476  47.879  49.551  1.00  0.00    -0.061 A 
HETATM   10  C   UNL     1      27.544  48.835  49.106  1.00  0.00     0.048 C 
HETATM   11  C   UNL     1      25.128  48.254  49.470  1.00  0.00     0.009 A 
HETATM   12  C   UNL     1      24.102  47.394  49.877  1.00  0.00     0.032 A 
HETATM   13  N   UNL     1      23.739  45.092  50.839  1.00  0.00    -0.277 N 
HETATM   14  H   UNL     1      22.729  45.039  50.917  1.00  0.00     0.189 HD
HETATM   15  N   UNL     1      24.463  44.029  51.231  1.00  0.00    -0.168 NA
ENDBRANCH   1   5
BRANCH   2  16
HETATM   16  C   UNL     1      28.482  42.969  53.182  1.00  0.00     0.116 C 
HETATM   17  C   UNL     1      28.048  41.568  53.616  1.00  0.00     0.037 C 
BRANCH  16  18
HETATM   18  C   UNL     1      29.182  43.716  54.311  1.00  0.00    -0.003 A 
HETATM   19  C   UNL     1      28.657  44.937  54.794  1.00  0.00     0.076 A 
HETATM   20  C   UNL     1      29.314  45.622  55.823  1.00  0.00     0.037 A 
HETATM   21  C   UNL     1      30.496  45.119  56.369  1.00  0.00     0.003 A 
HETATM   22  C   UNL     1      31.034  43.933  55.886  1.00  0.00     0.001 A 
HETATM   23  C   UNL     1      30.386  43.242  54.862  1.00  0.00     0.012 A 
BRANCH  19  24
HETATM   24  O   UNL     1      27.501  45.372  54.197  1.00  0.00    -0.355 OA
HETATM   25  C   UNL     1      27.041  46.677  54.528  1.00  0.00     0.210 C 
ENDBRANCH  19  24
ENDBRANCH  16  18
ENDBRANCH   2  16
TORSDOF 4
ENDMDL
MODEL 5
REMARK VINA RESULT:      -8.3      1.941      7.479
REMARK  4 active torsions:
REMARK  status: ('A' for Active; 'I' for Inactive)
REMARK    1  A    between atoms: C_9  and  C_10 
REMARK       I    between atoms: C_10  and  N_11 
REMARK    2  A    between atoms: N_11  and  C_12 
REMARK    3  A    between atoms: C_12  and  C_13 
REMARK    4  A    between atoms: C_14  and  O_15 
ROOT
HETATM    1  C   UNL     1      25.701  46.092  50.597  1.00  0.00     0.273 C 
HETATM    2  N   UNL     1      26.504  45.998  51.709  1.00  0.00    -0.347 N 
HETATM    3  O   UNL     1      24.797  45.310  50.323  1.00  0.00    -0.266 OA
HETATM    4  H   UNL     1      27.134  46.785  51.834  1.00  0.00     0.163 HD
ENDROOT
BRANCH   1   5
HETATM    5  C   UNL     1      26.021  47.262  49.760  1.00  0.00     0.157 A 
HETATM    6  C   UNL     1      25.115  48.261  49.290  1.00  0.00     0.029 A 
HETATM    7  C   UNL     1      23.733  48.510  49.399  1.00  0.00     0.023 A 
HETATM    8  C   UNL     1      25.900  49.146  48.563  1.00  0.00     0.063 A 
HETATM    9  C   UNL     1      23.182  49.642  48.777  1.00  0.00    -0.061 A 
HETATM   10  C   UNL     1      21.711  49.925  48.878  1.00  0.00     0.048 C 
HETATM   11  C   UNL     1      24.009  50.511  48.054  1.00  0.00     0.009 A 
HETATM   12  C   UNL     1      25.385  50.282  47.932  1.00  0.00     0.032 A 
HETATM   13  N   UNL     1      27.170  48.647  48.637  1.00  0.00    -0.277 N 
HETATM   14  H   UNL     1      28.008  49.037  48.219  1.00  0.00     0.189 HD
HETATM   15  N   UNL     1      27.285  47.513  49.351  1.00  0.00    -0.168 NA
ENDBRANCH   1   5
BRANCH   2  16
HETATM   16  C   UNL     1      26.380  45.045  52.805  1.00  0.00     0.116 C 
HETATM   17  C   UNL     1      25.629  45.579  54.025  1.00  0.00     0.037 C 
BRANCH  16  18
HETATM   18  C   UNL     1      27.703  44.396  53.199  1.00  0.00    -0.003 A 
HETATM   19  C   UNL     1      28.378  43.543  52.296  1.00  0.00     0.076 A 
HETATM   20  C   UNL     1      29.585  42.941  52.672  1.00  0.00     0.037 A 
HETATM   21  C   UNL     1      30.123  43.162  53.941  1.00  0.00     0.003 A 
HETATM   22  C   UNL     1      29.456  43.979  54.846  1.00  0.00     0.001 A 
HETATM   23  C   UNL     1      28.253  44.584  54.480  1.00  0.00     0.012 A 
BRANCH  19  24
HETATM   24  O   UNL     1      27.778  43.365  51.075  1.00  0.00    -0.355 OA
HETATM   25  C   UNL     1      27.447  42.035  50.693  1.00  0.00     0.210 C 
ENDBRANCH  19  24
ENDBRANCH  16  18
ENDBRANCH   2  16
TORSDOF 4
ENDMDL
MODEL 6
REMARK VINA RESULT:      -7.9      2.952      8.533
REMARK  4 active torsions:
REMARK  status: ('A' for Active; 'I' for Inactive)
REMARK    1  A    between atoms: C_9  and  C_10 
REMARK       I    between atoms: C_10  and  N_11 
REMARK    2  A    between atoms: N_11  and  C_12 
REMARK    3  A    between atoms: C_12  and  C_13 
REMARK    4  A    between atoms: C_14  and  O_15 
ROOT
HETATM    1  C   UNL     1      23.694  49.063  49.019  1.00  0.00     0.273 C 
HETATM    2  N   UNL     1      24.501  47.992  49.324  1.00  0.00    -0.347 N 
HETATM    3  O   UNL     1      23.940  50.227  49.314  1.00  0.00    -0.266 OA
HETATM    4  H   UNL     1      24.196  47.113  48.916  1.00  0.00     0.163 HD
ENDROOT
BRANCH   1   5
HETATM    5  C   UNL     1      22.490  48.673  48.263  1.00  0.00     0.157 A 
HETATM    6  C   UNL     1      21.311  49.450  48.055  1.00  0.00     0.029 A 
HETATM    7  C   UNL     1      20.857  50.728  48.437  1.00  0.00     0.023 A 
HETATM    8  C   UNL     1      20.486  48.651  47.273  1.00  0.00     0.063 A 
HETATM    9  C   UNL     1      19.589  51.165  48.021  1.00  0.00    -0.061 A 
HETATM   10  C   UNL     1      19.084  52.521  48.420  1.00  0.00     0.048 C 
HETATM   11  C   UNL     1      18.787  50.329  47.233  1.00  0.00     0.009 A 
HETATM   12  C   UNL     1      19.219  49.055  46.843  1.00  0.00     0.032 A 
HETATM   13  N   UNL     1      21.188  47.496  47.071  1.00  0.00    -0.277 N 
HETATM   14  H   UNL     1      20.890  46.683  46.543  1.00  0.00     0.189 HD
HETATM   15  N   UNL     1      22.401  47.471  47.649  1.00  0.00    -0.168 NA
ENDBRANCH   1   5
BRANCH   2  16
HETATM   16  C   UNL     1      25.818  48.033  49.947  1.00  0.00     0.116 C 
HETATM   17  C   UNL     1      26.914  48.636  49.067  1.00  0.00     0.037 C 
BRANCH  16  18
HETATM   18  C   UNL     1      26.249  46.700  50.547  1.00  0.00    -0.003 A 
HETATM   19  C   UNL     1      26.139  46.472  51.938  1.00  0.00     0.076 A 
HETATM   20  C   UNL     1      26.550  45.249  52.482  1.00  0.00     0.037 A 
HETATM   21  C   UNL     1      27.086  44.253  51.663  1.00  0.00     0.003 A 
HETATM   22  C   UNL     1      27.221  44.474  50.298  1.00  0.00     0.001 A 
HETATM   23  C   UNL     1      26.814  45.689  49.747  1.00  0.00     0.012 A 
BRANCH  19  24
HETATM   24  O   UNL     1      25.617  47.505  52.676  1.00  0.00    -0.355 OA
HETATM   25  C   UNL     1      25.889  47.517  54.072  1.00  0.00     0.210 C 
ENDBRANCH  19  24
ENDBRANCH  16  18
ENDBRANCH   2  16
TORSDOF 4
ENDMDL
MODEL 7
REMARK VINA RESULT:      -7.7      4.698      6.173
REMARK  4 active torsions:
REMARK  status: ('A' for Active; 'I' for Inactive)
REMARK    1  A    between atoms: C_9  and  C_10 
REMARK       I    between atoms: C_10  and  N_11 
REMARK    2  A    between atoms: N_11  and  C_12 
REMARK    3  A    between atoms: C_12  and  C_13 
REMARK    4  A    between atoms: C_14  and  O_15 
ROOT
HETATM    1  C   UNL     1      28.192  41.557  53.052  1.00  0.00     0.273 C 
HETATM    2  N   UNL     1      27.984  41.476  51.695  1.00  0.00    -0.347 N 
HETATM    3  O   UNL     1      28.355  40.591  53.790  1.00  0.00    -0.266 OA
HETATM    4  H   UNL     1      27.971  42.376  51.223  1.00  0.00     0.163 HD
ENDROOT
BRANCH   1   5
HETATM    5  C   UNL     1      28.228  42.947  53.542  1.00  0.00     0.157 A 
HETATM    6  C   UNL     1      29.117  43.497  54.514  1.00  0.00     0.029 A 
HETATM    7  C   UNL     1      30.176  43.016  55.309  1.00  0.00     0.023 A 
HETATM    8  C   UNL     1      28.758  44.835  54.614  1.00  0.00     0.063 A 
HETATM    9  C   UNL     1      30.842  43.893  56.180  1.00  0.00    -0.061 A 
HETATM   10  C   UNL     1      31.970  43.400  57.039  1.00  0.00     0.048 C 
HETATM   11  C   UNL     1      30.450  45.236  56.251  1.00  0.00     0.009 A 
HETATM   12  C   UNL     1      29.400  45.735  55.470  1.00  0.00     0.032 A 
HETATM   13  N   UNL     1      27.722  44.997  53.738  1.00  0.00    -0.277 N 
HETATM   14  H   UNL     1      27.208  45.851  53.549  1.00  0.00     0.189 HD
HETATM   15  N   UNL     1      27.374  43.883  53.071  1.00  0.00    -0.168 NA
ENDBRANCH   1   5
BRANCH   2  16
HETATM   16  C   UNL     1      28.018  40.275  50.870  1.00  0.00     0.116 C 
HETATM   17  C   UNL     1      29.308  39.463  50.990  1.00  0.00     0.037 C 
BRANCH  16  18
HETATM   18  C   UNL     1      27.646  40.526  49.413  1.00  0.00    -0.003 A 
HETATM   19  C   UNL     1      26.340  40.944  49.071  1.00  0.00     0.076 A 
HETATM   20  C   UNL     1      26.004  41.160  47.728  1.00  0.00     0.037 A 
HETATM   21  C   UNL     1      26.945  40.950  46.719  1.00  0.00     0.003 A 
HETATM   22  C   UNL     1      28.225  40.517  47.042  1.00  0.00     0.001 A 
HETATM   23  C   UNL     1      28.569  40.300  48.376  1.00  0.00     0.012 A 
BRANCH  19  24
HETATM   24  O   UNL     1      25.469  41.113  50.117  1.00  0.00    -0.355 OA
HETATM   25  C   UNL     1      24.631  42.263  50.096  1.00  0.00     0.210 C 
ENDBRANCH  19  24
ENDBRANCH  16  18
ENDBRANCH   2  16
TORSDOF 4
ENDMDL
MODEL 8
REMARK VINA RESULT:      -7.7      1.825      2.910
REMARK  4 active torsions:
REMARK  status: ('A' for Active; 'I' for Inactive)
REMARK    1  A    between atoms: C_9  and  C_10 
REMARK       I    between atoms: C_10  and  N_11 
REMARK    2  A    between atoms: N_11  and  C_12 
REMARK    3  A    between atoms: C_12  and  C_13 
REMARK    4  A    between atoms: C_14  and  O_15 
ROOT
HETATM    1  C   UNL     1      26.104  46.259  52.788  1.00  0.00     0.273 C 
HETATM    2  N   UNL     1      26.212  46.236  51.417  1.00  0.00    -0.347 N 
HETATM    3  O   UNL     1      25.183  46.784  53.405  1.00  0.00    -0.266 OA
HETATM    4  H   UNL     1      26.983  45.672  51.071  1.00  0.00     0.163 HD
ENDROOT
BRANCH   1   5
HETATM    5  C   UNL     1      27.211  45.555  53.458  1.00  0.00     0.157 A 
HETATM    6  C   UNL     1      27.781  44.298  53.094  1.00  0.00     0.029 A 
HETATM    7  C   UNL     1      27.555  43.332  52.093  1.00  0.00     0.023 A 
HETATM    8  C   UNL     1      28.794  44.079  54.019  1.00  0.00     0.063 A 
HETATM    9  C   UNL     1      28.353  42.177  52.051  1.00  0.00    -0.061 A 
HETATM   10  C   UNL     1      28.126  41.134  50.996  1.00  0.00     0.048 C 
HETATM   11  C   UNL     1      29.365  41.995  53.003  1.00  0.00     0.009 A 
HETATM   12  C   UNL     1      29.607  42.942  54.006  1.00  0.00     0.032 A 
HETATM   13  N   UNL     1      28.769  45.167  54.845  1.00  0.00    -0.277 N 
HETATM   14  H   UNL     1      29.373  45.347  55.640  1.00  0.00     0.189 HD
HETATM   15  N   UNL     1      27.831  46.081  54.539  1.00  0.00    -0.168 NA
ENDBRANCH   1   5
BRANCH   2  16
HETATM   16  C   UNL     1      25.235  46.722  50.450  1.00  0.00     0.116 C 
HETATM   17  C   UNL     1      24.703  45.650  49.497  1.00  0.00     0.037 C 
BRANCH  16  18
HETATM   18  C   UNL     1      25.692  47.966  49.697  1.00  0.00    -0.003 A 
HETATM   19  C   UNL     1      24.748  48.795  49.047  1.00  0.00     0.076 A 
HETATM   20  C   UNL     1      25.178  49.929  48.347  1.00  0.00     0.037 A 
HETATM   21  C   UNL     1      26.537  50.242  48.269  1.00  0.00     0.003 A 
HETATM   22  C   UNL     1      27.475  49.421  48.883  1.00  0.00     0.001 A 
HETATM   23  C   UNL     1      27.056  48.291  49.584  1.00  0.00     0.012 A 
BRANCH  19  24
HETATM   24  O   UNL     1      23.435  48.412  49.158  1.00  0.00    -0.355 OA
HETATM   25  C   UNL     1      22.452  49.440  49.192  1.00  0.00     0.210 C 
ENDBRANCH  19  24
ENDBRANCH  16  18
ENDBRANCH   2  16
TORSDOF 4
ENDMDL
MODEL 9
REMARK VINA RESULT:      -7.5      4.616      7.848
REMARK  4 active torsions:
REMARK  status: ('A' for Active; 'I' for Inactive)
REMARK    1  A    between atoms: C_9  and  C_10 
REMARK       I    between atoms: C_10  and  N_11 
REMARK    2  A    between atoms: N_11  and  C_12 
REMARK    3  A    between atoms: C_12  and  C_13 
REMARK    4  A    between atoms: C_14  and  O_15 
ROOT
HETATM    1  C   UNL     1      26.706  42.568  50.211  1.00  0.00     0.273 C 
HETATM    2  N   UNL     1      26.403  42.639  51.551  1.00  0.00    -0.347 N 
HETATM    3  O   UNL     1      27.211  43.477  49.562  1.00  0.00    -0.266 OA
HETATM    4  H   UNL     1      26.084  41.761  51.951  1.00  0.00     0.163 HD
ENDROOT
BRANCH   1   5
HETATM    5  C   UNL     1      26.382  41.256  49.622  1.00  0.00     0.157 A 
HETATM    6  C   UNL     1      27.156  40.059  49.700  1.00  0.00     0.029 A 
HETATM    7  C   UNL     1      28.384  39.681  50.279  1.00  0.00     0.023 A 
HETATM    8  C   UNL     1      26.422  39.108  49.004  1.00  0.00     0.063 A 
HETATM    9  C   UNL     1      28.835  38.358  50.142  1.00  0.00    -0.061 A 
HETATM   10  C   UNL     1      30.142  37.934  50.748  1.00  0.00     0.048 C 
HETATM   11  C   UNL     1      28.064  37.429  49.433  1.00  0.00     0.009 A 
HETATM   12  C   UNL     1      26.841  37.784  48.849  1.00  0.00     0.032 A 
HETATM   13  N   UNL     1      25.304  39.763  48.568  1.00  0.00    -0.277 N 
HETATM   14  H   UNL     1      24.542  39.377  48.023  1.00  0.00     0.189 HD
HETATM   15  N   UNL     1      25.242  41.059  48.922  1.00  0.00    -0.168 NA
ENDBRANCH   1   5
BRANCH   2  16
HETATM   16  C   UNL     1      26.707  43.733  52.464  1.00  0.00     0.116 C 
HETATM   17  C   UNL     1      26.553  45.127  51.853  1.00  0.00     0.037 C 
BRANCH  16  18
HETATM   18  C   UNL     1      28.046  43.578  53.176  1.00  0.00    -0.003 A 
HETATM   19  C   UNL     1      28.285  44.242  54.401  1.00  0.00     0.076 A 
HETATM   20  C   UNL     1      29.523  44.103  55.041  1.00  0.00     0.037 A 
HETATM   21  C   UNL     1      30.534  43.327  54.472  1.00  0.00     0.003 A 
HETATM   22  C   UNL     1      30.318  42.689  53.256  1.00  0.00     0.001 A 
HETATM   23  C   UNL     1      29.088  42.820  52.612  1.00  0.00     0.012 A 
BRANCH  19  24
HETATM   24  O   UNL     1      27.249  44.997  54.888  1.00  0.00    -0.355 OA
HETATM   25  C   UNL     1      27.538  46.333  55.284  1.00  0.00     0.210 C 
ENDBRANCH  19  24
ENDBRANCH  16  18
ENDBRANCH   2  16
TORSDOF 4
ENDMDL
MODEL 10
REMARK VINA RESULT:      -7.4      4.056      6.693
REMARK  4 active torsions:
REMARK  status: ('A' for Active; 'I' for Inactive)
REMARK    1  A    between atoms: C_9  and  C_10 
REMARK       I    between atoms: C_10  and  N_11 
REMARK    2  A    between atoms: N_11  and  C_12 
REMARK    3  A    between atoms: C_12  and  C_13 
REMARK    4  A    between atoms: C_14  and  O_15 
ROOT
HETATM    1  C   UNL     1      22.505  49.705  49.044  1.00  0.00     0.273 C 
HETATM    2  N   UNL     1      21.708  49.213  48.037  1.00  0.00    -0.347 N 
HETATM    3  O   UNL     1      22.091  50.112  50.124  1.00  0.00    -0.266 OA
HETATM    4  H   UNL     1      22.224  48.825  47.252  1.00  0.00     0.163 HD
ENDROOT
BRANCH   1   5
HETATM    5  C   UNL     1      23.939  49.670  48.706  1.00  0.00     0.157 A 
HETATM    6  C   UNL     1      24.932  48.796  49.242  1.00  0.00     0.029 A 
HETATM    7  C   UNL     1      24.963  47.755  50.193  1.00  0.00     0.023 A 
HETATM    8  C   UNL     1      26.110  49.148  48.597  1.00  0.00     0.063 A 
HETATM    9  C   UNL     1      26.175  47.100  50.463  1.00  0.00    -0.061 A 
HETATM   10  C   UNL     1      26.231  45.992  51.475  1.00  0.00     0.048 C 
HETATM   11  C   UNL     1      27.341  47.486  49.789  1.00  0.00     0.009 A 
HETATM   12  C   UNL     1      27.333  48.517  48.842  1.00  0.00     0.032 A 
HETATM   13  N   UNL     1      25.768  50.167  47.752  1.00  0.00    -0.277 N 
HETATM   14  H   UNL     1      26.381  50.672  47.121  1.00  0.00     0.189 HD
HETATM   15  N   UNL     1      24.468  50.509  47.786  1.00  0.00    -0.168 NA
ENDBRANCH   1   5
BRANCH   2  16
HETATM   16  C   UNL     1      20.269  48.987  48.085  1.00  0.00     0.116 C 
HETATM   17  C   UNL     1      19.687  48.355  46.820  1.00  0.00     0.037 C 
BRANCH  16  18
HETATM   18  C   UNL     1      19.475  50.214  48.517  1.00  0.00    -0.003 A 
HETATM   19  C   UNL     1      18.454  50.100  49.488  1.00  0.00     0.076 A 
HETATM   20  C   UNL     1      17.721  51.231  49.869  1.00  0.00     0.037 A 
HETATM   21  C   UNL     1      17.977  52.472  49.284  1.00  0.00     0.003 A 
HETATM   22  C   UNL     1      18.961  52.592  48.311  1.00  0.00     0.001 A 
HETATM   23  C   UNL     1      19.697  51.471  47.926  1.00  0.00     0.012 A 
BRANCH  19  24
HETATM   24  O   UNL     1      18.254  48.844  50.004  1.00  0.00    -0.355 OA
HETATM   25  C   UNL     1      18.607  48.629  51.365  1.00  0.00     0.210 C 
ENDBRANCH  19  24
ENDBRANCH  16  18
ENDBRANCH   2  16
TORSDOF 4
ENDMDL
