MODEL 1
REMARK VINA RESULT:      -8.0      0.000      0.000
REMARK  3 active torsions:
REMARK  status: ('A' for Active; 'I' for Inactive)
REMARK    1  A    between atoms: C_2  and  C_3 
REMARK    2  A    between atoms: C_9  and  C_10 
REMARK    3  A    between atoms: C_23  and  N_24 
ROOT
HETATM    1  C   UNL     1      30.239  48.267  40.758  1.00  0.00     0.066 A 
HETATM    2  N   UNL     1      29.305  47.374  41.128  1.00  0.00    -0.177 NA
HETATM    3  N   UNL     1      28.242  48.125  41.481  1.00  0.00    -0.256 N 
HETATM    4  H   UNL     1      27.397  47.661  41.792  1.00  0.00     0.191 HD
HETATM    5  C   UNL     1      28.472  49.455  41.343  1.00  0.00     0.175 A 
HETATM    6  C   UNL     1      29.757  49.594  40.884  1.00  0.00     0.035 A 
HETATM    7  C   UNL     1      30.301  50.955  40.601  1.00  0.00     0.106 A 
HETATM    8  C   UNL     1      29.235  52.024  40.866  1.00  0.00     0.081 A 
HETATM    9  C   UNL     1      29.588  53.368  40.554  1.00  0.00     0.100 C 
HETATM   10  N   UNL     1      29.866  54.467  40.301  1.00  0.00    -0.191 NA
HETATM   11  C   UNL     1      27.988  51.728  41.330  1.00  0.00     0.140 A 
HETATM   12  O   UNL     1      27.587  50.407  41.604  1.00  0.00    -0.279 OA
ENDROOT
BRANCH   7  13
HETATM   13  C   UNL     1      31.547  51.121  41.473  1.00  0.00    -0.033 A 
HETATM   14  C   UNL     1      32.849  51.322  40.908  1.00  0.00    -0.019 A 
HETATM   15  C   UNL     1      33.957  51.456  41.789  1.00  0.00    -0.025 A 
HETATM   16  C   UNL     1      33.127  51.402  39.521  1.00  0.00     0.013 A 
HETATM   17  C   UNL     1      35.253  51.641  41.281  1.00  0.00     0.012 A 
HETATM   18  C   UNL     1      33.769  51.411  43.177  1.00  0.00     0.012 A 
HETATM   19  C   UNL     1      35.487  51.708  39.911  1.00  0.00     0.001 A 
HETATM   20  C   UNL     1      34.423  51.592  39.031  1.00  0.00     0.001 A 
HETATM   21  C   UNL     1      32.502  51.245  43.721  1.00  0.00     0.001 A 
HETATM   22  C   UNL     1      31.405  51.110  42.882  1.00  0.00     0.009 A 
ENDBRANCH   7  13
BRANCH  11  23
HETATM   23  N   UNL     1      26.991  52.645  41.577  1.00  0.00    -0.282 NA
HETATM   24  H   UNL     1      27.294  53.612  41.657  1.00  0.00     0.126 HD
HETATM   25  H   UNL     1      26.382  52.353  42.337  1.00  0.00     0.126 HD
ENDBRANCH  11  23
BRANCH   1  26
HETATM   26  C   UNL     1      31.576  47.795  40.291  1.00  0.00     0.057 C 
HETATM   27  C   UNL     1      32.587  47.703  41.423  1.00  0.00     0.011 C 
ENDBRANCH   1  26
TORSDOF 3
ENDMDL
MODEL 2
REMARK VINA RESULT:      -7.8     11.150     12.754
REMARK  3 active torsions:
REMARK  status: ('A' for Active; 'I' for Inactive)
REMARK    1  A    between atoms: C_2  and  C_3 
REMARK    2  A    between atoms: C_9  and  C_10 
REMARK    3  A    between atoms: C_23  and  N_24 
ROOT
HETATM    1  C   UNL     1      23.922  43.969  50.510  1.00  0.00     0.066 A 
HETATM    2  N   UNL     1      22.623  43.824  50.193  1.00  0.00    -0.177 NA
HETATM    3  N   UNL     1      22.270  45.013  49.666  1.00  0.00    -0.256 N 
HETATM    4  H   UNL     1      21.320  45.140  49.339  1.00  0.00     0.191 HD
HETATM    5  C   UNL     1      23.298  45.898  49.637  1.00  0.00     0.175 A 
HETATM    6  C   UNL     1      24.386  45.267  50.182  1.00  0.00     0.035 A 
HETATM    7  C   UNL     1      25.695  45.981  50.262  1.00  0.00     0.106 A 
HETATM    8  C   UNL     1      25.580  47.381  49.650  1.00  0.00     0.081 A 
HETATM    9  C   UNL     1      26.780  48.147  49.578  1.00  0.00     0.100 C 
HETATM   10  N   UNL     1      27.753  48.777  49.515  1.00  0.00    -0.191 NA
HETATM   11  C   UNL     1      24.415  47.875  49.145  1.00  0.00     0.140 A 
HETATM   12  O   UNL     1      23.222  47.131  49.153  1.00  0.00    -0.279 OA
ENDROOT
BRANCH   7  13
HETATM   13  C   UNL     1      26.094  46.003  51.739  1.00  0.00    -0.033 A 
HETATM   14  C   UNL     1      27.069  45.102  52.277  1.00  0.00    -0.019 A 
HETATM   15  C   UNL     1      27.376  45.181  53.663  1.00  0.00    -0.025 A 
HETATM   16  C   UNL     1      27.769  44.123  51.527  1.00  0.00     0.013 A 
HETATM   17  C   UNL     1      28.315  44.309  54.237  1.00  0.00     0.012 A 
HETATM   18  C   UNL     1      26.746  46.134  54.475  1.00  0.00     0.012 A 
HETATM   19  C   UNL     1      28.977  43.356  53.468  1.00  0.00     0.001 A 
HETATM   20  C   UNL     1      28.706  43.265  52.112  1.00  0.00     0.001 A 
HETATM   21  C   UNL     1      25.823  47.025  53.944  1.00  0.00     0.001 A 
HETATM   22  C   UNL     1      25.506  46.966  52.594  1.00  0.00     0.009 A 
ENDBRANCH   7  13
BRANCH  11  23
HETATM   23  N   UNL     1      24.257  49.120  48.577  1.00  0.00    -0.282 NA
HETATM   24  H   UNL     1      25.046  49.457  48.031  1.00  0.00     0.126 HD
HETATM   25  H   UNL     1      23.911  49.805  49.244  1.00  0.00     0.126 HD
ENDBRANCH  11  23
BRANCH   1  26
HETATM   26  C   UNL     1      24.669  42.832  51.124  1.00  0.00     0.057 C 
HETATM   27  C   UNL     1      25.203  41.859  50.085  1.00  0.00     0.011 C 
ENDBRANCH   1  26
TORSDOF 3
ENDMDL
MODEL 3
REMARK VINA RESULT:      -7.8      1.583      4.184
REMARK  3 active torsions:
REMARK  status: ('A' for Active; 'I' for Inactive)
REMARK    1  A    between atoms: C_2  and  C_3 
REMARK    2  A    between atoms: C_9  and  C_10 
REMARK    3  A    between atoms: C_23  and  N_24 
ROOT
HETATM    1  C   UNL     1      28.830  52.114  41.616  1.00  0.00     0.066 A 
HETATM    2  N   UNL     1      27.618  52.695  41.578  1.00  0.00    -0.177 NA
HETATM    3  N   UNL     1      26.829  51.787  40.972  1.00  0.00    -0.256 N 
HETATM    4  H   UNL     1      25.848  52.003  40.838  1.00  0.00     0.191 HD
HETATM    5  C   UNL     1      27.497  50.657  40.630  1.00  0.00     0.175 A 
HETATM    6  C   UNL     1      28.800  50.828  41.022  1.00  0.00     0.035 A 
HETATM    7  C   UNL     1      29.790  49.732  40.808  1.00  0.00     0.106 A 
HETATM    8  C   UNL     1      29.112  48.515  40.170  1.00  0.00     0.081 A 
HETATM    9  C   UNL     1      29.921  47.356  39.987  1.00  0.00     0.100 C 
HETATM   10  N   UNL     1      30.572  46.407  39.836  1.00  0.00    -0.191 NA
HETATM   11  C   UNL     1      27.793  48.496  39.830  1.00  0.00     0.140 A 
HETATM   12  O   UNL     1      26.951  49.603  40.039  1.00  0.00    -0.279 OA
ENDROOT
BRANCH   7  13
HETATM   13  C   UNL     1      30.913  50.314  39.946  1.00  0.00    -0.033 A 
HETATM   14  C   UNL     1      32.236  50.515  40.456  1.00  0.00    -0.019 A 
HETATM   15  C   UNL     1      33.219  51.071  39.592  1.00  0.00    -0.025 A 
HETATM   16  C   UNL     1      32.655  50.197  41.773  1.00  0.00     0.013 A 
HETATM   17  C   UNL     1      34.526  51.299  40.052  1.00  0.00     0.012 A 
HETATM   18  C   UNL     1      32.897  51.396  38.268  1.00  0.00     0.012 A 
HETATM   19  C   UNL     1      34.897  50.979  41.355  1.00  0.00     0.001 A 
HETATM   20  C   UNL     1      33.962  50.424  42.214  1.00  0.00     0.001 A 
HETATM   21  C   UNL     1      31.621  51.173  37.769  1.00  0.00     0.001 A 
HETATM   22  C   UNL     1      30.643  50.632  38.593  1.00  0.00     0.009 A 
ENDBRANCH   7  13
BRANCH  11  23
HETATM   23  N   UNL     1      27.131  47.429  39.263  1.00  0.00    -0.282 NA
HETATM   24  H   UNL     1      27.071  47.439  38.248  1.00  0.00     0.126 HD
HETATM   25  H   UNL     1      26.238  47.248  39.714  1.00  0.00     0.126 HD
ENDBRANCH  11  23
BRANCH   1  26
HETATM   26  C   UNL     1      29.982  52.836  42.234  1.00  0.00     0.057 C 
HETATM   27  C   UNL     1      30.763  53.658  41.220  1.00  0.00     0.011 C 
ENDBRANCH   1  26
TORSDOF 3
ENDMDL
MODEL 4
REMARK VINA RESULT:      -7.6     11.968     13.533
REMARK  3 active torsions:
REMARK  status: ('A' for Active; 'I' for Inactive)
REMARK    1  A    between atoms: C_2  and  C_3 
REMARK    2  A    between atoms: C_9  and  C_10 
REMARK    3  A    between atoms: C_23  and  N_24 
ROOT
HETATM    1  C   UNL     1      25.645  41.783  50.083  1.00  0.00     0.066 A 
HETATM    2  N   UNL     1      24.668  41.117  49.443  1.00  0.00    -0.177 NA
HETATM    3  N   UNL     1      23.782  42.072  49.098  1.00  0.00    -0.256 N 
HETATM    4  H   UNL     1      22.949  41.805  48.586  1.00  0.00     0.191 HD
HETATM    5  C   UNL     1      24.166  43.311  49.494  1.00  0.00     0.175 A 
HETATM    6  C   UNL     1      25.365  43.171  50.144  1.00  0.00     0.035 A 
HETATM    7  C   UNL     1      26.067  44.376  50.676  1.00  0.00     0.106 A 
HETATM    8  C   UNL     1      25.275  45.645  50.348  1.00  0.00     0.081 A 
HETATM    9  C   UNL     1      25.872  46.885  50.721  1.00  0.00     0.100 C 
HETATM   10  N   UNL     1      26.352  47.899  51.019  1.00  0.00    -0.191 NA
HETATM   11  C   UNL     1      24.082  45.625  49.690  1.00  0.00     0.140 A 
HETATM   12  O   UNL     1      23.484  44.426  49.264  1.00  0.00    -0.279 OA
ENDROOT
BRANCH   7  13
HETATM   13  C   UNL     1      26.247  44.152  52.179  1.00  0.00    -0.033 A 
HETATM   14  C   UNL     1      27.507  43.769  52.745  1.00  0.00    -0.019 A 
HETATM   15  C   UNL     1      27.586  43.571  54.151  1.00  0.00    -0.025 A 
HETATM   16  C   UNL     1      28.701  43.572  52.007  1.00  0.00     0.013 A 
HETATM   17  C   UNL     1      28.797  43.182  54.749  1.00  0.00     0.012 A 
HETATM   18  C   UNL     1      26.459  43.765  54.959  1.00  0.00     0.012 A 
HETATM   19  C   UNL     1      29.947  42.992  53.989  1.00  0.00     0.001 A 
HETATM   20  C   UNL     1      29.900  43.191  52.618  1.00  0.00     0.001 A 
HETATM   21  C   UNL     1      25.247  44.164  54.411  1.00  0.00     0.001 A 
HETATM   22  C   UNL     1      25.144  44.362  53.041  1.00  0.00     0.009 A 
ENDBRANCH   7  13
BRANCH  11  23
HETATM   23  N   UNL     1      23.333  46.734  49.363  1.00  0.00    -0.282 NA
HETATM   24  H   UNL     1      22.333  46.575  49.266  1.00  0.00     0.126 HD
HETATM   25  H   UNL     1      23.733  47.251  48.585  1.00  0.00     0.126 HD
ENDBRANCH  11  23
BRANCH   1  26
HETATM   26  C   UNL     1      26.825  41.039  50.617  1.00  0.00     0.057 C 
HETATM   27  C   UNL     1      27.902  40.828  49.565  1.00  0.00     0.011 C 
ENDBRANCH   1  26
TORSDOF 3
ENDMDL
MODEL 5
REMARK VINA RESULT:      -7.4      2.557      5.891
REMARK  3 active torsions:
REMARK  status: ('A' for Active; 'I' for Inactive)
REMARK    1  A    between atoms: C_2  and  C_3 
REMARK    2  A    between atoms: C_9  and  C_10 
REMARK    3  A    between atoms: C_23  and  N_24 
ROOT
HETATM    1  C   UNL     1      30.210  52.337  39.455  1.00  0.00     0.066 A 
HETATM    2  N   UNL     1      30.364  53.623  39.815  1.00  0.00    -0.177 NA
HETATM    3  N   UNL     1      31.300  53.591  40.784  1.00  0.00    -0.256 N 
HETATM    4  H   UNL     1      31.593  54.463  41.210  1.00  0.00     0.191 HD
HETATM    5  C   UNL     1      31.741  52.335  41.045  1.00  0.00     0.175 A 
HETATM    6  C   UNL     1      31.056  51.489  40.212  1.00  0.00     0.035 A 
HETATM    7  C   UNL     1      31.345  50.024  40.240  1.00  0.00     0.106 A 
HETATM    8  C   UNL     1      32.457  49.717  41.248  1.00  0.00     0.081 A 
HETATM    9  C   UNL     1      32.900  48.365  41.318  1.00  0.00     0.100 C 
HETATM   10  N   UNL     1      33.268  47.265  41.381  1.00  0.00    -0.191 NA
HETATM   11  C   UNL     1      33.047  50.676  42.015  1.00  0.00     0.140 A 
HETATM   12  O   UNL     1      32.671  52.030  41.940  1.00  0.00    -0.279 OA
ENDROOT
BRANCH   7  13
HETATM   13  C   UNL     1      30.026  49.321  40.570  1.00  0.00    -0.033 A 
HETATM   14  C   UNL     1      29.566  48.184  39.830  1.00  0.00    -0.019 A 
HETATM   15  C   UNL     1      28.324  47.595  40.195  1.00  0.00    -0.025 A 
HETATM   16  C   UNL     1      30.260  47.584  38.750  1.00  0.00     0.013 A 
HETATM   17  C   UNL     1      27.826  46.487  39.490  1.00  0.00     0.012 A 
HETATM   18  C   UNL     1      27.581  48.111  41.265  1.00  0.00     0.012 A 
HETATM   19  C   UNL     1      28.535  45.930  38.429  1.00  0.00     0.001 A 
HETATM   20  C   UNL     1      29.754  46.477  38.062  1.00  0.00     0.001 A 
HETATM   21  C   UNL     1      28.044  49.196  41.997  1.00  0.00     0.001 A 
HETATM   22  C   UNL     1      29.253  49.789  41.660  1.00  0.00     0.009 A 
ENDBRANCH   7  13
BRANCH  11  23
HETATM   23  N   UNL     1      34.055  50.459  42.929  1.00  0.00    -0.282 NA
HETATM   24  H   UNL     1      34.908  50.053  42.553  1.00  0.00     0.126 HD
HETATM   25  H   UNL     1      33.720  49.984  43.763  1.00  0.00     0.126 HD
ENDBRANCH  11  23
BRANCH   1  26
HETATM   26  C   UNL     1      29.238  51.976  38.381  1.00  0.00     0.057 C 
HETATM   27  C   UNL     1      27.865  51.626  38.933  1.00  0.00     0.011 C 
ENDBRANCH   1  26
TORSDOF 3
ENDMDL
MODEL 6
REMARK VINA RESULT:      -7.2     11.161     14.030
REMARK  3 active torsions:
REMARK  status: ('A' for Active; 'I' for Inactive)
REMARK    1  A    between atoms: C_2  and  C_3 
REMARK    2  A    between atoms: C_9  and  C_10 
REMARK    3  A    between atoms: C_23  and  N_24 
ROOT
HETATM    1  C   UNL     1      22.649  48.665  48.201  1.00  0.00     0.066 A 
HETATM    2  N   UNL     1      23.578  48.006  48.917  1.00  0.00    -0.177 NA
HETATM    3  N   UNL     1      22.985  46.843  49.249  1.00  0.00    -0.256 N 
HETATM    4  H   UNL     1      23.506  46.165  49.792  1.00  0.00     0.191 HD
HETATM    5  C   UNL     1      21.720  46.744  48.767  1.00  0.00     0.175 A 
HETATM    6  C   UNL     1      21.458  47.906  48.087  1.00  0.00     0.035 A 
HETATM    7  C   UNL     1      20.141  48.088  47.408  1.00  0.00     0.106 A 
HETATM    8  C   UNL     1      19.271  46.839  47.583  1.00  0.00     0.081 A 
HETATM    9  C   UNL     1      18.015  46.837  46.910  1.00  0.00     0.100 C 
HETATM   10  N   UNL     1      16.990  46.826  46.364  1.00  0.00    -0.191 NA
HETATM   11  C   UNL     1      19.673  45.751  48.297  1.00  0.00     0.140 A 
HETATM   12  O   UNL     1      20.925  45.696  48.935  1.00  0.00    -0.279 OA
ENDROOT
BRANCH   7  13
HETATM   13  C   UNL     1      19.509  49.348  48.004  1.00  0.00    -0.033 A 
HETATM   14  C   UNL     1      18.847  50.324  47.191  1.00  0.00    -0.019 A 
HETATM   15  C   UNL     1      18.295  51.472  47.823  1.00  0.00    -0.025 A 
HETATM   16  C   UNL     1      18.690  50.236  45.785  1.00  0.00     0.013 A 
HETATM   17  C   UNL     1      17.648  52.462  47.064  1.00  0.00     0.012 A 
HETATM   18  C   UNL     1      18.385  51.629  49.212  1.00  0.00     0.012 A 
HETATM   19  C   UNL     1      17.520  52.342  45.683  1.00  0.00     0.001 A 
HETATM   20  C   UNL     1      18.038  51.227  45.044  1.00  0.00     0.001 A 
HETATM   21  C   UNL     1      19.003  50.667  50.000  1.00  0.00     0.001 A 
HETATM   22  C   UNL     1      19.551  49.538  49.406  1.00  0.00     0.009 A 
ENDBRANCH   7  13
BRANCH  11  23
HETATM   23  N   UNL     1      18.937  44.600  48.480  1.00  0.00    -0.282 NA
HETATM   24  H   UNL     1      17.978  44.635  48.143  1.00  0.00     0.126 HD
HETATM   25  H   UNL     1      19.015  44.241  49.428  1.00  0.00     0.126 HD
ENDBRANCH  11  23
BRANCH   1  26
HETATM   26  C   UNL     1      22.957  50.017  47.649  1.00  0.00     0.057 C 
HETATM   27  C   UNL     1      22.786  51.119  48.683  1.00  0.00     0.011 C 
ENDBRANCH   1  26
TORSDOF 3
ENDMDL
MODEL 7
REMARK VINA RESULT:      -7.0     13.310     15.294
REMARK  3 active torsions:
REMARK  status: ('A' for Active; 'I' for Inactive)
REMARK    1  A    between atoms: C_2  and  C_3 
REMARK    2  A    between atoms: C_9  and  C_10 
REMARK    3  A    between atoms: C_23  and  N_24 
ROOT
HETATM    1  C   UNL     1      20.091  49.859  48.532  1.00  0.00     0.066 A 
HETATM    2  N   UNL     1      20.670  49.383  49.648  1.00  0.00    -0.177 NA
HETATM    3  N   UNL     1      20.151  48.148  49.796  1.00  0.00    -0.256 N 
HETATM    4  H   UNL     1      20.452  47.581  50.579  1.00  0.00     0.191 HD
HETATM    5  C   UNL     1      19.271  47.829  48.813  1.00  0.00     0.175 A 
HETATM    6  C   UNL     1      19.195  48.912  47.976  1.00  0.00     0.035 A 
HETATM    7  C   UNL     1      18.322  48.856  46.766  1.00  0.00     0.106 A 
HETATM    8  C   UNL     1      17.643  47.487  46.659  1.00  0.00     0.081 A 
HETATM    9  C   UNL     1      16.844  47.259  45.501  1.00  0.00     0.100 C 
HETATM   10  N   UNL     1      16.193  47.064  44.560  1.00  0.00    -0.191 NA
HETATM   11  C   UNL     1      17.815  46.500  47.583  1.00  0.00     0.140 A 
HETATM   12  O   UNL     1      18.634  46.670  48.714  1.00  0.00    -0.279 OA
ENDROOT
BRANCH   7  13
HETATM   13  C   UNL     1      17.326  50.012  46.889  1.00  0.00    -0.033 A 
HETATM   14  C   UNL     1      17.163  50.988  45.853  1.00  0.00    -0.019 A 
HETATM   15  C   UNL     1      16.223  52.036  46.050  1.00  0.00    -0.025 A 
HETATM   16  C   UNL     1      17.871  50.992  44.624  1.00  0.00     0.013 A 
HETATM   17  C   UNL     1      16.039  53.023  45.067  1.00  0.00     0.012 A 
HETATM   18  C   UNL     1      15.465  52.097  47.226  1.00  0.00     0.012 A 
HETATM   19  C   UNL     1      16.758  52.997  43.876  1.00  0.00     0.001 A 
HETATM   20  C   UNL     1      17.672  51.978  43.653  1.00  0.00     0.001 A 
HETATM   21  C   UNL     1      15.605  51.133  48.216  1.00  0.00     0.001 A 
HETATM   22  C   UNL     1      16.517  50.100  48.047  1.00  0.00     0.009 A 
ENDBRANCH   7  13
BRANCH  11  23
HETATM   23  N   UNL     1      17.238  45.251  47.532  1.00  0.00    -0.282 NA
HETATM   24  H   UNL     1      17.886  44.469  47.475  1.00  0.00     0.126 HD
HETATM   25  H   UNL     1      16.490  45.201  46.844  1.00  0.00     0.126 HD
ENDBRANCH  11  23
BRANCH   1  26
HETATM   26  C   UNL     1      20.433  51.228  48.042  1.00  0.00     0.057 C 
HETATM   27  C   UNL     1      19.472  52.286  48.560  1.00  0.00     0.011 C 
ENDBRANCH   1  26
TORSDOF 3
ENDMDL
MODEL 8
REMARK VINA RESULT:      -7.0     12.537     14.782
REMARK  3 active torsions:
REMARK  status: ('A' for Active; 'I' for Inactive)
REMARK    1  A    between atoms: C_2  and  C_3 
REMARK    2  A    between atoms: C_9  and  C_10 
REMARK    3  A    between atoms: C_23  and  N_24 
ROOT
HETATM    1  C   UNL     1      20.666  50.789  48.964  1.00  0.00     0.066 A 
HETATM    2  N   UNL     1      21.523  50.881  49.996  1.00  0.00    -0.177 NA
HETATM    3  N   UNL     1      22.137  49.682  50.031  1.00  0.00    -0.256 N 
HETATM    4  H   UNL     1      22.847  49.516  50.735  1.00  0.00     0.191 HD
HETATM    5  C   UNL     1      21.701  48.841  49.060  1.00  0.00     0.175 A 
HETATM    6  C   UNL     1      20.741  49.514  48.349  1.00  0.00     0.035 A 
HETATM    7  C   UNL     1      20.085  48.857  47.180  1.00  0.00     0.106 A 
HETATM    8  C   UNL     1      20.668  47.458  46.955  1.00  0.00     0.081 A 
HETATM    9  C   UNL     1      20.195  46.745  45.815  1.00  0.00     0.100 C 
HETATM   10  N   UNL     1      19.817  46.158  44.888  1.00  0.00    -0.191 NA
HETATM   11  C   UNL     1      21.627  46.918  47.757  1.00  0.00     0.140 A 
HETATM   12  O   UNL     1      22.154  47.610  48.863  1.00  0.00    -0.279 OA
ENDROOT
BRANCH   7  13
HETATM   13  C   UNL     1      18.582  48.841  47.471  1.00  0.00    -0.033 A 
HETATM   14  C   UNL     1      17.664  49.691  46.774  1.00  0.00    -0.019 A 
HETATM   15  C   UNL     1      16.284  49.622  47.112  1.00  0.00    -0.025 A 
HETATM   16  C   UNL     1      18.022  50.610  45.755  1.00  0.00     0.013 A 
HETATM   17  C   UNL     1      15.349  50.446  46.465  1.00  0.00     0.012 A 
HETATM   18  C   UNL     1      15.839  48.726  48.093  1.00  0.00     0.012 A 
HETATM   19  C   UNL     1      15.742  51.341  45.474  1.00  0.00     0.001 A 
HETATM   20  C   UNL     1      17.078  51.420  45.116  1.00  0.00     0.001 A 
HETATM   21  C   UNL     1      16.728  47.883  48.746  1.00  0.00     0.001 A 
HETATM   22  C   UNL     1      18.080  47.933  48.435  1.00  0.00     0.009 A 
ENDBRANCH   7  13
BRANCH  11  23
HETATM   23  N   UNL     1      22.192  45.672  47.597  1.00  0.00    -0.282 NA
HETATM   24  H   UNL     1      22.203  45.314  46.645  1.00  0.00     0.126 HD
HETATM   25  H   UNL     1      21.838  45.000  48.273  1.00  0.00     0.126 HD
ENDBRANCH  11  23
BRANCH   1  26
HETATM   26  C   UNL     1      19.799  51.952  48.612  1.00  0.00     0.057 C 
HETATM   27  C   UNL     1      18.577  52.058  49.509  1.00  0.00     0.011 C 
ENDBRANCH   1  26
TORSDOF 3
ENDMDL
MODEL 9
REMARK VINA RESULT:      -7.0      3.029      4.759
REMARK  3 active torsions:
REMARK  status: ('A' for Active; 'I' for Inactive)
REMARK    1  A    between atoms: C_2  and  C_3 
REMARK    2  A    between atoms: C_9  and  C_10 
REMARK    3  A    between atoms: C_23  and  N_24 
ROOT
HETATM    1  C   UNL     1      28.411  46.949  40.114  1.00  0.00     0.066 A 
HETATM    2  N   UNL     1      28.730  45.963  39.258  1.00  0.00    -0.177 NA
HETATM    3  N   UNL     1      30.078  45.948  39.250  1.00  0.00    -0.256 N 
HETATM    4  H   UNL     1      30.556  45.267  38.672  1.00  0.00     0.191 HD
HETATM    5  C   UNL     1      30.617  46.885  40.070  1.00  0.00     0.175 A 
HETATM    6  C   UNL     1      29.573  47.562  40.645  1.00  0.00     0.035 A 
HETATM    7  C   UNL     1      29.846  48.648  41.633  1.00  0.00     0.106 A 
HETATM    8  C   UNL     1      31.354  48.796  41.862  1.00  0.00     0.081 A 
HETATM    9  C   UNL     1      31.760  49.740  42.850  1.00  0.00     0.100 C 
HETATM   10  N   UNL     1      32.100  50.505  43.654  1.00  0.00    -0.191 NA
HETATM   11  C   UNL     1      32.281  48.043  41.206  1.00  0.00     0.140 A 
HETATM   12  O   UNL     1      31.917  47.068  40.259  1.00  0.00    -0.279 OA
ENDROOT
BRANCH   7  13
HETATM   13  C   UNL     1      29.195  49.918  41.083  1.00  0.00    -0.033 A 
HETATM   14  C   UNL     1      29.658  50.552  39.883  1.00  0.00    -0.019 A 
HETATM   15  C   UNL     1      29.004  51.735  39.445  1.00  0.00    -0.025 A 
HETATM   16  C   UNL     1      30.730  50.084  39.082  1.00  0.00     0.013 A 
HETATM   17  C   UNL     1      29.431  52.398  38.283  1.00  0.00     0.012 A 
HETATM   18  C   UNL     1      27.921  52.255  40.166  1.00  0.00     0.012 A 
HETATM   19  C   UNL     1      30.493  51.912  37.526  1.00  0.00     0.001 A 
HETATM   20  C   UNL     1      31.140  50.752  37.924  1.00  0.00     0.001 A 
HETATM   21  C   UNL     1      27.457  51.623  41.312  1.00  0.00     0.001 A 
HETATM   22  C   UNL     1      28.080  50.466  41.761  1.00  0.00     0.009 A 
ENDBRANCH   7  13
BRANCH  11  23
HETATM   23  N   UNL     1      33.645  48.128  41.378  1.00  0.00    -0.282 NA
HETATM   24  H   UNL     1      33.954  48.399  42.308  1.00  0.00     0.126 HD
HETATM   25  H   UNL     1      34.092  48.662  40.637  1.00  0.00     0.126 HD
ENDBRANCH  11  23
BRANCH   1  26
HETATM   26  C   UNL     1      26.977  47.262  40.387  1.00  0.00     0.057 C 
HETATM   27  C   UNL     1      26.383  48.208  39.356  1.00  0.00     0.011 C 
ENDBRANCH   1  26
TORSDOF 3
ENDMDL
MODEL 10
REMARK VINA RESULT:      -6.9     11.515     13.825
REMARK  3 active torsions:
REMARK  status: ('A' for Active; 'I' for Inactive)
REMARK    1  A    between atoms: C_2  and  C_3 
REMARK    2  A    between atoms: C_9  and  C_10 
REMARK    3  A    between atoms: C_23  and  N_24 
ROOT
HETATM    1  C   UNL     1      19.322  45.807  47.990  1.00  0.00     0.066 A 
HETATM    2  N   UNL     1      18.558  44.705  48.090  1.00  0.00    -0.177 NA
HETATM    3  N   UNL     1      17.423  45.022  47.437  1.00  0.00    -0.256 N 
HETATM    4  H   UNL     1      16.687  44.330  47.370  1.00  0.00     0.191 HD
HETATM    5  C   UNL     1      17.446  46.280  46.928  1.00  0.00     0.175 A 
HETATM    6  C   UNL     1      18.655  46.829  47.270  1.00  0.00     0.035 A 
HETATM    7  C   UNL     1      18.996  48.211  46.822  1.00  0.00     0.106 A 
HETATM    8  C   UNL     1      17.860  48.796  45.976  1.00  0.00     0.081 A 
HETATM    9  C   UNL     1      18.086  50.082  45.406  1.00  0.00     0.100 C 
HETATM   10  N   UNL     1      18.261  51.129  44.936  1.00  0.00    -0.191 NA
HETATM   11  C   UNL     1      16.703  48.123  45.723  1.00  0.00     0.140 A 
HETATM   12  O   UNL     1      16.464  46.832  46.228  1.00  0.00    -0.279 OA
ENDROOT
BRANCH   7  13
HETATM   13  C   UNL     1      19.282  49.025  48.086  1.00  0.00    -0.033 A 
HETATM   14  C   UNL     1      20.555  49.640  48.322  1.00  0.00    -0.019 A 
HETATM   15  C   UNL     1      20.742  50.370  49.528  1.00  0.00    -0.025 A 
HETATM   16  C   UNL     1      21.660  49.582  47.437  1.00  0.00     0.013 A 
HETATM   17  C   UNL     1      21.977  50.979  49.809  1.00  0.00     0.012 A 
HETATM   18  C   UNL     1      19.695  50.496  50.450  1.00  0.00     0.012 A 
HETATM   19  C   UNL     1      23.041  50.894  48.916  1.00  0.00     0.001 A 
HETATM   20  C   UNL     1      22.881  50.198  47.728  1.00  0.00     0.001 A 
HETATM   21  C   UNL     1      18.455  49.923  50.205  1.00  0.00     0.001 A 
HETATM   22  C   UNL     1      18.248  49.204  49.036  1.00  0.00     0.009 A 
ENDBRANCH   7  13
BRANCH  11  23
HETATM   23  N   UNL     1      15.655  48.595  44.964  1.00  0.00    -0.282 NA
HETATM   24  H   UNL     1      15.851  49.428  44.414  1.00  0.00     0.126 HD
HETATM   25  H   UNL     1      14.794  48.664  45.500  1.00  0.00     0.126 HD
ENDBRANCH  11  23
BRANCH   1  26
HETATM   26  C   UNL     1      20.683  45.826  48.603  1.00  0.00     0.057 C 
HETATM   27  C   UNL     1      21.789  45.855  47.560  1.00  0.00     0.011 C 
ENDBRANCH   1  26
TORSDOF 3
ENDMDL
