MODEL 1
REMARK VINA RESULT:      -9.1      0.000      0.000
REMARK  2 active torsions:
REMARK  status: ('A' for Active; 'I' for Inactive)
REMARK    1  A    between atoms: C_4  and  C_5 
REMARK    2  A    between atoms: C_10  and  C_11 
ROOT
HETATM    1  C   UNL     1      24.782  47.093  50.502  1.00  0.00     0.202 C 
HETATM    2  N   UNL     1      24.978  45.662  50.339  1.00  0.00    -0.331 N 
HETATM    3  C   UNL     1      24.483  45.045  49.124  1.00  0.00     0.155 C 
HETATM    4  C   UNL     1      25.895  44.978  51.122  1.00  0.00     0.256 C 
HETATM    5  O   UNL     1      26.328  43.861  50.849  1.00  0.00    -0.267 OA
HETATM    6  C   UNL     1      26.349  45.662  52.353  1.00  0.00     0.053 A 
HETATM    7  C   UNL     1      25.741  46.874  52.699  1.00  0.00     0.026 A 
HETATM    8  N   UNL     1      24.699  47.401  51.924  1.00  0.00    -0.266 NA
HETATM    9  C   UNL     1      27.340  45.091  53.161  1.00  0.00     0.019 A 
HETATM   10  C   UNL     1      27.714  45.723  54.345  1.00  0.00     0.001 A 
HETATM   11  C   UNL     1      27.085  46.909  54.723  1.00  0.00     0.002 A 
HETATM   12  C   UNL     1      26.092  47.471  53.914  1.00  0.00     0.024 A 
HETATM   13  H   UNL     1      24.565  48.398  52.071  1.00  0.00     0.130 HD
ENDROOT
BRANCH   1  14
HETATM   14  C   UNL     1      25.802  47.879  49.719  1.00  0.00     0.029 A 
HETATM   15  C   UNL     1      25.575  49.076  48.980  1.00  0.00     0.121 A 
HETATM   16  N   UNL     1      26.693  49.532  48.398  1.00  0.00    -0.172 NA
HETATM   17  N   UNL     1      27.635  48.654  48.771  1.00  0.00    -0.288 N 
HETATM   18  H   UNL     1      28.587  48.802  48.450  1.00  0.00     0.188 HD
HETATM   19  C   UNL     1      27.158  47.652  49.557  1.00  0.00     0.122 A 
BRANCH  15  20
HETATM   20  C   UNL     1      24.271  49.794  48.835  1.00  0.00     0.106 A 
HETATM   21  O   UNL     1      23.357  49.967  49.839  1.00  0.00    -0.313 OA
HETATM   22  C   UNL     1      22.300  50.649  49.321  1.00  0.00     0.050 A 
HETATM   23  C   UNL     1      21.175  50.928  50.237  1.00  0.00     0.076 C 
HETATM   24  C   UNL     1      22.526  50.935  47.993  1.00  0.00     0.035 A 
HETATM   25  C   UNL     1      23.794  50.388  47.681  1.00  0.00     0.042 A 
ENDBRANCH  15  20
ENDBRANCH   1  14
TORSDOF 2
ENDMDL
MODEL 2
REMARK VINA RESULT:      -8.2     10.645     12.791
REMARK  2 active torsions:
REMARK  status: ('A' for Active; 'I' for Inactive)
REMARK    1  A    between atoms: C_4  and  C_5 
REMARK    2  A    between atoms: C_10  and  C_11 
ROOT
HETATM    1  C   UNL     1      29.871  51.078  41.620  1.00  0.00     0.202 C 
HETATM    2  N   UNL     1      29.818  52.240  40.749  1.00  0.00    -0.331 N 
HETATM    3  C   UNL     1      30.828  53.265  40.926  1.00  0.00     0.155 C 
HETATM    4  C   UNL     1      29.073  52.217  39.580  1.00  0.00     0.256 C 
HETATM    5  O   UNL     1      29.216  53.023  38.663  1.00  0.00    -0.267 OA
HETATM    6  C   UNL     1      28.054  51.150  39.470  1.00  0.00     0.053 A 
HETATM    7  C   UNL     1      27.831  50.331  40.582  1.00  0.00     0.026 A 
HETATM    8  N   UNL     1      28.523  50.546  41.782  1.00  0.00    -0.266 NA
HETATM    9  C   UNL     1      27.315  50.990  38.291  1.00  0.00     0.019 A 
HETATM   10  C   UNL     1      26.321  50.016  38.227  1.00  0.00     0.001 A 
HETATM   11  C   UNL     1      26.059  49.223  39.343  1.00  0.00     0.002 A 
HETATM   12  C   UNL     1      26.797  49.392  40.519  1.00  0.00     0.024 A 
HETATM   13  H   UNL     1      28.527  49.728  42.385  1.00  0.00     0.130 HD
ENDROOT
BRANCH   1  14
HETATM   14  C   UNL     1      30.914  50.093  41.160  1.00  0.00     0.029 A 
HETATM   15  C   UNL     1      32.248  49.971  41.645  1.00  0.00     0.121 A 
HETATM   16  N   UNL     1      32.923  48.990  41.030  1.00  0.00    -0.172 NA
HETATM   17  N   UNL     1      32.034  48.471  40.173  1.00  0.00    -0.288 N 
HETATM   18  H   UNL     1      32.323  47.691  39.590  1.00  0.00     0.188 HD
HETATM   19  C   UNL     1      30.823  49.089  40.209  1.00  0.00     0.122 A 
BRANCH  15  20
HETATM   20  C   UNL     1      32.880  50.802  42.716  1.00  0.00     0.106 A 
HETATM   21  O   UNL     1      34.177  51.240  42.703  1.00  0.00    -0.313 OA
HETATM   22  C   UNL     1      34.384  51.947  43.848  1.00  0.00     0.050 A 
HETATM   23  C   UNL     1      35.739  52.499  44.052  1.00  0.00     0.076 C 
HETATM   24  C   UNL     1      33.229  51.985  44.597  1.00  0.00     0.035 A 
HETATM   25  C   UNL     1      32.261  51.251  43.868  1.00  0.00     0.042 A 
ENDBRANCH  15  20
ENDBRANCH   1  14
TORSDOF 2
ENDMDL
MODEL 3
REMARK VINA RESULT:      -8.2      2.072      6.734
REMARK  2 active torsions:
REMARK  status: ('A' for Active; 'I' for Inactive)
REMARK    1  A    between atoms: C_4  and  C_5 
REMARK    2  A    between atoms: C_10  and  C_11 
ROOT
HETATM    1  C   UNL     1      26.220  45.619  50.955  1.00  0.00     0.202 C 
HETATM    2  N   UNL     1      24.891  45.587  50.369  1.00  0.00    -0.331 N 
HETATM    3  C   UNL     1      24.013  44.494  50.738  1.00  0.00     0.155 C 
HETATM    4  C   UNL     1      24.353  46.716  49.770  1.00  0.00     0.256 C 
HETATM    5  O   UNL     1      23.156  46.856  49.529  1.00  0.00    -0.267 OA
HETATM    6  C   UNL     1      25.306  47.788  49.410  1.00  0.00     0.053 A 
HETATM    7  C   UNL     1      26.673  47.543  49.581  1.00  0.00     0.026 A 
HETATM    8  N   UNL     1      27.126  46.298  50.038  1.00  0.00    -0.266 NA
HETATM    9  C   UNL     1      24.847  49.002  48.884  1.00  0.00     0.019 A 
HETATM   10  C   UNL     1      25.765  49.978  48.499  1.00  0.00     0.001 A 
HETATM   11  C   UNL     1      27.130  49.729  48.623  1.00  0.00     0.002 A 
HETATM   12  C   UNL     1      27.582  48.511  49.144  1.00  0.00     0.024 A 
HETATM   13  H   UNL     1      28.067  46.339  50.423  1.00  0.00     0.130 HD
ENDROOT
BRANCH   1  14
HETATM   14  C   UNL     1      26.186  46.157  52.363  1.00  0.00     0.029 A 
HETATM   15  C   UNL     1      26.862  45.624  53.498  1.00  0.00     0.121 A 
HETATM   16  N   UNL     1      26.630  46.340  54.608  1.00  0.00    -0.172 NA
HETATM   17  N   UNL     1      25.831  47.333  54.193  1.00  0.00    -0.288 N 
HETATM   18  H   UNL     1      25.523  48.021  54.873  1.00  0.00     0.188 HD
HETATM   19  C   UNL     1      25.536  47.272  52.867  1.00  0.00     0.122 A 
BRANCH  15  20
HETATM   20  C   UNL     1      27.746  44.418  53.518  1.00  0.00     0.106 A 
HETATM   21  O   UNL     1      27.485  43.246  52.862  1.00  0.00    -0.313 OA
HETATM   22  C   UNL     1      28.506  42.386  53.133  1.00  0.00     0.050 A 
HETATM   23  C   UNL     1      28.414  41.038  52.536  1.00  0.00     0.076 C 
HETATM   24  C   UNL     1      29.435  42.997  53.945  1.00  0.00     0.035 A 
HETATM   25  C   UNL     1      28.949  44.303  54.190  1.00  0.00     0.042 A 
ENDBRANCH  15  20
ENDBRANCH   1  14
TORSDOF 2
ENDMDL
MODEL 4
REMARK VINA RESULT:      -8.0      3.446      6.053
REMARK  2 active torsions:
REMARK  status: ('A' for Active; 'I' for Inactive)
REMARK    1  A    between atoms: C_4  and  C_5 
REMARK    2  A    between atoms: C_10  and  C_11 
ROOT
HETATM    1  C   UNL     1      27.972  43.806  52.164  1.00  0.00     0.202 C 
HETATM    2  N   UNL     1      28.866  42.675  52.340  1.00  0.00    -0.331 N 
HETATM    3  C   UNL     1      29.901  42.780  53.350  1.00  0.00     0.155 C 
HETATM    4  C   UNL     1      28.541  41.427  51.831  1.00  0.00     0.256 C 
HETATM    5  O   UNL     1      29.080  40.382  52.188  1.00  0.00    -0.267 OA
HETATM    6  C   UNL     1      27.483  41.393  50.797  1.00  0.00     0.053 A 
HETATM    7  C   UNL     1      26.982  42.611  50.323  1.00  0.00     0.026 A 
HETATM    8  N   UNL     1      27.502  43.828  50.785  1.00  0.00    -0.266 NA
HETATM    9  C   UNL     1      27.023  40.173  50.288  1.00  0.00     0.019 A 
HETATM   10  C   UNL     1      26.067  40.164  49.275  1.00  0.00     0.001 A 
HETATM   11  C   UNL     1      25.592  41.371  48.763  1.00  0.00     0.002 A 
HETATM   12  C   UNL     1      26.061  42.587  49.272  1.00  0.00     0.024 A 
HETATM   13  H   UNL     1      26.869  44.609  50.631  1.00  0.00     0.130 HD
ENDROOT
BRANCH   1  14
HETATM   14  C   UNL     1      26.899  43.828  53.223  1.00  0.00     0.029 A 
HETATM   15  C   UNL     1      25.670  44.546  53.180  1.00  0.00     0.121 A 
HETATM   16  N   UNL     1      24.930  44.350  54.281  1.00  0.00    -0.172 NA
HETATM   17  N   UNL     1      25.660  43.502  55.017  1.00  0.00    -0.288 N 
HETATM   18  H   UNL     1      25.290  43.196  55.911  1.00  0.00     0.188 HD
HETATM   19  C   UNL     1      26.840  43.158  54.434  1.00  0.00     0.122 A 
BRANCH  15  20
HETATM   20  C   UNL     1      25.197  45.427  52.068  1.00  0.00     0.106 A 
HETATM   21  O   UNL     1      24.434  45.010  51.011  1.00  0.00    -0.313 OA
HETATM   22  C   UNL     1      24.223  46.087  50.205  1.00  0.00     0.050 A 
HETATM   23  C   UNL     1      23.431  45.855  48.980  1.00  0.00     0.076 C 
HETATM   24  C   UNL     1      24.828  47.203  50.739  1.00  0.00     0.035 A 
HETATM   25  C   UNL     1      25.452  46.779  51.937  1.00  0.00     0.042 A 
ENDBRANCH  15  20
ENDBRANCH   1  14
TORSDOF 2
ENDMDL
MODEL 5
REMARK VINA RESULT:      -7.8     10.691     13.390
REMARK  2 active torsions:
REMARK  status: ('A' for Active; 'I' for Inactive)
REMARK    1  A    between atoms: C_4  and  C_5 
REMARK    2  A    between atoms: C_10  and  C_11 
ROOT
HETATM    1  C   UNL     1      32.617  50.443  41.234  1.00  0.00     0.202 C 
HETATM    2  N   UNL     1      31.736  49.311  41.460  1.00  0.00    -0.331 N 
HETATM    3  C   UNL     1      32.339  48.046  41.830  1.00  0.00     0.155 C 
HETATM    4  C   UNL     1      30.377  49.498  41.663  1.00  0.00     0.256 C 
HETATM    5  O   UNL     1      29.635  48.648  42.148  1.00  0.00    -0.267 OA
HETATM    6  C   UNL     1      29.825  50.808  41.253  1.00  0.00     0.053 A 
HETATM    7  C   UNL     1      30.670  51.703  40.588  1.00  0.00     0.026 A 
HETATM    8  N   UNL     1      31.991  51.348  40.279  1.00  0.00    -0.266 NA
HETATM    9  C   UNL     1      28.484  51.125  41.500  1.00  0.00     0.019 A 
HETATM   10  C   UNL     1      27.969  52.341  41.056  1.00  0.00     0.001 A 
HETATM   11  C   UNL     1      28.789  53.223  40.353  1.00  0.00     0.002 A 
HETATM   12  C   UNL     1      30.127  52.898  40.105  1.00  0.00     0.024 A 
HETATM   13  H   UNL     1      32.584  52.155  40.103  1.00  0.00     0.130 HD
ENDROOT
BRANCH   1  14
HETATM   14  C   UNL     1      33.057  51.065  42.535  1.00  0.00     0.029 A 
HETATM   15  C   UNL     1      34.343  51.600  42.836  1.00  0.00     0.121 A 
HETATM   16  N   UNL     1      34.410  52.084  44.084  1.00  0.00    -0.172 NA
HETATM   17  N   UNL     1      33.181  51.884  44.578  1.00  0.00    -0.288 N 
HETATM   18  H   UNL     1      32.986  52.186  45.528  1.00  0.00     0.188 HD
HETATM   19  C   UNL     1      32.336  51.282  43.698  1.00  0.00     0.122 A 
BRANCH  15  20
HETATM   20  C   UNL     1      35.518  51.652  41.913  1.00  0.00     0.106 A 
HETATM   21  O   UNL     1      35.776  52.665  41.031  1.00  0.00    -0.313 OA
HETATM   22  C   UNL     1      36.917  52.348  40.360  1.00  0.00     0.050 A 
HETATM   23  C   UNL     1      37.372  53.305  39.332  1.00  0.00     0.076 C 
HETATM   24  C   UNL     1      37.411  51.144  40.811  1.00  0.00     0.035 A 
HETATM   25  C   UNL     1      36.514  50.698  41.811  1.00  0.00     0.042 A 
ENDBRANCH  15  20
ENDBRANCH   1  14
TORSDOF 2
ENDMDL
MODEL 6
REMARK VINA RESULT:      -7.8      3.491      5.143
REMARK  2 active torsions:
REMARK  status: ('A' for Active; 'I' for Inactive)
REMARK    1  A    between atoms: C_4  and  C_5 
REMARK    2  A    between atoms: C_10  and  C_11 
ROOT
HETATM    1  C   UNL     1      25.039  44.361  52.278  1.00  0.00     0.202 C 
HETATM    2  N   UNL     1      24.890  43.191  51.429  1.00  0.00    -0.331 N 
HETATM    3  C   UNL     1      23.687  43.083  50.628  1.00  0.00     0.155 C 
HETATM    4  C   UNL     1      25.983  42.394  51.123  1.00  0.00     0.256 C 
HETATM    5  O   UNL     1      26.001  41.588  50.195  1.00  0.00    -0.267 OA
HETATM    6  C   UNL     1      27.174  42.548  51.988  1.00  0.00     0.053 A 
HETATM    7  C   UNL     1      27.074  43.379  53.108  1.00  0.00     0.026 A 
HETATM    8  N   UNL     1      25.864  44.012  53.427  1.00  0.00    -0.266 NA
HETATM    9  C   UNL     1      28.355  41.853  51.702  1.00  0.00     0.019 A 
HETATM   10  C   UNL     1      29.447  41.968  52.560  1.00  0.00     0.001 A 
HETATM   11  C   UNL     1      29.346  42.758  53.704  1.00  0.00     0.002 A 
HETATM   12  C   UNL     1      28.160  43.445  53.986  1.00  0.00     0.024 A 
HETATM   13  H   UNL     1      25.989  44.814  54.039  1.00  0.00     0.130 HD
ENDROOT
BRANCH   1  14
HETATM   14  C   UNL     1      25.492  45.560  51.484  1.00  0.00     0.029 A 
HETATM   15  C   UNL     1      26.126  46.731  51.992  1.00  0.00     0.121 A 
HETATM   16  N   UNL     1      26.408  47.614  51.023  1.00  0.00    -0.172 NA
HETATM   17  N   UNL     1      25.981  47.015  49.903  1.00  0.00    -0.288 N 
HETATM   18  H   UNL     1      26.100  47.502  49.020  1.00  0.00     0.188 HD
HETATM   19  C   UNL     1      25.429  45.791  50.120  1.00  0.00     0.122 A 
BRANCH  15  20
HETATM   20  C   UNL     1      26.470  47.003  53.421  1.00  0.00     0.106 A 
HETATM   21  O   UNL     1      27.510  46.428  54.099  1.00  0.00    -0.313 OA
HETATM   22  C   UNL     1      27.489  46.910  55.372  1.00  0.00     0.050 A 
HETATM   23  C   UNL     1      28.525  46.398  56.293  1.00  0.00     0.076 C 
HETATM   24  C   UNL     1      26.454  47.805  55.522  1.00  0.00     0.035 A 
HETATM   25  C   UNL     1      25.800  47.868  54.268  1.00  0.00     0.042 A 
ENDBRANCH  15  20
ENDBRANCH   1  14
TORSDOF 2
ENDMDL
MODEL 7
REMARK VINA RESULT:      -7.6     10.963     13.058
REMARK  2 active torsions:
REMARK  status: ('A' for Active; 'I' for Inactive)
REMARK    1  A    between atoms: C_4  and  C_5 
REMARK    2  A    between atoms: C_10  and  C_11 
ROOT
HETATM    1  C   UNL     1      31.072  50.608  41.487  1.00  0.00     0.202 C 
HETATM    2  N   UNL     1      29.964  51.479  41.842  1.00  0.00    -0.331 N 
HETATM    3  C   UNL     1      30.275  52.760  42.446  1.00  0.00     0.155 C 
HETATM    4  C   UNL     1      28.699  51.267  41.316  1.00  0.00     0.256 C 
HETATM    5  O   UNL     1      27.806  52.111  41.324  1.00  0.00    -0.267 OA
HETATM    6  C   UNL     1      28.447  49.934  40.725  1.00  0.00     0.053 A 
HETATM    7  C   UNL     1      29.441  48.958  40.846  1.00  0.00     0.026 A 
HETATM    8  N   UNL     1      30.625  49.223  41.549  1.00  0.00    -0.266 NA
HETATM    9  C   UNL     1      27.231  49.656  40.089  1.00  0.00     0.019 A 
HETATM   10  C   UNL     1      26.990  48.378  39.588  1.00  0.00     0.001 A 
HETATM   11  C   UNL     1      27.955  47.384  39.742  1.00  0.00     0.002 A 
HETATM   12  C   UNL     1      29.166  47.667  40.383  1.00  0.00     0.024 A 
HETATM   13  H   UNL     1      31.379  48.588  41.302  1.00  0.00     0.130 HD
ENDROOT
BRANCH   1  14
HETATM   14  C   UNL     1      31.711  51.034  40.191  1.00  0.00     0.029 A 
HETATM   15  C   UNL     1      33.094  51.294  39.964  1.00  0.00     0.121 A 
HETATM   16  N   UNL     1      33.341  51.650  38.695  1.00  0.00    -0.172 NA
HETATM   17  N   UNL     1      32.139  51.602  38.104  1.00  0.00    -0.288 N 
HETATM   18  H   UNL     1      32.077  51.829  37.116  1.00  0.00     0.188 HD
HETATM   19  C   UNL     1      31.135  51.240  38.948  1.00  0.00     0.122 A 
BRANCH  15  20
HETATM   20  C   UNL     1      34.191  51.195  40.975  1.00  0.00     0.106 A 
HETATM   21  O   UNL     1      34.323  52.005  42.069  1.00  0.00    -0.313 OA
HETATM   22  C   UNL     1      35.446  51.620  42.735  1.00  0.00     0.050 A 
HETATM   23  C   UNL     1      35.794  52.384  43.950  1.00  0.00     0.076 C 
HETATM   24  C   UNL     1      36.036  50.555  42.091  1.00  0.00     0.035 A 
HETATM   25  C   UNL     1      35.228  50.280  40.961  1.00  0.00     0.042 A 
ENDBRANCH  15  20
ENDBRANCH   1  14
TORSDOF 2
ENDMDL
MODEL 8
REMARK VINA RESULT:      -7.6      3.008      7.345
REMARK  2 active torsions:
REMARK  status: ('A' for Active; 'I' for Inactive)
REMARK    1  A    between atoms: C_4  and  C_5 
REMARK    2  A    between atoms: C_10  and  C_11 
ROOT
HETATM    1  C   UNL     1      26.984  44.485  51.249  1.00  0.00     0.202 C 
HETATM    2  N   UNL     1      26.497  43.560  50.240  1.00  0.00    -0.331 N 
HETATM    3  C   UNL     1      27.041  42.216  50.234  1.00  0.00     0.155 C 
HETATM    4  C   UNL     1      25.326  43.820  49.545  1.00  0.00     0.256 C 
HETATM    5  O   UNL     1      24.703  42.969  48.913  1.00  0.00    -0.267 OA
HETATM    6  C   UNL     1      24.833  45.214  49.584  1.00  0.00     0.053 A 
HETATM    7  C   UNL     1      25.632  46.181  50.204  1.00  0.00     0.026 A 
HETATM    8  N   UNL     1      26.886  45.844  50.731  1.00  0.00    -0.266 NA
HETATM    9  C   UNL     1      23.612  45.555  48.988  1.00  0.00     0.019 A 
HETATM   10  C   UNL     1      23.192  46.884  48.987  1.00  0.00     0.001 A 
HETATM   11  C   UNL     1      24.000  47.864  49.562  1.00  0.00     0.002 A 
HETATM   12  C   UNL     1      25.221  47.517  50.151  1.00  0.00     0.024 A 
HETATM   13  H   UNL     1      27.217  46.517  51.418  1.00  0.00     0.130 HD
ENDROOT
BRANCH   1  14
HETATM   14  C   UNL     1      26.323  44.242  52.581  1.00  0.00     0.029 A 
HETATM   15  C   UNL     1      26.955  43.801  53.780  1.00  0.00     0.121 A 
HETATM   16  N   UNL     1      26.088  43.686  54.796  1.00  0.00    -0.172 NA
HETATM   17  N   UNL     1      24.916  44.065  54.269  1.00  0.00    -0.288 N 
HETATM   18  H   UNL     1      24.095  44.068  54.866  1.00  0.00     0.188 HD
HETATM   19  C   UNL     1      25.000  44.406  52.955  1.00  0.00     0.122 A 
BRANCH  15  20
HETATM   20  C   UNL     1      28.408  43.493  53.955  1.00  0.00     0.106 A 
HETATM   21  O   UNL     1      29.116  43.689  55.109  1.00  0.00    -0.313 OA
HETATM   22  C   UNL     1      30.402  43.309  54.873  1.00  0.00     0.050 A 
HETATM   23  C   UNL     1      31.355  43.459  55.992  1.00  0.00     0.076 C 
HETATM   24  C   UNL     1      30.531  42.853  53.580  1.00  0.00     0.035 A 
HETATM   25  C   UNL     1      29.249  42.969  52.990  1.00  0.00     0.042 A 
ENDBRANCH  15  20
ENDBRANCH   1  14
TORSDOF 2
ENDMDL
MODEL 9
REMARK VINA RESULT:      -7.5     18.255     19.949
REMARK  2 active torsions:
REMARK  status: ('A' for Active; 'I' for Inactive)
REMARK    1  A    between atoms: C_4  and  C_5 
REMARK    2  A    between atoms: C_10  and  C_11 
ROOT
HETATM    1  C   UNL     1      38.627  43.860  64.038  1.00  0.00     0.202 C 
HETATM    2  N   UNL     1      39.647  43.762  65.067  1.00  0.00    -0.331 N 
HETATM    3  C   UNL     1      39.849  44.907  65.933  1.00  0.00     0.155 C 
HETATM    4  C   UNL     1      40.159  42.530  65.444  1.00  0.00     0.256 C 
HETATM    5  O   UNL     1      40.782  42.338  66.485  1.00  0.00    -0.267 OA
HETATM    6  C   UNL     1      39.926  41.407  64.509  1.00  0.00     0.053 A 
HETATM    7  C   UNL     1      39.326  41.686  63.277  1.00  0.00     0.026 A 
HETATM    8  N   UNL     1      38.997  43.002  62.920  1.00  0.00    -0.266 NA
HETATM    9  C   UNL     1      40.326  40.107  64.844  1.00  0.00     0.019 A 
HETATM   10  C   UNL     1      40.148  39.073  63.926  1.00  0.00     0.001 A 
HETATM   11  C   UNL     1      39.592  39.346  62.678  1.00  0.00     0.002 A 
HETATM   12  C   UNL     1      39.200  40.648  62.348  1.00  0.00     0.024 A 
HETATM   13  H   UNL     1      38.299  43.046  62.183  1.00  0.00     0.130 HD
ENDROOT
BRANCH   1  14
HETATM   14  C   UNL     1      37.250  43.638  64.608  1.00  0.00     0.029 A 
HETATM   15  C   UNL     1      36.355  44.635  65.095  1.00  0.00     0.121 A 
HETATM   16  N   UNL     1      35.202  44.110  65.532  1.00  0.00    -0.172 NA
HETATM   17  N   UNL     1      35.339  42.795  65.312  1.00  0.00    -0.288 N 
HETATM   18  H   UNL     1      34.570  42.181  65.562  1.00  0.00     0.188 HD
HETATM   19  C   UNL     1      36.537  42.460  64.764  1.00  0.00     0.122 A 
BRANCH  15  20
HETATM   20  C   UNL     1      36.608  46.108  65.137  1.00  0.00     0.106 A 
HETATM   21  O   UNL     1      36.770  46.842  66.280  1.00  0.00    -0.313 OA
HETATM   22  C   UNL     1      36.962  48.139  65.914  1.00  0.00     0.050 A 
HETATM   23  C   UNL     1      37.139  49.119  67.005  1.00  0.00     0.076 C 
HETATM   24  C   UNL     1      36.942  48.251  64.541  1.00  0.00     0.035 A 
HETATM   25  C   UNL     1      36.717  46.945  64.042  1.00  0.00     0.042 A 
ENDBRANCH  15  20
ENDBRANCH   1  14
TORSDOF 2
ENDMDL
MODEL 10
REMARK VINA RESULT:      -7.4      2.283      2.667
REMARK  2 active torsions:
REMARK  status: ('A' for Active; 'I' for Inactive)
REMARK    1  A    between atoms: C_4  and  C_5 
REMARK    2  A    between atoms: C_10  and  C_11 
ROOT
HETATM    1  C   UNL     1      24.208  45.127  50.637  1.00  0.00     0.202 C 
HETATM    2  N   UNL     1      24.771  44.002  49.910  1.00  0.00    -0.331 N 
HETATM    3  C   UNL     1      24.433  43.863  48.507  1.00  0.00     0.155 C 
HETATM    4  C   UNL     1      25.852  43.298  50.419  1.00  0.00     0.256 C 
HETATM    5  O   UNL     1      26.559  42.551  49.747  1.00  0.00    -0.267 OA
HETATM    6  C   UNL     1      26.135  43.478  51.860  1.00  0.00     0.053 A 
HETATM    7  C   UNL     1      25.236  44.233  52.621  1.00  0.00     0.026 A 
HETATM    8  N   UNL     1      24.076  44.765  52.042  1.00  0.00    -0.266 NA
HETATM    9  C   UNL     1      27.258  42.881  52.446  1.00  0.00     0.019 A 
HETATM   10  C   UNL     1      27.476  43.016  53.815  1.00  0.00     0.001 A 
HETATM   11  C   UNL     1      26.565  43.729  54.593  1.00  0.00     0.002 A 
HETATM   12  C   UNL     1      25.441  44.318  54.002  1.00  0.00     0.024 A 
HETATM   13  H   UNL     1      23.686  45.535  52.579  1.00  0.00     0.130 HD
ENDROOT
BRANCH   1  14
HETATM   14  C   UNL     1      24.967  46.398  50.355  1.00  0.00     0.029 A 
HETATM   15  C   UNL     1      24.481  47.550  49.673  1.00  0.00     0.121 A 
HETATM   16  N   UNL     1      25.406  48.517  49.591  1.00  0.00    -0.172 NA
HETATM   17  N   UNL     1      26.469  48.006  50.227  1.00  0.00    -0.288 N 
HETATM   18  H   UNL     1      27.307  48.575  50.302  1.00  0.00     0.188 HD
HETATM   19  C   UNL     1      26.261  46.749  50.702  1.00  0.00     0.122 A 
BRANCH  15  20
HETATM   20  C   UNL     1      23.112  47.728  49.098  1.00  0.00     0.106 A 
HETATM   21  O   UNL     1      22.409  46.758  48.438  1.00  0.00    -0.313 OA
HETATM   22  C   UNL     1      21.221  47.301  48.053  1.00  0.00     0.050 A 
HETATM   23  C   UNL     1      20.304  46.423  47.296  1.00  0.00     0.076 C 
HETATM   24  C   UNL     1      21.141  48.610  48.472  1.00  0.00     0.035 A 
HETATM   25  C   UNL     1      22.355  48.884  49.146  1.00  0.00     0.042 A 
ENDBRANCH  15  20
ENDBRANCH   1  14
TORSDOF 2
ENDMDL
