MODEL 1
REMARK VINA RESULT:      -8.5      0.000      0.000
REMARK  7 active torsions:
REMARK  status: ('A' for Active; 'I' for Inactive)
REMARK    1  A    between atoms: C_2  and  O_3 
REMARK    2  A    between atoms: O_3  and  C_4 
REMARK       I    between atoms: C_4  and  N_5 
REMARK    3  A    between atoms: C_8  and  N_9 
REMARK    4  A    between atoms: C_18  and  C_19 
REMARK    5  A    between atoms: C_19  and  N_20 
REMARK    6  A    between atoms: C_22  and  C_23 
REMARK    7  A    between atoms: C_23  and  O_24 
ROOT
HETATM    1  N   UNL     1      25.448  45.399  52.248  1.00  0.00    -0.061 N 
HETATM    2  H   UNL     1      24.480  45.735  52.156  1.00  0.00     0.280 HD
HETATM    3  C   UNL     1      25.308  43.891  52.501  1.00  0.00     0.276 C 
HETATM    4  C   UNL     1      26.605  43.125  52.521  1.00  0.00     0.002 A 
HETATM    5  C   UNL     1      27.556  43.395  53.504  1.00  0.00     0.076 A 
HETATM    6  O   UNL     1      27.331  44.330  54.473  1.00  0.00    -0.349 OA
HETATM    7  C   UNL     1      27.353  45.660  53.936  1.00  0.00     0.203 C 
HETATM    8  C   UNL     1      25.950  46.099  53.520  1.00  0.00     0.262 C 
HETATM    9  C   UNL     1      26.898  42.129  51.566  1.00  0.00     0.020 A 
HETATM   10  C   UNL     1      28.125  41.425  51.572  1.00  0.00    -0.032 A 
HETATM   11  C   UNL     1      29.048  41.736  52.581  1.00  0.00     0.011 A 
HETATM   12  C   UNL     1      28.753  42.690  53.557  1.00  0.00     0.038 A 
ENDROOT
BRANCH   1  13
HETATM   13  C   UNL     1      26.174  45.760  50.939  1.00  0.00     0.191 C 
HETATM   14  C   UNL     1      25.532  45.064  49.732  1.00  0.00     0.053 C 
HETATM   15  C   UNL     1      24.131  45.584  49.443  1.00  0.00     0.130 C 
HETATM   16  N   UNL     1      24.078  47.035  49.367  1.00  0.00    -0.328 N 
HETATM   17  C   UNL     1      22.961  47.574  48.718  1.00  0.00     0.362 C 
HETATM   18  C   UNL     1      24.807  47.830  50.349  1.00  0.00     0.130 C 
HETATM   19  O   UNL     1      22.121  46.881  48.159  1.00  0.00    -0.238 OA
HETATM   20  C   UNL     1      26.188  47.267  50.654  1.00  0.00     0.053 C 
BRANCH  17  21
HETATM   21  O   UNL     1      22.914  48.928  48.799  1.00  0.00    -0.304 OA
BRANCH  21  22
HETATM   22  C   UNL     1      21.605  49.507  48.940  1.00  0.00     0.176 C 
HETATM   23  C   UNL     1      21.625  50.992  48.621  1.00  0.00     0.034 C 
ENDBRANCH  21  22
ENDBRANCH  17  21
ENDBRANCH   1  13
BRANCH  10  24
HETATM   24  C   UNL     1      28.474  40.488  50.433  1.00  0.00     0.274 C 
BRANCH  24  25
HETATM   25  N   UNL     1      27.791  39.144  50.282  1.00  0.00    -0.054 N 
HETATM   26  H   UNL     1      27.447  38.948  51.232  1.00  0.00     0.281 HD
HETATM   27  C   UNL     1      28.605  37.898  49.885  1.00  0.00     0.287 C 
HETATM   28  C   UNL     1      28.465  37.874  48.379  1.00  0.00     0.045 C 
HETATM   29  C   UNL     1      27.039  38.350  48.126  1.00  0.00     0.030 C 
HETATM   30  C   UNL     1      26.591  39.107  49.370  1.00  0.00     0.236 C 
BRANCH  27  31
HETATM   31  C   UNL     1      30.035  37.765  50.400  1.00  0.00     0.289 C 
HETATM   32  O   UNL     1      31.034  38.103  49.782  1.00  0.00    -0.263 OA
BRANCH  31  33
HETATM   33  O   UNL     1      30.013  37.272  51.667  1.00  0.00    -0.325 OA
HETATM   34  C   UNL     1      29.794  35.861  51.785  1.00  0.00     0.213 C 
ENDBRANCH  31  33
ENDBRANCH  27  31
ENDBRANCH  24  25
ENDBRANCH  10  24
TORSDOF 7
ENDMDL
MODEL 2
REMARK VINA RESULT:      -7.9      2.601      6.121
REMARK  7 active torsions:
REMARK  status: ('A' for Active; 'I' for Inactive)
REMARK    1  A    between atoms: C_2  and  O_3 
REMARK    2  A    between atoms: O_3  and  C_4 
REMARK       I    between atoms: C_4  and  N_5 
REMARK    3  A    between atoms: C_8  and  N_9 
REMARK    4  A    between atoms: C_18  and  C_19 
REMARK    5  A    between atoms: C_19  and  N_20 
REMARK    6  A    between atoms: C_22  and  C_23 
REMARK    7  A    between atoms: C_23  and  O_24 
ROOT
HETATM    1  N   UNL     1      26.866  45.390  51.574  1.00  0.00    -0.061 N 
HETATM    2  H   UNL     1      27.747  45.791  51.922  1.00  0.00     0.280 HD
HETATM    3  C   UNL     1      27.227  44.806  50.201  1.00  0.00     0.276 C 
HETATM    4  C   UNL     1      26.131  44.015  49.536  1.00  0.00     0.002 A 
HETATM    5  C   UNL     1      24.944  44.648  49.167  1.00  0.00     0.076 A 
HETATM    6  O   UNL     1      24.757  45.984  49.374  1.00  0.00    -0.349 OA
HETATM    7  C   UNL     1      24.607  46.285  50.769  1.00  0.00     0.203 C 
HETATM    8  C   UNL     1      25.959  46.618  51.398  1.00  0.00     0.262 C 
HETATM    9  C   UNL     1      26.262  42.636  49.270  1.00  0.00     0.020 A 
HETATM   10  C   UNL     1      25.223  41.890  48.665  1.00  0.00    -0.032 A 
HETATM   11  C   UNL     1      24.050  42.573  48.316  1.00  0.00     0.011 A 
HETATM   12  C   UNL     1      23.923  43.946  48.535  1.00  0.00     0.038 A 
ENDROOT
BRANCH   1  13
HETATM   13  C   UNL     1      26.408  44.347  52.610  1.00  0.00     0.191 C 
HETATM   14  C   UNL     1      27.464  43.251  52.804  1.00  0.00     0.053 C 
HETATM   15  C   UNL     1      28.730  43.779  53.461  1.00  0.00     0.130 C 
HETATM   16  N   UNL     1      28.458  44.538  54.670  1.00  0.00    -0.328 N 
HETATM   17  C   UNL     1      29.539  44.707  55.544  1.00  0.00     0.362 C 
HETATM   18  C   UNL     1      27.351  45.488  54.685  1.00  0.00     0.130 C 
HETATM   19  O   UNL     1      30.626  44.175  55.364  1.00  0.00    -0.238 OA
HETATM   20  C   UNL     1      26.109  44.955  53.985  1.00  0.00     0.053 C 
BRANCH  17  21
HETATM   21  O   UNL     1      29.246  45.531  56.582  1.00  0.00    -0.304 OA
BRANCH  21  22
HETATM   22  C   UNL     1      30.369  46.014  57.341  1.00  0.00     0.176 C 
HETATM   23  C   UNL     1      30.542  45.222  58.626  1.00  0.00     0.034 C 
ENDBRANCH  21  22
ENDBRANCH  17  21
ENDBRANCH   1  13
BRANCH  10  24
HETATM   24  C   UNL     1      25.332  40.382  48.552  1.00  0.00     0.274 C 
BRANCH  24  25
HETATM   25  N   UNL     1      26.185  39.733  47.481  1.00  0.00    -0.054 N 
HETATM   26  H   UNL     1      25.580  38.982  47.123  1.00  0.00     0.281 HD
HETATM   27  C   UNL     1      27.509  39.039  47.855  1.00  0.00     0.287 C 
HETATM   28  C   UNL     1      28.528  40.142  47.667  1.00  0.00     0.045 C 
HETATM   29  C   UNL     1      28.027  40.915  46.453  1.00  0.00     0.030 C 
HETATM   30  C   UNL     1      26.543  40.600  46.301  1.00  0.00     0.236 C 
BRANCH  27  31
HETATM   31  C   UNL     1      27.596  38.303  49.188  1.00  0.00     0.289 C 
HETATM   32  O   UNL     1      26.936  37.317  49.486  1.00  0.00    -0.263 OA
BRANCH  31  33
HETATM   33  O   UNL     1      28.558  38.876  49.957  1.00  0.00    -0.325 OA
HETATM   34  C   UNL     1      29.549  37.986  50.486  1.00  0.00     0.213 C 
ENDBRANCH  31  33
ENDBRANCH  27  31
ENDBRANCH  24  25
ENDBRANCH  10  24
TORSDOF 7
ENDMDL
MODEL 3
REMARK VINA RESULT:      -7.5     11.721     13.816
REMARK  7 active torsions:
REMARK  status: ('A' for Active; 'I' for Inactive)
REMARK    1  A    between atoms: C_2  and  O_3 
REMARK    2  A    between atoms: O_3  and  C_4 
REMARK       I    between atoms: C_4  and  N_5 
REMARK    3  A    between atoms: C_8  and  N_9 
REMARK    4  A    between atoms: C_18  and  C_19 
REMARK    5  A    between atoms: C_19  and  N_20 
REMARK    6  A    between atoms: C_22  and  C_23 
REMARK    7  A    between atoms: C_23  and  O_24 
ROOT
HETATM    1  N   UNL     1      26.860  47.224  38.858  1.00  0.00    -0.061 N 
HETATM    2  H   UNL     1      26.087  47.143  38.185  1.00  0.00     0.280 HD
HETATM    3  C   UNL     1      28.092  47.526  37.994  1.00  0.00     0.276 C 
HETATM    4  C   UNL     1      29.348  47.844  38.763  1.00  0.00     0.002 A 
HETATM    5  C   UNL     1      29.925  46.875  39.583  1.00  0.00     0.076 A 
HETATM    6  O   UNL     1      29.388  45.625  39.691  1.00  0.00    -0.349 OA
HETATM    7  C   UNL     1      28.146  45.646  40.409  1.00  0.00     0.203 C 
HETATM    8  C   UNL     1      26.968  45.810  39.449  1.00  0.00     0.262 C 
HETATM    9  C   UNL     1      29.971  49.108  38.683  1.00  0.00     0.020 A 
HETATM   10  C   UNL     1      31.139  49.413  39.423  1.00  0.00    -0.032 A 
HETATM   11  C   UNL     1      31.677  48.404  40.234  1.00  0.00     0.011 A 
HETATM   12  C   UNL     1      31.093  47.136  40.289  1.00  0.00     0.038 A 
ENDROOT
BRANCH   1  13
HETATM   13  C   UNL     1      26.481  48.346  39.842  1.00  0.00     0.191 C 
HETATM   14  C   UNL     1      26.149  49.650  39.104  1.00  0.00     0.053 C 
HETATM   15  C   UNL     1      24.873  49.538  38.282  1.00  0.00     0.130 C 
HETATM   16  N   UNL     1      23.758  49.010  39.049  1.00  0.00    -0.328 N 
HETATM   17  C   UNL     1      22.483  49.251  38.523  1.00  0.00     0.362 C 
HETATM   18  C   UNL     1      23.977  47.881  39.946  1.00  0.00     0.130 C 
HETATM   19  O   UNL     1      22.296  49.942  37.530  1.00  0.00    -0.238 OA
HETATM   20  C   UNL     1      25.279  47.992  40.726  1.00  0.00     0.053 C 
BRANCH  17  21
HETATM   21  O   UNL     1      21.504  48.620  39.219  1.00  0.00    -0.304 OA
BRANCH  21  22
HETATM   22  C   UNL     1      20.431  49.453  39.695  1.00  0.00     0.176 C 
HETATM   23  C   UNL     1      20.923  50.435  40.743  1.00  0.00     0.034 C 
ENDBRANCH  21  22
ENDBRANCH  17  21
ENDBRANCH   1  13
BRANCH  10  24
HETATM   24  C   UNL     1      31.679  50.828  39.445  1.00  0.00     0.274 C 
BRANCH  24  25
HETATM   25  N   UNL     1      30.943  51.940  40.165  1.00  0.00    -0.054 N 
HETATM   26  H   UNL     1      31.563  52.752  40.040  1.00  0.00     0.281 HD
HETATM   27  C   UNL     1      30.694  51.854  41.683  1.00  0.00     0.287 C 
HETATM   28  C   UNL     1      29.325  51.215  41.761  1.00  0.00     0.045 C 
HETATM   29  C   UNL     1      28.564  51.808  40.581  1.00  0.00     0.030 C 
HETATM   30  C   UNL     1      29.602  52.328  39.593  1.00  0.00     0.236 C 
BRANCH  27  31
HETATM   31  C   UNL     1      31.759  51.204  42.561  1.00  0.00     0.289 C 
HETATM   32  O   UNL     1      31.624  50.141  43.151  1.00  0.00    -0.263 OA
BRANCH  31  33
HETATM   33  O   UNL     1      32.889  51.958  42.532  1.00  0.00    -0.325 OA
HETATM   34  C   UNL     1      34.119  51.237  42.390  1.00  0.00     0.213 C 
ENDBRANCH  31  33
ENDBRANCH  27  31
ENDBRANCH  24  25
ENDBRANCH  10  24
TORSDOF 7
ENDMDL
MODEL 4
REMARK VINA RESULT:      -7.3     12.035     14.090
REMARK  7 active torsions:
REMARK  status: ('A' for Active; 'I' for Inactive)
REMARK    1  A    between atoms: C_2  and  O_3 
REMARK    2  A    between atoms: O_3  and  C_4 
REMARK       I    between atoms: C_4  and  N_5 
REMARK    3  A    between atoms: C_8  and  N_9 
REMARK    4  A    between atoms: C_18  and  C_19 
REMARK    5  A    between atoms: C_19  and  N_20 
REMARK    6  A    between atoms: C_22  and  C_23 
REMARK    7  A    between atoms: C_23  and  O_24 
ROOT
HETATM    1  N   UNL     1      30.568  50.921  39.674  1.00  0.00    -0.061 N 
HETATM    2  H   UNL     1      31.569  51.012  39.455  1.00  0.00     0.280 HD
HETATM    3  C   UNL     1      30.040  49.912  38.645  1.00  0.00     0.276 C 
HETATM    4  C   UNL     1      28.610  49.484  38.847  1.00  0.00     0.002 A 
HETATM    5  C   UNL     1      27.583  50.421  38.739  1.00  0.00     0.076 A 
HETATM    6  O   UNL     1      27.840  51.725  38.430  1.00  0.00    -0.349 OA
HETATM    7  C   UNL     1      28.490  52.405  39.513  1.00  0.00     0.203 C 
HETATM    8  C   UNL     1      30.009  52.320  39.371  1.00  0.00     0.262 C 
HETATM    9  C   UNL     1      28.266  48.149  39.149  1.00  0.00     0.020 A 
HETATM   10  C   UNL     1      26.924  47.752  39.360  1.00  0.00    -0.032 A 
HETATM   11  C   UNL     1      25.930  48.734  39.243  1.00  0.00     0.011 A 
HETATM   12  C   UNL     1      26.253  50.049  38.904  1.00  0.00     0.038 A 
ENDROOT
BRANCH   1  13
HETATM   13  C   UNL     1      30.471  50.449  41.136  1.00  0.00     0.191 C 
HETATM   14  C   UNL     1      31.354  49.221  41.389  1.00  0.00     0.053 C 
HETATM   15  C   UNL     1      32.837  49.546  41.285  1.00  0.00     0.130 C 
HETATM   16  N   UNL     1      33.215  50.701  42.082  1.00  0.00    -0.328 N 
HETATM   17  C   UNL     1      34.578  50.826  42.374  1.00  0.00     0.362 C 
HETATM   18  C   UNL     1      32.356  51.880  42.085  1.00  0.00     0.130 C 
HETATM   19  O   UNL     1      35.402  49.974  42.066  1.00  0.00    -0.238 OA
HETATM   20  C   UNL     1      30.875  51.530  42.146  1.00  0.00     0.053 C 
BRANCH  17  21
HETATM   21  O   UNL     1      34.871  51.990  43.007  1.00  0.00    -0.304 OA
BRANCH  21  22
HETATM   22  C   UNL     1      36.268  52.323  43.102  1.00  0.00     0.176 C 
HETATM   23  C   UNL     1      36.544  53.184  44.322  1.00  0.00     0.034 C 
ENDBRANCH  21  22
ENDBRANCH  17  21
ENDBRANCH   1  13
BRANCH  10  24
HETATM   24  C   UNL     1      26.611  46.353  39.849  1.00  0.00     0.274 C 
BRANCH  24  25
HETATM   25  N   UNL     1      26.403  45.208  38.878  1.00  0.00    -0.054 N 
HETATM   26  H   UNL     1      25.915  44.503  39.448  1.00  0.00     0.281 HD
HETATM   27  C   UNL     1      27.613  44.471  38.274  1.00  0.00     0.287 C 
HETATM   28  C   UNL     1      27.845  45.218  36.979  1.00  0.00     0.045 C 
HETATM   29  C   UNL     1      26.446  45.565  36.487  1.00  0.00     0.030 C 
HETATM   30  C   UNL     1      25.516  45.496  37.693  1.00  0.00     0.236 C 
BRANCH  27  31
HETATM   31  C   UNL     1      28.855  44.276  39.137  1.00  0.00     0.289 C 
HETATM   32  O   UNL     1      29.799  45.053  39.188  1.00  0.00    -0.263 OA
BRANCH  31  33
HETATM   33  O   UNL     1      28.717  43.145  39.878  1.00  0.00    -0.325 OA
HETATM   34  C   UNL     1      28.440  41.947  39.143  1.00  0.00     0.213 C 
ENDBRANCH  31  33
ENDBRANCH  27  31
ENDBRANCH  24  25
ENDBRANCH  10  24
TORSDOF 7
ENDMDL
MODEL 5
REMARK VINA RESULT:      -7.3     12.917     15.796
REMARK  7 active torsions:
REMARK  status: ('A' for Active; 'I' for Inactive)
REMARK    1  A    between atoms: C_2  and  O_3 
REMARK    2  A    between atoms: O_3  and  C_4 
REMARK       I    between atoms: C_4  and  N_5 
REMARK    3  A    between atoms: C_8  and  N_9 
REMARK    4  A    between atoms: C_18  and  C_19 
REMARK    5  A    between atoms: C_19  and  N_20 
REMARK    6  A    between atoms: C_22  and  C_23 
REMARK    7  A    between atoms: C_23  and  O_24 
ROOT
HETATM    1  N   UNL     1      28.861  49.025  40.939  1.00  0.00    -0.061 N 
HETATM    2  H   UNL     1      28.728  48.071  41.301  1.00  0.00     0.280 HD
HETATM    3  C   UNL     1      30.056  49.573  41.732  1.00  0.00     0.276 C 
HETATM    4  C   UNL     1      30.558  50.919  41.280  1.00  0.00     0.002 A 
HETATM    5  C   UNL     1      29.733  52.038  41.382  1.00  0.00     0.076 A 
HETATM    6  O   UNL     1      28.477  51.949  41.907  1.00  0.00    -0.349 OA
HETATM    7  C   UNL     1      27.588  51.243  41.031  1.00  0.00     0.203 C 
HETATM    8  C   UNL     1      27.575  49.751  41.361  1.00  0.00     0.262 C 
HETATM    9  C   UNL     1      31.853  51.091  40.747  1.00  0.00     0.020 A 
HETATM   10  C   UNL     1      32.317  52.353  40.302  1.00  0.00    -0.032 A 
HETATM   11  C   UNL     1      31.447  53.445  40.425  1.00  0.00     0.011 A 
HETATM   12  C   UNL     1      30.178  53.296  40.989  1.00  0.00     0.038 A 
ENDROOT
BRANCH   1  13
HETATM   13  C   UNL     1      29.107  48.898  39.424  1.00  0.00     0.191 C 
HETATM   14  C   UNL     1      30.284  47.961  39.124  1.00  0.00     0.053 C 
HETATM   15  C   UNL     1      29.979  46.516  39.492  1.00  0.00     0.130 C 
HETATM   16  N   UNL     1      28.717  46.052  38.941  1.00  0.00    -0.328 N 
HETATM   17  C   UNL     1      28.550  44.664  38.875  1.00  0.00     0.362 C 
HETATM   18  C   UNL     1      27.551  46.926  38.988  1.00  0.00     0.130 C 
HETATM   19  O   UNL     1      29.439  43.875  39.170  1.00  0.00    -0.238 OA
HETATM   20  C   UNL     1      27.886  48.374  38.658  1.00  0.00     0.053 C 
BRANCH  17  21
HETATM   21  O   UNL     1      27.304  44.306  38.473  1.00  0.00    -0.304 OA
BRANCH  21  22
HETATM   22  C   UNL     1      26.691  43.228  39.200  1.00  0.00     0.176 C 
HETATM   23  C   UNL     1      25.988  43.737  40.446  1.00  0.00     0.034 C 
ENDBRANCH  21  22
ENDBRANCH  17  21
ENDBRANCH   1  13
BRANCH  10  24
HETATM   24  C   UNL     1      33.644  52.466  39.579  1.00  0.00     0.274 C 
BRANCH  24  25
HETATM   25  N   UNL     1      34.958  52.375  40.328  1.00  0.00    -0.054 N 
HETATM   26  H   UNL     1      34.723  52.747  41.259  1.00  0.00     0.281 HD
HETATM   27  C   UNL     1      36.177  53.194  39.863  1.00  0.00     0.287 C 
HETATM   28  C   UNL     1      36.900  52.226  38.951  1.00  0.00     0.045 C 
HETATM   29  C   UNL     1      36.709  50.868  39.615  1.00  0.00     0.030 C 
HETATM   30  C   UNL     1      35.505  50.986  40.542  1.00  0.00     0.236 C 
BRANCH  27  31
HETATM   31  C   UNL     1      35.944  54.581  39.275  1.00  0.00     0.289 C 
HETATM   32  O   UNL     1      35.626  55.570  39.921  1.00  0.00    -0.263 OA
BRANCH  31  33
HETATM   33  O   UNL     1      36.202  54.554  37.941  1.00  0.00    -0.325 OA
HETATM   34  C   UNL     1      36.920  55.679  37.420  1.00  0.00     0.213 C 
ENDBRANCH  31  33
ENDBRANCH  27  31
ENDBRANCH  24  25
ENDBRANCH  10  24
TORSDOF 7
ENDMDL
MODEL 6
REMARK VINA RESULT:      -7.3     11.563     14.300
REMARK  7 active torsions:
REMARK  status: ('A' for Active; 'I' for Inactive)
REMARK    1  A    between atoms: C_2  and  O_3 
REMARK    2  A    between atoms: O_3  and  C_4 
REMARK       I    between atoms: C_4  and  N_5 
REMARK    3  A    between atoms: C_8  and  N_9 
REMARK    4  A    between atoms: C_18  and  C_19 
REMARK    5  A    between atoms: C_19  and  N_20 
REMARK    6  A    between atoms: C_22  and  C_23 
REMARK    7  A    between atoms: C_23  and  O_24 
ROOT
HETATM    1  N   UNL     1      27.488  49.928  39.706  1.00  0.00    -0.061 N 
HETATM    2  H   UNL     1      26.618  49.394  39.837  1.00  0.00     0.280 HD
HETATM    3  C   UNL     1      27.563  50.847  40.934  1.00  0.00     0.276 C 
HETATM    4  C   UNL     1      28.840  51.636  41.063  1.00  0.00     0.002 A 
HETATM    5  C   UNL     1      29.170  52.585  40.096  1.00  0.00     0.076 A 
HETATM    6  O   UNL     1      28.347  52.835  39.036  1.00  0.00    -0.349 OA
HETATM    7  C   UNL     1      28.334  51.740  38.109  1.00  0.00     0.203 C 
HETATM    8  C   UNL     1      27.210  50.760  38.446  1.00  0.00     0.262 C 
HETATM    9  C   UNL     1      29.728  51.447  42.142  1.00  0.00     0.020 A 
HETATM   10  C   UNL     1      30.938  52.174  42.251  1.00  0.00    -0.032 A 
HETATM   11  C   UNL     1      31.223  53.114  41.250  1.00  0.00     0.011 A 
HETATM   12  C   UNL     1      30.333  53.340  40.199  1.00  0.00     0.038 A 
ENDROOT
BRANCH   1  13
HETATM   13  C   UNL     1      28.632  48.902  39.608  1.00  0.00     0.191 C 
HETATM   14  C   UNL     1      28.727  48.045  40.876  1.00  0.00     0.053 C 
HETATM   15  C   UNL     1      27.525  47.127  41.043  1.00  0.00     0.130 C 
HETATM   16  N   UNL     1      27.240  46.354  39.846  1.00  0.00    -0.328 N 
HETATM   17  C   UNL     1      26.442  45.219  40.024  1.00  0.00     0.362 C 
HETATM   18  C   UNL     1      27.302  47.006  38.543  1.00  0.00     0.130 C 
HETATM   19  O   UNL     1      26.078  44.831  41.127  1.00  0.00    -0.238 OA
HETATM   20  C   UNL     1      28.488  47.952  38.412  1.00  0.00     0.053 C 
BRANCH  17  21
HETATM   21  O   UNL     1      26.112  44.623  38.850  1.00  0.00    -0.304 OA
BRANCH  21  22
HETATM   22  C   UNL     1      24.724  44.281  38.684  1.00  0.00     0.176 C 
HETATM   23  C   UNL     1      23.866  45.527  38.544  1.00  0.00     0.034 C 
ENDBRANCH  21  22
ENDBRANCH  17  21
ENDBRANCH   1  13
BRANCH  10  24
HETATM   24  C   UNL     1      31.945  51.823  43.327  1.00  0.00     0.274 C 
BRANCH  24  25
HETATM   25  N   UNL     1      32.789  50.567  43.235  1.00  0.00    -0.054 N 
HETATM   26  H   UNL     1      33.109  50.428  44.203  1.00  0.00     0.281 HD
HETATM   27  C   UNL     1      34.071  50.552  42.381  1.00  0.00     0.287 C 
HETATM   28  C   UNL     1      33.577  50.036  41.047  1.00  0.00     0.045 C 
HETATM   29  C   UNL     1      32.519  49.002  41.411  1.00  0.00     0.030 C 
HETATM   30  C   UNL     1      32.064  49.307  42.833  1.00  0.00     0.236 C 
BRANCH  27  31
HETATM   31  C   UNL     1      34.915  51.821  42.309  1.00  0.00     0.289 C 
HETATM   32  O   UNL     1      35.511  52.318  43.253  1.00  0.00    -0.263 OA
BRANCH  31  33
HETATM   33  O   UNL     1      34.944  52.269  41.026  1.00  0.00    -0.325 OA
HETATM   34  C   UNL     1      36.234  52.637  40.521  1.00  0.00     0.213 C 
ENDBRANCH  31  33
ENDBRANCH  27  31
ENDBRANCH  24  25
ENDBRANCH  10  24
TORSDOF 7
ENDMDL
MODEL 7
REMARK VINA RESULT:      -7.2     13.946     16.605
REMARK  7 active torsions:
REMARK  status: ('A' for Active; 'I' for Inactive)
REMARK    1  A    between atoms: C_2  and  O_3 
REMARK    2  A    between atoms: O_3  and  C_4 
REMARK       I    between atoms: C_4  and  N_5 
REMARK    3  A    between atoms: C_8  and  N_9 
REMARK    4  A    between atoms: C_18  and  C_19 
REMARK    5  A    between atoms: C_19  and  N_20 
REMARK    6  A    between atoms: C_22  and  C_23 
REMARK    7  A    between atoms: C_23  and  O_24 
ROOT
HETATM    1  N   UNL     1      36.922  51.827  41.673  1.00  0.00    -0.061 N 
HETATM    2  H   UNL     1      37.663  51.311  42.166  1.00  0.00     0.280 HD
HETATM    3  C   UNL     1      35.750  50.838  41.599  1.00  0.00     0.276 C 
HETATM    4  C   UNL     1      34.468  51.408  41.051  1.00  0.00     0.002 A 
HETATM    5  C   UNL     1      34.417  51.862  39.734  1.00  0.00     0.076 A 
HETATM    6  O   UNL     1      35.504  51.781  38.912  1.00  0.00    -0.349 OA
HETATM    7  C   UNL     1      36.529  52.706  39.302  1.00  0.00     0.203 C 
HETATM    8  C   UNL     1      37.510  52.047  40.272  1.00  0.00     0.262 C 
HETATM    9  C   UNL     1      33.299  51.504  41.835  1.00  0.00     0.020 A 
HETATM   10  C   UNL     1      32.101  52.059  41.325  1.00  0.00    -0.032 A 
HETATM   11  C   UNL     1      32.104  52.503  39.995  1.00  0.00     0.011 A 
HETATM   12  C   UNL     1      33.242  52.376  39.196  1.00  0.00     0.038 A 
ENDROOT
BRANCH   1  13
HETATM   13  C   UNL     1      36.634  53.094  42.500  1.00  0.00     0.191 C 
HETATM   14  C   UNL     1      36.266  52.747  43.948  1.00  0.00     0.053 C 
HETATM   15  C   UNL     1      37.439  52.156  44.716  1.00  0.00     0.130 C 
HETATM   16  N   UNL     1      38.643  52.962  44.606  1.00  0.00    -0.328 N 
HETATM   17  C   UNL     1      39.624  52.735  45.578  1.00  0.00     0.362 C 
HETATM   18  C   UNL     1      39.013  53.521  43.311  1.00  0.00     0.130 C 
HETATM   19  O   UNL     1      39.455  51.978  46.525  1.00  0.00    -0.238 OA
HETATM   20  C   UNL     1      37.819  54.067  42.541  1.00  0.00     0.053 C 
BRANCH  17  21
HETATM   21  O   UNL     1      40.767  53.427  45.337  1.00  0.00    -0.304 OA
BRANCH  21  22
HETATM   22  C   UNL     1      41.165  54.363  46.354  1.00  0.00     0.176 C 
HETATM   23  C   UNL     1      40.564  55.734  46.103  1.00  0.00     0.034 C 
ENDBRANCH  21  22
ENDBRANCH  17  21
ENDBRANCH   1  13
BRANCH  10  24
HETATM   24  C   UNL     1      30.921  52.302  42.245  1.00  0.00     0.274 C 
BRANCH  24  25
HETATM   25  N   UNL     1      29.571  51.668  41.977  1.00  0.00    -0.054 N 
HETATM   26  H   UNL     1      29.153  51.600  42.915  1.00  0.00     0.281 HD
HETATM   27  C   UNL     1      29.482  50.246  41.393  1.00  0.00     0.287 C 
HETATM   28  C   UNL     1      29.395  50.502  39.904  1.00  0.00     0.045 C 
HETATM   29  C   UNL     1      28.549  51.764  39.787  1.00  0.00     0.030 C 
HETATM   30  C   UNL     1      28.614  52.474  41.135  1.00  0.00     0.236 C 
BRANCH  27  31
HETATM   31  C   UNL     1      30.530  49.218  41.809  1.00  0.00     0.289 C 
HETATM   32  O   UNL     1      30.729  48.850  42.958  1.00  0.00    -0.263 OA
BRANCH  31  33
HETATM   33  O   UNL     1      31.156  48.740  40.702  1.00  0.00    -0.325 OA
HETATM   34  C   UNL     1      32.344  47.974  40.937  1.00  0.00     0.213 C 
ENDBRANCH  31  33
ENDBRANCH  27  31
ENDBRANCH  24  25
ENDBRANCH  10  24
TORSDOF 7
ENDMDL
MODEL 8
REMARK VINA RESULT:      -7.2     17.491     19.423
REMARK  7 active torsions:
REMARK  status: ('A' for Active; 'I' for Inactive)
REMARK    1  A    between atoms: C_2  and  O_3 
REMARK    2  A    between atoms: O_3  and  C_4 
REMARK       I    between atoms: C_4  and  N_5 
REMARK    3  A    between atoms: C_8  and  N_9 
REMARK    4  A    between atoms: C_18  and  C_19 
REMARK    5  A    between atoms: C_19  and  N_20 
REMARK    6  A    between atoms: C_22  and  C_23 
REMARK    7  A    between atoms: C_23  and  O_24 
ROOT
HETATM    1  N   UNL     1      36.586  46.907  65.923  1.00  0.00    -0.061 N 
HETATM    2  H   UNL     1      36.422  47.906  65.736  1.00  0.00     0.280 HD
HETATM    3  C   UNL     1      36.143  46.199  64.635  1.00  0.00     0.276 C 
HETATM    4  C   UNL     1      36.426  44.720  64.591  1.00  0.00     0.002 A 
HETATM    5  C   UNL     1      35.803  43.866  65.501  1.00  0.00     0.076 A 
HETATM    6  O   UNL     1      34.918  44.338  66.426  1.00  0.00    -0.349 OA
HETATM    7  C   UNL     1      35.576  45.111  67.440  1.00  0.00     0.203 C 
HETATM    8  C   UNL     1      35.602  46.591  67.060  1.00  0.00     0.262 C 
HETATM    9  C   UNL     1      37.313  44.158  63.649  1.00  0.00     0.020 A 
HETATM   10  C   UNL     1      37.595  42.771  63.622  1.00  0.00    -0.032 A 
HETATM   11  C   UNL     1      36.945  41.958  64.561  1.00  0.00     0.011 A 
HETATM   12  C   UNL     1      36.033  42.495  65.471  1.00  0.00     0.038 A 
ENDROOT
BRANCH   1  13
HETATM   13  C   UNL     1      38.082  46.753  66.252  1.00  0.00     0.191 C 
HETATM   14  C   UNL     1      38.957  47.526  65.258  1.00  0.00     0.053 C 
HETATM   15  C   UNL     1      38.783  49.033  65.387  1.00  0.00     0.130 C 
HETATM   16  N   UNL     1      38.920  49.497  66.757  1.00  0.00    -0.328 N 
HETATM   17  C   UNL     1      39.182  50.862  66.919  1.00  0.00     0.362 C 
HETATM   18  C   UNL     1      38.292  48.741  67.834  1.00  0.00     0.130 C 
HETATM   19  O   UNL     1      39.382  51.615  65.974  1.00  0.00    -0.238 OA
HETATM   20  C   UNL     1      38.441  47.235  67.663  1.00  0.00     0.053 C 
BRANCH  17  21
HETATM   21  O   UNL     1      39.168  51.245  68.221  1.00  0.00    -0.304 OA
BRANCH  21  22
HETATM   22  C   UNL     1      38.446  52.454  68.516  1.00  0.00     0.176 C 
HETATM   23  C   UNL     1      37.090  52.148  69.125  1.00  0.00     0.034 C 
ENDBRANCH  21  22
ENDBRANCH  17  21
ENDBRANCH   1  13
BRANCH  10  24
HETATM   24  C   UNL     1      38.680  42.231  62.713  1.00  0.00     0.274 C 
BRANCH  24  25
HETATM   25  N   UNL     1      40.114  42.107  63.186  1.00  0.00    -0.054 N 
HETATM   26  H   UNL     1      40.632  41.913  62.318  1.00  0.00     0.281 HD
HETATM   27  C   UNL     1      40.519  40.982  64.157  1.00  0.00     0.287 C 
HETATM   28  C   UNL     1      40.377  41.643  65.511  1.00  0.00     0.045 C 
HETATM   29  C   UNL     1      40.835  43.078  65.280  1.00  0.00     0.030 C 
HETATM   30  C   UNL     1      40.725  43.349  63.785  1.00  0.00     0.236 C 
BRANCH  27  31
HETATM   31  C   UNL     1      39.836  39.625  64.027  1.00  0.00     0.289 C 
HETATM   32  O   UNL     1      39.719  38.998  62.983  1.00  0.00    -0.263 OA
BRANCH  31  33
HETATM   33  O   UNL     1      39.437  39.203  65.256  1.00  0.00    -0.325 OA
HETATM   34  C   UNL     1      40.052  38.000  65.734  1.00  0.00     0.213 C 
ENDBRANCH  31  33
ENDBRANCH  27  31
ENDBRANCH  24  25
ENDBRANCH  10  24
TORSDOF 7
ENDMDL
MODEL 9
REMARK VINA RESULT:      -7.0     11.731     13.779
REMARK  7 active torsions:
REMARK  status: ('A' for Active; 'I' for Inactive)
REMARK    1  A    between atoms: C_2  and  O_3 
REMARK    2  A    between atoms: O_3  and  C_4 
REMARK       I    between atoms: C_4  and  N_5 
REMARK    3  A    between atoms: C_8  and  N_9 
REMARK    4  A    between atoms: C_18  and  C_19 
REMARK    5  A    between atoms: C_19  and  N_20 
REMARK    6  A    between atoms: C_22  and  C_23 
REMARK    7  A    between atoms: C_23  and  O_24 
ROOT
HETATM    1  N   UNL     1      31.812  51.519  41.182  1.00  0.00    -0.061 N 
HETATM    2  H   UNL     1      32.701  51.918  40.850  1.00  0.00     0.280 HD
HETATM    3  C   UNL     1      31.194  50.870  39.936  1.00  0.00     0.276 C 
HETATM    4  C   UNL     1      29.942  50.072  40.187  1.00  0.00     0.002 A 
HETATM    5  C   UNL     1      28.795  50.710  40.656  1.00  0.00     0.076 A 
HETATM    6  O   UNL     1      28.770  52.057  40.875  1.00  0.00    -0.349 OA
HETATM    7  C   UNL     1      29.566  52.421  42.012  1.00  0.00     0.203 C 
HETATM    8  C   UNL     1      30.996  52.756  41.587  1.00  0.00     0.262 C 
HETATM    9  C   UNL     1      29.886  48.680  39.963  1.00  0.00     0.020 A 
HETATM   10  C   UNL     1      28.714  47.928  40.220  1.00  0.00    -0.032 A 
HETATM   11  C   UNL     1      27.590  48.618  40.694  1.00  0.00     0.011 A 
HETATM   12  C   UNL     1      27.619  50.002  40.880  1.00  0.00     0.038 A 
ENDROOT
BRANCH   1  13
HETATM   13  C   UNL     1      32.159  50.531  42.310  1.00  0.00     0.191 C 
HETATM   14  C   UNL     1      33.114  49.434  41.820  1.00  0.00     0.053 C 
HETATM   15  C   UNL     1      34.492  49.980  41.476  1.00  0.00     0.130 C 
HETATM   16  N   UNL     1      35.051  50.798  42.539  1.00  0.00    -0.328 N 
HETATM   17  C   UNL     1      36.436  50.997  42.495  1.00  0.00     0.362 C 
HETATM   18  C   UNL     1      34.196  51.759  43.228  1.00  0.00     0.130 C 
HETATM   19  O   UNL     1      37.159  50.446  41.676  1.00  0.00    -0.238 OA
HETATM   20  C   UNL     1      32.809  51.206  43.524  1.00  0.00     0.053 C 
BRANCH  17  21
HETATM   21  O   UNL     1      36.867  51.872  43.439  1.00  0.00    -0.304 OA
BRANCH  21  22
HETATM   22  C   UNL     1      37.929  52.758  43.041  1.00  0.00     0.176 C 
HETATM   23  C   UNL     1      37.586  54.203  43.360  1.00  0.00     0.034 C 
ENDBRANCH  21  22
ENDBRANCH  17  21
ENDBRANCH   1  13
BRANCH  10  24
HETATM   24  C   UNL     1      28.744  46.415  40.133  1.00  0.00     0.274 C 
BRANCH  24  25
HETATM   25  N   UNL     1      28.098  45.682  38.974  1.00  0.00    -0.054 N 
HETATM   26  H   UNL     1      27.138  46.051  38.970  1.00  0.00     0.281 HD
HETATM   27  C   UNL     1      27.941  44.150  39.014  1.00  0.00     0.287 C 
HETATM   28  C   UNL     1      29.193  43.668  38.315  1.00  0.00     0.045 C 
HETATM   29  C   UNL     1      29.428  44.694  37.213  1.00  0.00     0.030 C 
HETATM   30  C   UNL     1      28.674  45.958  37.609  1.00  0.00     0.236 C 
BRANCH  27  31
HETATM   31  C   UNL     1      27.653  43.480  40.354  1.00  0.00     0.289 C 
HETATM   32  O   UNL     1      26.663  43.688  41.041  1.00  0.00    -0.263 OA
BRANCH  31  33
HETATM   33  O   UNL     1      28.635  42.581  40.628  1.00  0.00    -0.325 OA
HETATM   34  C   UNL     1      28.205  41.229  40.833  1.00  0.00     0.213 C 
ENDBRANCH  31  33
ENDBRANCH  27  31
ENDBRANCH  24  25
ENDBRANCH  10  24
TORSDOF 7
ENDMDL
MODEL 10
REMARK VINA RESULT:      -7.0      2.687      3.739
REMARK  7 active torsions:
REMARK  status: ('A' for Active; 'I' for Inactive)
REMARK    1  A    between atoms: C_2  and  O_3 
REMARK    2  A    between atoms: O_3  and  C_4 
REMARK       I    between atoms: C_4  and  N_5 
REMARK    3  A    between atoms: C_8  and  N_9 
REMARK    4  A    between atoms: C_18  and  C_19 
REMARK    5  A    between atoms: C_19  and  N_20 
REMARK    6  A    between atoms: C_22  and  C_23 
REMARK    7  A    between atoms: C_23  and  O_24 
ROOT
HETATM    1  N   UNL     1      24.947  44.800  51.351  1.00  0.00    -0.061 N 
HETATM    2  H   UNL     1      24.012  45.205  51.495  1.00  0.00     0.280 HD
HETATM    3  C   UNL     1      24.709  43.284  51.324  1.00  0.00     0.276 C 
HETATM    4  C   UNL     1      25.916  42.455  50.969  1.00  0.00     0.002 A 
HETATM    5  C   UNL     1      27.030  42.457  51.808  1.00  0.00     0.076 A 
HETATM    6  O   UNL     1      27.048  43.181  52.965  1.00  0.00    -0.349 OA
HETATM    7  C   UNL     1      27.109  44.591  52.704  1.00  0.00     0.203 C 
HETATM    8  C   UNL     1      25.704  45.188  52.630  1.00  0.00     0.262 C 
HETATM    9  C   UNL     1      25.962  41.666  49.801  1.00  0.00     0.020 A 
HETATM   10  C   UNL     1      27.105  40.904  49.458  1.00  0.00    -0.032 A 
HETATM   11  C   UNL     1      28.199  40.944  50.334  1.00  0.00     0.011 A 
HETATM   12  C   UNL     1      28.151  41.688  51.514  1.00  0.00     0.038 A 
ENDROOT
BRANCH   1  13
HETATM   13  C   UNL     1      25.489  45.384  50.033  1.00  0.00     0.191 C 
HETATM   14  C   UNL     1      24.610  44.985  48.841  1.00  0.00     0.053 C 
HETATM   15  C   UNL     1      23.232  45.627  48.900  1.00  0.00     0.130 C 
HETATM   16  N   UNL     1      23.292  47.063  49.117  1.00  0.00    -0.328 N 
HETATM   17  C   UNL     1      22.139  47.782  48.783  1.00  0.00     0.362 C 
HETATM   18  C   UNL     1      24.230  47.600  50.096  1.00  0.00     0.130 C 
HETATM   19  O   UNL     1      21.165  47.264  48.251  1.00  0.00    -0.238 OA
HETATM   20  C   UNL     1      25.589  46.914  50.048  1.00  0.00     0.053 C 
BRANCH  17  21
HETATM   21  O   UNL     1      22.221  49.091  49.132  1.00  0.00    -0.304 OA
BRANCH  21  22
HETATM   22  C   UNL     1      22.240  50.035  48.046  1.00  0.00     0.176 C 
HETATM   23  C   UNL     1      23.532  50.834  48.037  1.00  0.00     0.034 C 
ENDBRANCH  21  22
ENDBRANCH  17  21
ENDBRANCH   1  13
BRANCH  10  24
HETATM   24  C   UNL     1      27.183  40.208  48.114  1.00  0.00     0.274 C 
BRANCH  24  25
HETATM   25  N   UNL     1      26.995  40.974  46.820  1.00  0.00    -0.054 N 
HETATM   26  H   UNL     1      26.903  41.949  47.135  1.00  0.00     0.281 HD
HETATM   27  C   UNL     1      25.760  40.718  45.936  1.00  0.00     0.287 C 
HETATM   28  C   UNL     1      26.255  39.665  44.968  1.00  0.00     0.045 C 
HETATM   29  C   UNL     1      27.704  40.051  44.700  1.00  0.00     0.030 C 
HETATM   30  C   UNL     1      28.153  40.939  45.854  1.00  0.00     0.236 C 
BRANCH  27  31
HETATM   31  C   UNL     1      24.432  40.396  46.614  1.00  0.00     0.289 C 
HETATM   32  O   UNL     1      24.004  39.267  46.810  1.00  0.00    -0.263 OA
BRANCH  31  33
HETATM   33  O   UNL     1      23.838  41.551  47.013  1.00  0.00    -0.325 OA
HETATM   34  C   UNL     1      22.790  41.414  47.980  1.00  0.00     0.213 C 
ENDBRANCH  31  33
ENDBRANCH  27  31
ENDBRANCH  24  25
ENDBRANCH  10  24
TORSDOF 7
ENDMDL
