MODEL 1
REMARK VINA RESULT:      -8.8      0.000      0.000
REMARK  10 active torsions:
REMARK  status: ('A' for Active; 'I' for Inactive)
REMARK    1  A    between atoms: C_2  and  N_3 
REMARK    2  A    between atoms: N_3  and  N_4 
REMARK       I    between atoms: N_4  and  C_5 
REMARK    3  A    between atoms: C_5  and  C_6 
REMARK    4  A    between atoms: C_9  and  N_10 
REMARK    5  A    between atoms: C_14  and  C_15 
REMARK       I    between atoms: C_15  and  N_16 
REMARK    6  A    between atoms: N_16  and  C_17 
REMARK    7  A    between atoms: C_17  and  C_18 
REMARK    8  A    between atoms: C_18  and  C_19 
REMARK    9  A    between atoms: C_21  and  O_22 
REMARK   10  A    between atoms: C_24  and  O_25 
ROOT
HETATM    1  C   UNL     1      24.032  42.984  50.197  1.00  0.00     0.063 C 
HETATM    2  C   UNL     1      25.387  42.639  50.770  1.00  0.00     0.007 C 
HETATM    3  C   UNL     1      25.822  41.363  50.717  1.00  0.00     0.094 C 
ENDROOT
BRANCH   2   4
HETATM    4  N   UNL     1      26.116  43.709  51.275  1.00  0.00    -0.207 NA
HETATM    5  H   UNL     1      25.834  43.949  52.247  1.00  0.00     0.152 HD
BRANCH   4   6
HETATM    6  N   UNL     1      26.240  44.889  50.508  1.00  0.00    -0.283 N 
HETATM    7  C   UNL     1      25.895  46.074  51.146  1.00  0.00     0.266 C 
HETATM    8  O   UNL     1      25.722  46.170  52.358  1.00  0.00    -0.266 OA
HETATM    9  H   UNL     1      26.071  44.786  49.515  1.00  0.00     0.184 HD
BRANCH   7  10
HETATM   10  C   UNL     1      25.659  47.249  50.261  1.00  0.00     0.033 A 
HETATM   11  C   UNL     1      26.703  48.032  49.756  1.00  0.00     0.019 A 
HETATM   12  C   UNL     1      26.423  49.100  48.896  1.00  0.00     0.024 A 
HETATM   13  C   UNL     1      25.105  49.433  48.569  1.00  0.00     0.005 A 
HETATM   14  C   UNL     1      24.072  48.624  49.045  1.00  0.00     0.024 A 
HETATM   15  C   UNL     1      24.340  47.555  49.906  1.00  0.00     0.019 A 
BRANCH  13  16
HETATM   16  N   UNL     1      24.845  50.411  47.603  1.00  0.00    -0.303 NA
HETATM   17  H   UNL     1      25.456  51.220  47.659  1.00  0.00     0.124 HD
HETATM   18  H   UNL     1      23.866  50.676  47.544  1.00  0.00     0.124 HD
ENDBRANCH  13  16
ENDBRANCH   7  10
ENDBRANCH   4   6
ENDBRANCH   2   4
BRANCH   3  19
HETATM   19  C   UNL     1      27.143  40.963  51.259  1.00  0.00     0.242 C 
HETATM   20  N   UNL     1      27.287  41.230  52.600  1.00  0.00    -0.357 N 
HETATM   21  H   UNL     1      26.550  41.709  53.098  1.00  0.00     0.162 HD
HETATM   22  O   UNL     1      28.020  40.490  50.549  1.00  0.00    -0.269 OA
BRANCH  20  23
HETATM   23  C   UNL     1      28.583  41.102  53.255  1.00  0.00     0.127 C 
BRANCH  23  24
HETATM   24  C   UNL     1      29.505  42.295  52.936  1.00  0.00     0.058 C 
BRANCH  24  25
HETATM   25  C   UNL     1      29.659  43.318  54.039  1.00  0.00    -0.054 A 
HETATM   26  C   UNL     1      28.680  44.299  54.252  1.00  0.00     0.046 A 
HETATM   27  C   UNL     1      28.774  45.211  55.311  1.00  0.00     0.102 A 
HETATM   28  C   UNL     1      29.872  45.143  56.188  1.00  0.00     0.101 A 
HETATM   29  C   UNL     1      30.842  44.153  55.994  1.00  0.00     0.040 A 
HETATM   30  C   UNL     1      30.732  43.247  54.932  1.00  0.00     0.010 A 
BRANCH  27  31
HETATM   31  O   UNL     1      27.852  46.199  55.559  1.00  0.00    -0.353 OA
HETATM   32  C   UNL     1      27.982  47.404  54.814  1.00  0.00     0.210 C 
ENDBRANCH  27  31
BRANCH  28  33
HETATM   33  O   UNL     1      29.893  46.068  57.202  1.00  0.00    -0.353 OA
HETATM   34  C   UNL     1      30.520  45.698  58.419  1.00  0.00     0.210 C 
ENDBRANCH  28  33
ENDBRANCH  24  25
ENDBRANCH  23  24
ENDBRANCH  20  23
ENDBRANCH   3  19
TORSDOF 10
ENDMDL
MODEL 2
REMARK VINA RESULT:      -8.7      3.601      5.474
REMARK  10 active torsions:
REMARK  status: ('A' for Active; 'I' for Inactive)
REMARK    1  A    between atoms: C_2  and  N_3 
REMARK    2  A    between atoms: N_3  and  N_4 
REMARK       I    between atoms: N_4  and  C_5 
REMARK    3  A    between atoms: C_5  and  C_6 
REMARK    4  A    between atoms: C_9  and  N_10 
REMARK    5  A    between atoms: C_14  and  C_15 
REMARK       I    between atoms: C_15  and  N_16 
REMARK    6  A    between atoms: N_16  and  C_17 
REMARK    7  A    between atoms: C_17  and  C_18 
REMARK    8  A    between atoms: C_18  and  C_19 
REMARK    9  A    between atoms: C_21  and  O_22 
REMARK   10  A    between atoms: C_24  and  O_25 
ROOT
HETATM    1  C   UNL     1      24.624  49.685  48.122  1.00  0.00     0.063 C 
HETATM    2  C   UNL     1      24.544  48.754  49.310  1.00  0.00     0.007 C 
HETATM    3  C   UNL     1      25.644  48.071  49.690  1.00  0.00     0.094 C 
ENDROOT
BRANCH   2   4
HETATM    4  N   UNL     1      23.317  48.717  49.962  1.00  0.00    -0.207 NA
HETATM    5  H   UNL     1      23.063  47.753  50.259  1.00  0.00     0.152 HD
BRANCH   4   6
HETATM    6  N   UNL     1      22.198  49.346  49.374  1.00  0.00    -0.283 N 
HETATM    7  C   UNL     1      21.781  50.533  49.963  1.00  0.00     0.266 C 
HETATM    8  O   UNL     1      22.448  51.156  50.785  1.00  0.00    -0.266 OA
HETATM    9  H   UNL     1      21.515  48.725  48.957  1.00  0.00     0.184 HD
BRANCH   7  10
HETATM   10  C   UNL     1      20.411  50.996  49.604  1.00  0.00     0.033 A 
HETATM   11  C   UNL     1      19.271  50.586  50.304  1.00  0.00     0.019 A 
HETATM   12  C   UNL     1      18.014  51.085  49.946  1.00  0.00     0.024 A 
HETATM   13  C   UNL     1      17.868  51.955  48.862  1.00  0.00     0.005 A 
HETATM   14  C   UNL     1      19.014  52.389  48.193  1.00  0.00     0.024 A 
HETATM   15  C   UNL     1      20.275  51.896  48.541  1.00  0.00     0.019 A 
BRANCH  13  16
HETATM   16  N   UNL     1      16.631  52.554  48.602  1.00  0.00    -0.303 NA
HETATM   17  H   UNL     1      16.325  52.470  47.637  1.00  0.00     0.124 HD
HETATM   18  H   UNL     1      16.561  53.509  48.942  1.00  0.00     0.124 HD
ENDBRANCH  13  16
ENDBRANCH   7  10
ENDBRANCH   4   6
ENDBRANCH   2   4
BRANCH   3  19
HETATM   19  C   UNL     1      25.629  47.146  50.850  1.00  0.00     0.242 C 
HETATM   20  N   UNL     1      26.104  45.891  50.553  1.00  0.00    -0.357 N 
HETATM   21  H   UNL     1      26.367  45.665  49.603  1.00  0.00     0.162 HD
HETATM   22  O   UNL     1      25.184  47.479  51.940  1.00  0.00    -0.269 OA
BRANCH  20  23
HETATM   23  C   UNL     1      25.969  44.795  51.504  1.00  0.00     0.127 C 
BRANCH  23  24
HETATM   24  C   UNL     1      27.222  43.896  51.521  1.00  0.00     0.058 C 
BRANCH  24  25
HETATM   25  C   UNL     1      28.107  44.030  52.741  1.00  0.00    -0.054 A 
HETATM   26  C   UNL     1      27.800  44.948  53.755  1.00  0.00     0.046 A 
HETATM   27  C   UNL     1      28.571  45.036  54.921  1.00  0.00     0.102 A 
HETATM   28  C   UNL     1      29.677  44.182  55.086  1.00  0.00     0.101 A 
HETATM   29  C   UNL     1      29.976  43.250  54.087  1.00  0.00     0.040 A 
HETATM   30  C   UNL     1      29.195  43.172  52.928  1.00  0.00     0.010 A 
BRANCH  27  31
HETATM   31  O   UNL     1      28.325  45.923  55.941  1.00  0.00    -0.353 OA
HETATM   32  C   UNL     1      27.696  47.151  55.589  1.00  0.00     0.210 C 
ENDBRANCH  27  31
BRANCH  28  33
HETATM   33  O   UNL     1      30.382  44.327  56.255  1.00  0.00    -0.353 OA
HETATM   34  C   UNL     1      31.325  43.321  56.585  1.00  0.00     0.210 C 
ENDBRANCH  28  33
ENDBRANCH  24  25
ENDBRANCH  23  24
ENDBRANCH  20  23
ENDBRANCH   3  19
TORSDOF 10
ENDMDL
MODEL 3
REMARK VINA RESULT:      -8.5      3.869      6.315
REMARK  10 active torsions:
REMARK  status: ('A' for Active; 'I' for Inactive)
REMARK    1  A    between atoms: C_2  and  N_3 
REMARK    2  A    between atoms: N_3  and  N_4 
REMARK       I    between atoms: N_4  and  C_5 
REMARK    3  A    between atoms: C_5  and  C_6 
REMARK    4  A    between atoms: C_9  and  N_10 
REMARK    5  A    between atoms: C_14  and  C_15 
REMARK       I    between atoms: C_15  and  N_16 
REMARK    6  A    between atoms: N_16  and  C_17 
REMARK    7  A    between atoms: C_17  and  C_18 
REMARK    8  A    between atoms: C_18  and  C_19 
REMARK    9  A    between atoms: C_21  and  O_22 
REMARK   10  A    between atoms: C_24  and  O_25 
ROOT
HETATM    1  C   UNL     1      23.651  50.794  47.805  1.00  0.00     0.063 C 
HETATM    2  C   UNL     1      24.216  49.776  48.768  1.00  0.00     0.007 C 
HETATM    3  C   UNL     1      25.493  49.365  48.620  1.00  0.00     0.094 C 
ENDROOT
BRANCH   2   4
HETATM    4  N   UNL     1      23.362  49.374  49.787  1.00  0.00    -0.207 NA
HETATM    5  H   UNL     1      23.152  48.356  49.741  1.00  0.00     0.152 HD
BRANCH   4   6
HETATM    6  N   UNL     1      22.170  50.096  50.021  1.00  0.00    -0.283 N 
HETATM    7  C   UNL     1      21.021  49.595  49.424  1.00  0.00     0.266 C 
HETATM    8  O   UNL     1      20.947  48.477  48.920  1.00  0.00    -0.266 OA
HETATM    9  H   UNL     1      22.281  51.096  50.138  1.00  0.00     0.184 HD
BRANCH   7  10
HETATM   10  C   UNL     1      19.863  50.529  49.346  1.00  0.00     0.033 A 
HETATM   11  C   UNL     1      18.685  50.329  50.073  1.00  0.00     0.019 A 
HETATM   12  C   UNL     1      17.645  51.262  49.990  1.00  0.00     0.024 A 
HETATM   13  C   UNL     1      17.743  52.375  49.149  1.00  0.00     0.005 A 
HETATM   14  C   UNL     1      18.937  52.588  48.458  1.00  0.00     0.024 A 
HETATM   15  C   UNL     1      19.981  51.662  48.532  1.00  0.00     0.019 A 
BRANCH  13  16
HETATM   16  N   UNL     1      16.760  53.369  49.180  1.00  0.00    -0.303 NA
HETATM   17  H   UNL     1      15.830  53.040  48.939  1.00  0.00     0.124 HD
HETATM   18  H   UNL     1      17.012  54.208  48.666  1.00  0.00     0.124 HD
ENDBRANCH  13  16
ENDBRANCH   7  10
ENDBRANCH   4   6
ENDBRANCH   2   4
BRANCH   3  19
HETATM   19  C   UNL     1      26.105  48.371  49.535  1.00  0.00     0.242 C 
HETATM   20  N   UNL     1      25.278  47.312  49.823  1.00  0.00    -0.357 N 
HETATM   21  H   UNL     1      24.334  47.299  49.463  1.00  0.00     0.162 HD
HETATM   22  O   UNL     1      27.220  48.529  50.013  1.00  0.00    -0.269 OA
BRANCH  20  23
HETATM   23  C   UNL     1      25.625  46.351  50.863  1.00  0.00     0.127 C 
BRANCH  23  24
HETATM   24  C   UNL     1      25.203  46.845  52.261  1.00  0.00     0.058 C 
BRANCH  24  25
HETATM   25  C   UNL     1      26.192  46.581  53.375  1.00  0.00    -0.054 A 
HETATM   26  C   UNL     1      26.965  45.411  53.389  1.00  0.00     0.046 A 
HETATM   27  C   UNL     1      27.932  45.184  54.376  1.00  0.00     0.102 A 
HETATM   28  C   UNL     1      28.140  46.150  55.377  1.00  0.00     0.101 A 
HETATM   29  C   UNL     1      27.387  47.329  55.357  1.00  0.00     0.040 A 
HETATM   30  C   UNL     1      26.425  47.543  54.362  1.00  0.00     0.010 A 
BRANCH  27  31
HETATM   31  O   UNL     1      28.709  44.053  54.445  1.00  0.00    -0.353 OA
HETATM   32  C   UNL     1      28.070  42.813  54.160  1.00  0.00     0.210 C 
ENDBRANCH  27  31
BRANCH  28  33
HETATM   33  O   UNL     1      29.106  45.856  56.307  1.00  0.00    -0.353 OA
HETATM   34  C   UNL     1      28.832  46.170  57.663  1.00  0.00     0.210 C 
ENDBRANCH  28  33
ENDBRANCH  24  25
ENDBRANCH  23  24
ENDBRANCH  20  23
ENDBRANCH   3  19
TORSDOF 10
ENDMDL
MODEL 4
REMARK VINA RESULT:      -8.4      4.107     10.084
REMARK  10 active torsions:
REMARK  status: ('A' for Active; 'I' for Inactive)
REMARK    1  A    between atoms: C_2  and  N_3 
REMARK    2  A    between atoms: N_3  and  N_4 
REMARK       I    between atoms: N_4  and  C_5 
REMARK    3  A    between atoms: C_5  and  C_6 
REMARK    4  A    between atoms: C_9  and  N_10 
REMARK    5  A    between atoms: C_14  and  C_15 
REMARK       I    between atoms: C_15  and  N_16 
REMARK    6  A    between atoms: N_16  and  C_17 
REMARK    7  A    between atoms: C_17  and  C_18 
REMARK    8  A    between atoms: C_18  and  C_19 
REMARK    9  A    between atoms: C_21  and  O_22 
REMARK   10  A    between atoms: C_24  and  O_25 
ROOT
HETATM    1  C   UNL     1      25.721  43.581  51.813  1.00  0.00     0.063 C 
HETATM    2  C   UNL     1      25.735  45.083  51.656  1.00  0.00     0.007 C 
HETATM    3  C   UNL     1      24.994  45.654  50.683  1.00  0.00     0.094 C 
ENDROOT
BRANCH   2   4
HETATM    4  N   UNL     1      26.498  45.778  52.588  1.00  0.00    -0.207 NA
HETATM    5  H   UNL     1      27.035  46.554  52.151  1.00  0.00     0.152 HD
BRANCH   4   6
HETATM    6  N   UNL     1      27.330  45.062  53.476  1.00  0.00    -0.283 N 
HETATM    7  C   UNL     1      27.803  45.765  54.577  1.00  0.00     0.266 C 
HETATM    8  O   UNL     1      27.364  46.858  54.926  1.00  0.00    -0.266 OA
HETATM    9  H   UNL     1      27.907  44.344  53.054  1.00  0.00     0.184 HD
BRANCH   7  10
HETATM   10  C   UNL     1      28.956  45.158  55.297  1.00  0.00     0.033 A 
HETATM   11  C   UNL     1      29.502  45.722  56.455  1.00  0.00     0.019 A 
HETATM   12  C   UNL     1      30.561  45.083  57.111  1.00  0.00     0.024 A 
HETATM   13  C   UNL     1      31.121  43.910  56.599  1.00  0.00     0.005 A 
HETATM   14  C   UNL     1      30.547  43.333  55.465  1.00  0.00     0.024 A 
HETATM   15  C   UNL     1      29.489  43.962  54.801  1.00  0.00     0.019 A 
BRANCH  13  16
HETATM   16  N   UNL     1      32.082  43.209  57.335  1.00  0.00    -0.303 NA
HETATM   17  H   UNL     1      33.027  43.565  57.227  1.00  0.00     0.124 HD
HETATM   18  H   UNL     1      32.038  42.202  57.209  1.00  0.00     0.124 HD
ENDBRANCH  13  16
ENDBRANCH   7  10
ENDBRANCH   4   6
ENDBRANCH   2   4
BRANCH   3  19
HETATM   19  C   UNL     1      24.965  47.123  50.482  1.00  0.00     0.242 C 
HETATM   20  N   UNL     1      23.823  47.565  49.856  1.00  0.00    -0.357 N 
HETATM   21  H   UNL     1      23.136  46.897  49.535  1.00  0.00     0.162 HD
HETATM   22  O   UNL     1      25.900  47.842  50.805  1.00  0.00    -0.269 OA
BRANCH  20  23
HETATM   23  C   UNL     1      23.711  48.940  49.387  1.00  0.00     0.127 C 
BRANCH  23  24
HETATM   24  C   UNL     1      22.631  49.087  48.297  1.00  0.00     0.058 C 
BRANCH  24  25
HETATM   25  C   UNL     1      21.303  49.643  48.762  1.00  0.00    -0.054 A 
HETATM   26  C   UNL     1      20.274  48.790  49.187  1.00  0.00     0.046 A 
HETATM   27  C   UNL     1      19.064  49.291  49.683  1.00  0.00     0.102 A 
HETATM   28  C   UNL     1      18.872  50.682  49.763  1.00  0.00     0.101 A 
HETATM   29  C   UNL     1      19.902  51.539  49.361  1.00  0.00     0.040 A 
HETATM   30  C   UNL     1      21.107  51.023  48.869  1.00  0.00     0.010 A 
BRANCH  27  31
HETATM   31  O   UNL     1      18.019  48.503  50.101  1.00  0.00    -0.353 OA
HETATM   32  C   UNL     1      17.394  47.686  49.117  1.00  0.00     0.210 C 
ENDBRANCH  27  31
BRANCH  28  33
HETATM   33  O   UNL     1      17.662  51.096  50.262  1.00  0.00    -0.353 OA
HETATM   34  C   UNL     1      17.137  52.324  49.784  1.00  0.00     0.210 C 
ENDBRANCH  28  33
ENDBRANCH  24  25
ENDBRANCH  23  24
ENDBRANCH  20  23
ENDBRANCH   3  19
TORSDOF 10
ENDMDL
MODEL 5
REMARK VINA RESULT:      -8.4      3.384      5.431
REMARK  10 active torsions:
REMARK  status: ('A' for Active; 'I' for Inactive)
REMARK    1  A    between atoms: C_2  and  N_3 
REMARK    2  A    between atoms: N_3  and  N_4 
REMARK       I    between atoms: N_4  and  C_5 
REMARK    3  A    between atoms: C_5  and  C_6 
REMARK    4  A    between atoms: C_9  and  N_10 
REMARK    5  A    between atoms: C_14  and  C_15 
REMARK       I    between atoms: C_15  and  N_16 
REMARK    6  A    between atoms: N_16  and  C_17 
REMARK    7  A    between atoms: C_17  and  C_18 
REMARK    8  A    between atoms: C_18  and  C_19 
REMARK    9  A    between atoms: C_21  and  O_22 
REMARK   10  A    between atoms: C_24  and  O_25 
ROOT
HETATM    1  C   UNL     1      25.715  49.802  48.261  1.00  0.00     0.063 C 
HETATM    2  C   UNL     1      25.354  48.722  49.253  1.00  0.00     0.007 C 
HETATM    3  C   UNL     1      26.317  47.893  49.707  1.00  0.00     0.094 C 
ENDROOT
BRANCH   2   4
HETATM    4  N   UNL     1      24.027  48.703  49.665  1.00  0.00    -0.207 NA
HETATM    5  H   UNL     1      23.733  47.760  49.990  1.00  0.00     0.152 HD
BRANCH   4   6
HETATM    6  N   UNL     1      23.031  49.250  48.825  1.00  0.00    -0.283 N 
HETATM    7  C   UNL     1      22.342  50.348  49.325  1.00  0.00     0.266 C 
HETATM    8  O   UNL     1      22.698  50.982  50.314  1.00  0.00    -0.266 OA
HETATM    9  H   UNL     1      22.554  48.589  48.223  1.00  0.00     0.184 HD
BRANCH   7  10
HETATM   10  C   UNL     1      21.066  50.689  48.635  1.00  0.00     0.033 A 
HETATM   11  C   UNL     1      20.678  50.090  47.432  1.00  0.00     0.019 A 
HETATM   12  C   UNL     1      19.449  50.421  46.851  1.00  0.00     0.024 A 
HETATM   13  C   UNL     1      18.617  51.385  47.429  1.00  0.00     0.005 A 
HETATM   14  C   UNL     1      18.993  51.949  48.649  1.00  0.00     0.024 A 
HETATM   15  C   UNL     1      20.220  51.626  49.238  1.00  0.00     0.019 A 
BRANCH  13  16
HETATM   16  N   UNL     1      17.334  51.606  46.916  1.00  0.00    -0.303 NA
HETATM   17  H   UNL     1      16.722  52.122  47.540  1.00  0.00     0.124 HD
HETATM   18  H   UNL     1      16.890  50.766  46.555  1.00  0.00     0.124 HD
ENDBRANCH  13  16
ENDBRANCH   7  10
ENDBRANCH   4   6
ENDBRANCH   2   4
BRANCH   3  19
HETATM   19  C   UNL     1      26.025  46.815  50.683  1.00  0.00     0.242 C 
HETATM   20  N   UNL     1      25.913  47.266  51.977  1.00  0.00    -0.357 N 
HETATM   21  H   UNL     1      26.084  48.240  52.186  1.00  0.00     0.162 HD
HETATM   22  O   UNL     1      25.947  45.640  50.350  1.00  0.00    -0.269 OA
BRANCH  20  23
HETATM   23  C   UNL     1      25.839  46.331  53.093  1.00  0.00     0.127 C 
BRANCH  23  24
HETATM   24  C   UNL     1      26.649  46.825  54.307  1.00  0.00     0.058 C 
BRANCH  24  25
HETATM   25  C   UNL     1      27.787  45.930  54.744  1.00  0.00    -0.054 A 
HETATM   26  C   UNL     1      27.963  44.660  54.175  1.00  0.00     0.046 A 
HETATM   27  C   UNL     1      29.050  43.847  54.519  1.00  0.00     0.102 A 
HETATM   28  C   UNL     1      29.993  44.311  55.454  1.00  0.00     0.101 A 
HETATM   29  C   UNL     1      29.835  45.585  56.011  1.00  0.00     0.040 A 
HETATM   30  C   UNL     1      28.745  46.387  55.655  1.00  0.00     0.010 A 
BRANCH  27  31
HETATM   31  O   UNL     1      29.265  42.592  54.003  1.00  0.00    -0.353 OA
HETATM   32  C   UNL     1      28.116  41.850  53.611  1.00  0.00     0.210 C 
ENDBRANCH  27  31
BRANCH  28  33
HETATM   33  O   UNL     1      31.031  43.458  55.738  1.00  0.00    -0.353 OA
HETATM   34  C   UNL     1      31.429  43.333  57.094  1.00  0.00     0.210 C 
ENDBRANCH  28  33
ENDBRANCH  24  25
ENDBRANCH  23  24
ENDBRANCH  20  23
ENDBRANCH   3  19
TORSDOF 10
ENDMDL
MODEL 6
REMARK VINA RESULT:      -8.3      2.937      6.846
REMARK  10 active torsions:
REMARK  status: ('A' for Active; 'I' for Inactive)
REMARK    1  A    between atoms: C_2  and  N_3 
REMARK    2  A    between atoms: N_3  and  N_4 
REMARK       I    between atoms: N_4  and  C_5 
REMARK    3  A    between atoms: C_5  and  C_6 
REMARK    4  A    between atoms: C_9  and  N_10 
REMARK    5  A    between atoms: C_14  and  C_15 
REMARK       I    between atoms: C_15  and  N_16 
REMARK    6  A    between atoms: N_16  and  C_17 
REMARK    7  A    between atoms: C_17  and  C_18 
REMARK    8  A    between atoms: C_18  and  C_19 
REMARK    9  A    between atoms: C_21  and  O_22 
REMARK   10  A    between atoms: C_24  and  O_25 
ROOT
HETATM    1  C   UNL     1      29.328  38.409  50.819  1.00  0.00     0.063 C 
HETATM    2  C   UNL     1      28.413  39.493  50.299  1.00  0.00     0.007 C 
HETATM    3  C   UNL     1      27.236  39.150  49.736  1.00  0.00     0.094 C 
ENDROOT
BRANCH   2   4
HETATM    4  N   UNL     1      28.853  40.797  50.496  1.00  0.00    -0.207 NA
HETATM    5  H   UNL     1      29.699  41.012  49.931  1.00  0.00     0.152 HD
BRANCH   4   6
HETATM    6  N   UNL     1      29.021  41.283  51.812  1.00  0.00    -0.283 N 
HETATM    7  C   UNL     1      28.542  42.563  52.059  1.00  0.00     0.266 C 
HETATM    8  O   UNL     1      27.804  43.174  51.290  1.00  0.00    -0.266 OA
HETATM    9  H   UNL     1      29.845  40.952  52.299  1.00  0.00     0.184 HD
BRANCH   7  10
HETATM   10  C   UNL     1      29.039  43.220  53.300  1.00  0.00     0.033 A 
HETATM   11  C   UNL     1      30.188  42.788  53.970  1.00  0.00     0.019 A 
HETATM   12  C   UNL     1      30.630  43.469  55.111  1.00  0.00     0.024 A 
HETATM   13  C   UNL     1      29.910  44.551  55.625  1.00  0.00     0.005 A 
HETATM   14  C   UNL     1      28.787  45.000  54.929  1.00  0.00     0.024 A 
HETATM   15  C   UNL     1      28.336  44.326  53.790  1.00  0.00     0.019 A 
BRANCH  13  16
HETATM   16  N   UNL     1      30.434  45.308  56.679  1.00  0.00    -0.303 NA
HETATM   17  H   UNL     1      31.375  45.042  56.951  1.00  0.00     0.124 HD
HETATM   18  H   UNL     1      29.812  45.378  57.479  1.00  0.00     0.124 HD
ENDBRANCH  13  16
ENDBRANCH   7  10
ENDBRANCH   4   6
ENDBRANCH   2   4
BRANCH   3  19
HETATM   19  C   UNL     1      26.294  40.169  49.211  1.00  0.00     0.242 C 
HETATM   20  N   UNL     1      25.850  41.048  50.170  1.00  0.00    -0.357 N 
HETATM   21  H   UNL     1      26.128  40.923  51.133  1.00  0.00     0.162 HD
HETATM   22  O   UNL     1      25.925  40.172  48.044  1.00  0.00    -0.269 OA
BRANCH  20  23
HETATM   23  C   UNL     1      24.765  41.979  49.888  1.00  0.00     0.127 C 
BRANCH  23  24
HETATM   24  C   UNL     1      24.458  42.883  51.098  1.00  0.00     0.058 C 
BRANCH  24  25
HETATM   25  C   UNL     1      24.389  44.366  50.808  1.00  0.00    -0.054 A 
HETATM   26  C   UNL     1      24.921  45.301  51.708  1.00  0.00     0.046 A 
HETATM   27  C   UNL     1      24.925  46.672  51.423  1.00  0.00     0.102 A 
HETATM   28  C   UNL     1      24.390  47.127  50.205  1.00  0.00     0.101 A 
HETATM   29  C   UNL     1      23.878  46.199  49.292  1.00  0.00     0.040 A 
HETATM   30  C   UNL     1      23.882  44.831  49.591  1.00  0.00     0.010 A 
BRANCH  27  31
HETATM   31  O   UNL     1      25.421  47.631  52.272  1.00  0.00    -0.353 OA
HETATM   32  C   UNL     1      25.929  47.185  53.524  1.00  0.00     0.210 C 
ENDBRANCH  27  31
BRANCH  28  33
HETATM   33  O   UNL     1      24.433  48.484  49.997  1.00  0.00    -0.353 OA
HETATM   34  C   UNL     1      23.639  49.016  48.949  1.00  0.00     0.210 C 
ENDBRANCH  28  33
ENDBRANCH  24  25
ENDBRANCH  23  24
ENDBRANCH  20  23
ENDBRANCH   3  19
TORSDOF 10
ENDMDL
MODEL 7
REMARK VINA RESULT:      -8.1     11.902     14.020
REMARK  10 active torsions:
REMARK  status: ('A' for Active; 'I' for Inactive)
REMARK    1  A    between atoms: C_2  and  N_3 
REMARK    2  A    between atoms: N_3  and  N_4 
REMARK       I    between atoms: N_4  and  C_5 
REMARK    3  A    between atoms: C_5  and  C_6 
REMARK    4  A    between atoms: C_9  and  N_10 
REMARK    5  A    between atoms: C_14  and  C_15 
REMARK       I    between atoms: C_15  and  N_16 
REMARK    6  A    between atoms: N_16  and  C_17 
REMARK    7  A    between atoms: C_17  and  C_18 
REMARK    8  A    between atoms: C_18  and  C_19 
REMARK    9  A    between atoms: C_21  and  O_22 
REMARK   10  A    between atoms: C_24  and  O_25 
ROOT
HETATM    1  C   UNL     1      24.251  47.018  40.734  1.00  0.00     0.063 C 
HETATM    2  C   UNL     1      25.635  47.598  40.563  1.00  0.00     0.007 C 
HETATM    3  C   UNL     1      26.676  47.024  41.201  1.00  0.00     0.094 C 
ENDROOT
BRANCH   2   4
HETATM    4  N   UNL     1      25.731  48.681  39.696  1.00  0.00    -0.207 NA
HETATM    5  H   UNL     1      26.085  48.400  38.760  1.00  0.00     0.152 HD
BRANCH   4   6
HETATM    6  N   UNL     1      26.387  49.857  40.123  1.00  0.00    -0.283 N 
HETATM    7  C   UNL     1      27.117  50.538  39.157  1.00  0.00     0.266 C 
HETATM    8  O   UNL     1      27.033  50.309  37.954  1.00  0.00    -0.266 OA
HETATM    9  H   UNL     1      26.703  49.857  41.086  1.00  0.00     0.184 HD
BRANCH   7  10
HETATM   10  C   UNL     1      28.098  51.537  39.663  1.00  0.00     0.033 A 
HETATM   11  C   UNL     1      28.540  51.553  40.990  1.00  0.00     0.019 A 
HETATM   12  C   UNL     1      29.495  52.492  41.399  1.00  0.00     0.024 A 
HETATM   13  C   UNL     1      29.981  53.455  40.510  1.00  0.00     0.005 A 
HETATM   14  C   UNL     1      29.565  53.408  39.178  1.00  0.00     0.024 A 
HETATM   15  C   UNL     1      28.611  52.476  38.760  1.00  0.00     0.019 A 
BRANCH  13  16
HETATM   16  N   UNL     1      31.033  54.296  40.890  1.00  0.00    -0.303 NA
HETATM   17  H   UNL     1      31.696  54.492  40.147  1.00  0.00     0.124 HD
HETATM   18  H   UNL     1      31.496  54.006  41.747  1.00  0.00     0.124 HD
ENDBRANCH  13  16
ENDBRANCH   7  10
ENDBRANCH   4   6
ENDBRANCH   2   4
BRANCH   3  19
HETATM   19  C   UNL     1      28.059  47.545  41.070  1.00  0.00     0.242 C 
HETATM   20  N   UNL     1      28.691  47.133  39.921  1.00  0.00    -0.357 N 
HETATM   21  H   UNL     1      28.227  46.488  39.296  1.00  0.00     0.162 HD
HETATM   22  O   UNL     1      28.579  48.232  41.938  1.00  0.00    -0.269 OA
BRANCH  20  23
HETATM   23  C   UNL     1      30.116  47.370  39.724  1.00  0.00     0.127 C 
BRANCH  23  24
HETATM   24  C   UNL     1      30.372  48.488  38.694  1.00  0.00     0.058 C 
BRANCH  24  25
HETATM   25  C   UNL     1      31.271  49.612  39.158  1.00  0.00    -0.054 A 
HETATM   26  C   UNL     1      31.702  49.686  40.491  1.00  0.00     0.046 A 
HETATM   27  C   UNL     1      32.589  50.681  40.920  1.00  0.00     0.102 A 
HETATM   28  C   UNL     1      33.065  51.629  39.996  1.00  0.00     0.101 A 
HETATM   29  C   UNL     1      32.656  51.549  38.661  1.00  0.00     0.040 A 
HETATM   30  C   UNL     1      31.771  50.547  38.246  1.00  0.00     0.010 A 
BRANCH  27  31
HETATM   31  O   UNL     1      33.034  50.808  42.213  1.00  0.00    -0.353 OA
HETATM   32  C   UNL     1      32.165  50.347  43.243  1.00  0.00     0.210 C 
ENDBRANCH  27  31
BRANCH  28  33
HETATM   33  O   UNL     1      33.932  52.571  40.492  1.00  0.00    -0.353 OA
HETATM   34  C   UNL     1      35.225  52.647  39.913  1.00  0.00     0.210 C 
ENDBRANCH  28  33
ENDBRANCH  24  25
ENDBRANCH  23  24
ENDBRANCH  20  23
ENDBRANCH   3  19
TORSDOF 10
ENDMDL
MODEL 8
REMARK VINA RESULT:      -8.1      2.481      7.946
REMARK  10 active torsions:
REMARK  status: ('A' for Active; 'I' for Inactive)
REMARK    1  A    between atoms: C_2  and  N_3 
REMARK    2  A    between atoms: N_3  and  N_4 
REMARK       I    between atoms: N_4  and  C_5 
REMARK    3  A    between atoms: C_5  and  C_6 
REMARK    4  A    between atoms: C_9  and  N_10 
REMARK    5  A    between atoms: C_14  and  C_15 
REMARK       I    between atoms: C_15  and  N_16 
REMARK    6  A    between atoms: N_16  and  C_17 
REMARK    7  A    between atoms: C_17  and  C_18 
REMARK    8  A    between atoms: C_18  and  C_19 
REMARK    9  A    between atoms: C_21  and  O_22 
REMARK   10  A    between atoms: C_24  and  O_25 
ROOT
HETATM    1  C   UNL     1      28.111  40.870  50.840  1.00  0.00     0.063 C 
HETATM    2  C   UNL     1      27.046  41.916  51.073  1.00  0.00     0.007 C 
HETATM    3  C   UNL     1      25.768  41.645  50.735  1.00  0.00     0.094 C 
ENDROOT
BRANCH   2   4
HETATM    4  N   UNL     1      27.479  43.089  51.680  1.00  0.00    -0.207 NA
HETATM    5  H   UNL     1      28.012  43.694  51.023  1.00  0.00     0.152 HD
BRANCH   4   6
HETATM    6  N   UNL     1      28.151  43.022  52.921  1.00  0.00    -0.283 N 
HETATM    7  C   UNL     1      28.149  44.183  53.683  1.00  0.00     0.266 C 
HETATM    8  O   UNL     1      27.425  45.148  53.452  1.00  0.00    -0.266 OA
HETATM    9  H   UNL     1      28.951  42.402  52.952  1.00  0.00     0.184 HD
BRANCH   7  10
HETATM   10  C   UNL     1      29.149  44.244  54.785  1.00  0.00     0.033 A 
HETATM   11  C   UNL     1      29.224  45.322  55.674  1.00  0.00     0.019 A 
HETATM   12  C   UNL     1      30.159  45.306  56.715  1.00  0.00     0.024 A 
HETATM   13  C   UNL     1      31.061  44.246  56.855  1.00  0.00     0.005 A 
HETATM   14  C   UNL     1      30.954  43.158  55.988  1.00  0.00     0.024 A 
HETATM   15  C   UNL     1      30.025  43.164  54.944  1.00  0.00     0.019 A 
BRANCH  13  16
HETATM   16  N   UNL     1      31.894  44.175  57.976  1.00  0.00    -0.303 NA
HETATM   17  H   UNL     1      31.406  44.270  58.861  1.00  0.00     0.124 HD
HETATM   18  H   UNL     1      32.705  44.786  57.921  1.00  0.00     0.124 HD
ENDBRANCH  13  16
ENDBRANCH   7  10
ENDBRANCH   4   6
ENDBRANCH   2   4
BRANCH   3  19
HETATM   19  C   UNL     1      24.679  42.630  50.941  1.00  0.00     0.242 C 
HETATM   20  N   UNL     1      23.688  42.555  49.992  1.00  0.00    -0.357 N 
HETATM   21  H   UNL     1      23.780  41.910  49.219  1.00  0.00     0.162 HD
HETATM   22  O   UNL     1      24.709  43.451  51.848  1.00  0.00    -0.269 OA
BRANCH  20  23
HETATM   23  C   UNL     1      22.649  43.575  49.910  1.00  0.00     0.127 C 
BRANCH  23  24
HETATM   24  C   UNL     1      22.768  44.409  48.620  1.00  0.00     0.058 C 
BRANCH  24  25
HETATM   25  C   UNL     1      23.062  45.880  48.815  1.00  0.00    -0.054 A 
HETATM   26  C   UNL     1      24.205  46.299  49.511  1.00  0.00     0.046 A 
HETATM   27  C   UNL     1      24.527  47.655  49.641  1.00  0.00     0.102 A 
HETATM   28  C   UNL     1      23.690  48.625  49.059  1.00  0.00     0.101 A 
HETATM   29  C   UNL     1      22.559  48.213  48.345  1.00  0.00     0.040 A 
HETATM   30  C   UNL     1      22.252  46.853  48.221  1.00  0.00     0.010 A 
BRANCH  27  31
HETATM   31  O   UNL     1      25.625  48.123  50.321  1.00  0.00    -0.353 OA
HETATM   32  C   UNL     1      26.033  47.388  51.470  1.00  0.00     0.210 C 
ENDBRANCH  27  31
BRANCH  28  33
HETATM   33  O   UNL     1      24.073  49.932  49.228  1.00  0.00    -0.353 OA
HETATM   34  C   UNL     1      23.079  50.934  49.086  1.00  0.00     0.210 C 
ENDBRANCH  28  33
ENDBRANCH  24  25
ENDBRANCH  23  24
ENDBRANCH  20  23
ENDBRANCH   3  19
TORSDOF 10
ENDMDL
MODEL 9
REMARK VINA RESULT:      -8.0     11.989     15.554
REMARK  10 active torsions:
REMARK  status: ('A' for Active; 'I' for Inactive)
REMARK    1  A    between atoms: C_2  and  N_3 
REMARK    2  A    between atoms: N_3  and  N_4 
REMARK       I    between atoms: N_4  and  C_5 
REMARK    3  A    between atoms: C_5  and  C_6 
REMARK    4  A    between atoms: C_9  and  N_10 
REMARK    5  A    between atoms: C_14  and  C_15 
REMARK       I    between atoms: C_15  and  N_16 
REMARK    6  A    between atoms: N_16  and  C_17 
REMARK    7  A    between atoms: C_17  and  C_18 
REMARK    8  A    between atoms: C_18  and  C_19 
REMARK    9  A    between atoms: C_21  and  O_22 
REMARK   10  A    between atoms: C_24  and  O_25 
ROOT
HETATM    1  C   UNL     1      35.699  56.733  38.936  1.00  0.00     0.063 C 
HETATM    2  C   UNL     1      35.946  55.294  39.324  1.00  0.00     0.007 C 
HETATM    3  C   UNL     1      36.956  55.001  40.169  1.00  0.00     0.094 C 
ENDROOT
BRANCH   2   4
HETATM    4  N   UNL     1      35.052  54.368  38.799  1.00  0.00    -0.207 NA
HETATM    5  H   UNL     1      34.766  54.608  37.829  1.00  0.00     0.152 HD
BRANCH   4   6
HETATM    6  N   UNL     1      33.917  53.993  39.553  1.00  0.00    -0.283 N 
HETATM    7  C   UNL     1      33.429  52.711  39.333  1.00  0.00     0.266 C 
HETATM    8  O   UNL     1      34.046  51.845  38.720  1.00  0.00    -0.266 OA
HETATM    9  H   UNL     1      33.274  54.744  39.778  1.00  0.00     0.184 HD
BRANCH   7  10
HETATM   10  C   UNL     1      32.048  52.444  39.820  1.00  0.00     0.033 A 
HETATM   11  C   UNL     1      31.441  53.212  40.820  1.00  0.00     0.019 A 
HETATM   12  C   UNL     1      30.124  52.939  41.209  1.00  0.00     0.024 A 
HETATM   13  C   UNL     1      29.416  51.872  40.648  1.00  0.00     0.005 A 
HETATM   14  C   UNL     1      30.014  51.136  39.625  1.00  0.00     0.024 A 
HETATM   15  C   UNL     1      31.329  51.399  39.229  1.00  0.00     0.019 A 
BRANCH  13  16
HETATM   16  N   UNL     1      28.060  51.696  40.944  1.00  0.00    -0.303 NA
HETATM   17  H   UNL     1      27.708  52.321  41.662  1.00  0.00     0.124 HD
HETATM   18  H   UNL     1      27.804  50.729  41.121  1.00  0.00     0.124 HD
ENDBRANCH  13  16
ENDBRANCH   7  10
ENDBRANCH   4   6
ENDBRANCH   2   4
BRANCH   3  19
HETATM   19  C   UNL     1      37.246  53.609  40.590  1.00  0.00     0.242 C 
HETATM   20  N   UNL     1      36.331  53.107  41.485  1.00  0.00    -0.357 N 
HETATM   21  H   UNL     1      35.589  53.701  41.830  1.00  0.00     0.162 HD
HETATM   22  O   UNL     1      38.237  53.006  40.202  1.00  0.00    -0.269 OA
BRANCH  20  23
HETATM   23  C   UNL     1      36.566  51.841  42.167  1.00  0.00     0.127 C 
BRANCH  23  24
HETATM   24  C   UNL     1      35.999  50.649  41.372  1.00  0.00     0.058 C 
BRANCH  24  25
HETATM   25  C   UNL     1      34.611  50.198  41.768  1.00  0.00    -0.054 A 
HETATM   26  C   UNL     1      33.862  50.917  42.711  1.00  0.00     0.046 A 
HETATM   27  C   UNL     1      32.551  50.552  43.039  1.00  0.00     0.102 A 
HETATM   28  C   UNL     1      31.963  49.440  42.407  1.00  0.00     0.101 A 
HETATM   29  C   UNL     1      32.697  48.730  41.450  1.00  0.00     0.040 A 
HETATM   30  C   UNL     1      34.007  49.110  41.132  1.00  0.00     0.010 A 
BRANCH  27  31
HETATM   31  O   UNL     1      31.776  51.211  43.962  1.00  0.00    -0.353 OA
HETATM   32  C   UNL     1      32.455  52.041  44.898  1.00  0.00     0.210 C 
ENDBRANCH  27  31
BRANCH  28  33
HETATM   33  O   UNL     1      30.675  49.146  42.779  1.00  0.00    -0.353 OA
HETATM   34  C   UNL     1      29.883  48.395  41.874  1.00  0.00     0.210 C 
ENDBRANCH  28  33
ENDBRANCH  24  25
ENDBRANCH  23  24
ENDBRANCH  20  23
ENDBRANCH   3  19
TORSDOF 10
ENDMDL
MODEL 10
REMARK VINA RESULT:      -7.8      2.796      8.158
REMARK  10 active torsions:
REMARK  status: ('A' for Active; 'I' for Inactive)
REMARK    1  A    between atoms: C_2  and  N_3 
REMARK    2  A    between atoms: N_3  and  N_4 
REMARK       I    between atoms: N_4  and  C_5 
REMARK    3  A    between atoms: C_5  and  C_6 
REMARK    4  A    between atoms: C_9  and  N_10 
REMARK    5  A    between atoms: C_14  and  C_15 
REMARK       I    between atoms: C_15  and  N_16 
REMARK    6  A    between atoms: N_16  and  C_17 
REMARK    7  A    between atoms: C_17  and  C_18 
REMARK    8  A    between atoms: C_18  and  C_19 
REMARK    9  A    between atoms: C_21  and  O_22 
REMARK   10  A    between atoms: C_24  and  O_25 
ROOT
HETATM    1  C   UNL     1      29.137  39.913  51.694  1.00  0.00     0.063 C 
HETATM    2  C   UNL     1      28.341  41.161  51.394  1.00  0.00     0.007 C 
HETATM    3  C   UNL     1      27.103  41.047  50.870  1.00  0.00     0.094 C 
ENDROOT
BRANCH   2   4
HETATM    4  N   UNL     1      28.952  42.361  51.740  1.00  0.00    -0.207 NA
HETATM    5  H   UNL     1      29.667  42.650  51.042  1.00  0.00     0.152 HD
BRANCH   4   6
HETATM    6  N   UNL     1      29.465  42.529  53.045  1.00  0.00    -0.283 N 
HETATM    7  C   UNL     1      28.835  43.483  53.835  1.00  0.00     0.266 C 
HETATM    8  O   UNL     1      27.757  43.997  53.550  1.00  0.00    -0.266 OA
HETATM    9  H   UNL     1      30.460  42.368  53.149  1.00  0.00     0.184 HD
BRANCH   7  10
HETATM   10  C   UNL     1      29.583  43.930  55.042  1.00  0.00     0.033 A 
HETATM   11  C   UNL     1      29.334  45.156  55.670  1.00  0.00     0.019 A 
HETATM   12  C   UNL     1      30.041  45.505  56.826  1.00  0.00     0.024 A 
HETATM   13  C   UNL     1      31.035  44.668  57.341  1.00  0.00     0.005 A 
HETATM   14  C   UNL     1      31.251  43.431  56.732  1.00  0.00     0.024 A 
HETATM   15  C   UNL     1      30.551  43.072  55.576  1.00  0.00     0.019 A 
BRANCH  13  16
HETATM   16  N   UNL     1      31.635  44.963  58.570  1.00  0.00    -0.303 NA
HETATM   17  H   UNL     1      31.271  45.797  59.019  1.00  0.00     0.124 HD
HETATM   18  H   UNL     1      32.651  44.959  58.539  1.00  0.00     0.124 HD
ENDBRANCH  13  16
ENDBRANCH   7  10
ENDBRANCH   4   6
ENDBRANCH   2   4
BRANCH   3  19
HETATM   19  C   UNL     1      26.273  42.235  50.557  1.00  0.00     0.242 C 
HETATM   20  N   UNL     1      25.638  42.762  51.657  1.00  0.00    -0.357 N 
HETATM   21  H   UNL     1      25.721  42.302  52.553  1.00  0.00     0.162 HD
HETATM   22  O   UNL     1      26.143  42.654  49.415  1.00  0.00    -0.269 OA
BRANCH  20  23
HETATM   23  C   UNL     1      24.620  43.794  51.510  1.00  0.00     0.127 C 
BRANCH  23  24
HETATM   24  C   UNL     1      25.242  45.200  51.408  1.00  0.00     0.058 C 
BRANCH  24  25
HETATM   25  C   UNL     1      24.615  46.122  50.385  1.00  0.00    -0.054 A 
HETATM   26  C   UNL     1      23.568  45.680  49.565  1.00  0.00     0.046 A 
HETATM   27  C   UNL     1      22.932  46.539  48.661  1.00  0.00     0.102 A 
HETATM   28  C   UNL     1      23.346  47.881  48.573  1.00  0.00     0.101 A 
HETATM   29  C   UNL     1      24.376  48.335  49.404  1.00  0.00     0.040 A 
HETATM   30  C   UNL     1      25.001  47.463  50.304  1.00  0.00     0.010 A 
BRANCH  27  31
HETATM   31  O   UNL     1      21.910  46.158  47.825  1.00  0.00    -0.353 OA
HETATM   32  C   UNL     1      20.703  45.721  48.440  1.00  0.00     0.210 C 
ENDBRANCH  27  31
BRANCH  28  33
HETATM   33  O   UNL     1      22.673  48.662  47.666  1.00  0.00    -0.353 OA
HETATM   34  C   UNL     1      22.832  50.068  47.761  1.00  0.00     0.210 C 
ENDBRANCH  28  33
ENDBRANCH  24  25
ENDBRANCH  23  24
ENDBRANCH  20  23
ENDBRANCH   3  19
TORSDOF 10
ENDMDL
