MODEL 1
REMARK VINA RESULT:      -9.6      0.000      0.000
REMARK  6 active torsions:
REMARK  status: ('A' for Active; 'I' for Inactive)
REMARK    1  A    between atoms: C_2  and  N_3 
REMARK    2  A    between atoms: C_2  and  C_12 
REMARK       I    between atoms: N_3  and  C_4 
REMARK    3  A    between atoms: C_4  and  C_5 
REMARK    4  A    between atoms: C_12  and  C_13 
REMARK       I    between atoms: C_13  and  N_14 
REMARK    5  A    between atoms: N_14  and  C_15 
REMARK    6  A    between atoms: C_17  and  C_18 
ROOT
HETATM    1  C   UNL     1      25.490  44.152  52.918  1.00  0.00     0.224 C 
HETATM    2  N   UNL     1      26.775  44.651  52.879  1.00  0.00    -0.327 N 
HETATM    3  O   UNL     1      24.742  44.123  53.890  1.00  0.00    -0.273 OA
HETATM    4  H   UNL     1      27.218  44.657  51.956  1.00  0.00     0.169 HD
ENDROOT
BRANCH   1   5
HETATM    5  C   UNL     1      25.022  43.634  51.567  1.00  0.00     0.128 C 
BRANCH   5   6
HETATM    6  C   UNL     1      24.081  44.654  50.903  1.00  0.00     0.089 C 
HETATM    7  C   UNL     1      23.116  43.931  49.958  1.00  0.00     0.032 C 
BRANCH   6   8
HETATM    8  N   UNL     1      24.765  45.717  50.152  1.00  0.00    -0.352 N 
HETATM    9  C   UNL     1      25.002  46.978  50.660  1.00  0.00     0.252 C 
HETATM   10  O   UNL     1      24.991  47.246  51.857  1.00  0.00    -0.268 OA
HETATM   11  H   UNL     1      24.815  45.603  49.148  1.00  0.00     0.163 HD
BRANCH   9  12
HETATM   12  C   UNL     1      25.292  48.052  49.675  1.00  0.00     0.032 A 
HETATM   13  C   UNL     1      24.266  48.734  49.009  1.00  0.00     0.017 A 
HETATM   14  C   UNL     1      24.578  49.781  48.138  1.00  0.00     0.001 A 
HETATM   15  C   UNL     1      25.907  50.151  47.936  1.00  0.00     0.000 A 
HETATM   16  C   UNL     1      26.930  49.481  48.608  1.00  0.00     0.001 A 
HETATM   17  C   UNL     1      26.623  48.437  49.482  1.00  0.00     0.017 A 
ENDBRANCH   9  12
ENDBRANCH   6   8
ENDBRANCH   5   6
ENDBRANCH   1   5
BRANCH   2  18
HETATM   18  C   UNL     1      27.539  45.216  53.917  1.00  0.00     0.035 A 
HETATM   19  C   UNL     1      28.563  44.551  54.595  1.00  0.00     0.042 A 
HETATM   20  C   UNL     1      29.275  45.187  55.629  1.00  0.00    -0.021 A 
HETATM   21  C   UNL     1      28.948  46.510  55.962  1.00  0.00     0.012 A 
HETATM   22  C   UNL     1      27.928  47.180  55.290  1.00  0.00     0.003 A 
HETATM   23  C   UNL     1      27.225  46.532  54.277  1.00  0.00     0.029 A 
BRANCH  20  24
HETATM   24  C   UNL     1      30.324  44.496  56.365  1.00  0.00     0.010 A 
HETATM   25  C   UNL     1      30.949  44.808  57.597  1.00  0.00     0.152 A 
HETATM   26  N   UNL     1      31.888  43.922  57.944  1.00  0.00    -0.187 NA
HETATM   27  N   UNL     1      31.865  43.035  56.936  1.00  0.00    -0.289 N 
HETATM   28  H   UNL     1      32.504  42.248  56.974  1.00  0.00     0.188 HD
HETATM   29  C   UNL     1      30.953  43.335  55.968  1.00  0.00     0.123 A 
ENDBRANCH  20  24
ENDBRANCH   2  18
TORSDOF 6
ENDMDL
MODEL 2
REMARK VINA RESULT:      -9.2      1.615      2.677
REMARK  6 active torsions:
REMARK  status: ('A' for Active; 'I' for Inactive)
REMARK    1  A    between atoms: C_2  and  N_3 
REMARK    2  A    between atoms: C_2  and  C_12 
REMARK       I    between atoms: N_3  and  C_4 
REMARK    3  A    between atoms: C_4  and  C_5 
REMARK    4  A    between atoms: C_12  and  C_13 
REMARK       I    between atoms: C_13  and  N_14 
REMARK    5  A    between atoms: N_14  and  C_15 
REMARK    6  A    between atoms: C_17  and  C_18 
ROOT
HETATM    1  C   UNL     1      25.853  44.382  53.070  1.00  0.00     0.224 C 
HETATM    2  N   UNL     1      27.164  44.463  52.652  1.00  0.00    -0.327 N 
HETATM    3  O   UNL     1      25.447  43.913  54.129  1.00  0.00    -0.273 OA
HETATM    4  H   UNL     1      27.314  44.957  51.767  1.00  0.00     0.169 HD
ENDROOT
BRANCH   1   5
HETATM    5  C   UNL     1      24.880  44.987  52.070  1.00  0.00     0.128 C 
BRANCH   5   6
HETATM    6  C   UNL     1      25.395  46.355  51.588  1.00  0.00     0.089 C 
HETATM    7  C   UNL     1      25.486  47.321  52.773  1.00  0.00     0.032 C 
BRANCH   6   8
HETATM    8  N   UNL     1      24.581  46.978  50.535  1.00  0.00    -0.352 N 
HETATM    9  C   UNL     1      25.054  47.955  49.683  1.00  0.00     0.252 C 
HETATM   10  O   UNL     1      26.245  48.163  49.475  1.00  0.00    -0.268 OA
HETATM   11  H   UNL     1      23.577  46.881  50.621  1.00  0.00     0.163 HD
BRANCH   9  12
HETATM   12  C   UNL     1      24.036  48.784  48.986  1.00  0.00     0.032 A 
HETATM   13  C   UNL     1      22.684  48.421  48.963  1.00  0.00     0.017 A 
HETATM   14  C   UNL     1      21.749  49.260  48.351  1.00  0.00     0.001 A 
HETATM   15  C   UNL     1      22.160  50.459  47.769  1.00  0.00     0.000 A 
HETATM   16  C   UNL     1      23.505  50.828  47.802  1.00  0.00     0.001 A 
HETATM   17  C   UNL     1      24.442  49.995  48.415  1.00  0.00     0.017 A 
ENDBRANCH   9  12
ENDBRANCH   6   8
ENDBRANCH   5   6
ENDBRANCH   1   5
BRANCH   2  18
HETATM   18  C   UNL     1      28.332  44.024  53.302  1.00  0.00     0.035 A 
HETATM   19  C   UNL     1      28.762  44.486  54.549  1.00  0.00     0.042 A 
HETATM   20  C   UNL     1      29.949  44.001  55.127  1.00  0.00    -0.021 A 
HETATM   21  C   UNL     1      30.692  43.033  54.437  1.00  0.00     0.012 A 
HETATM   22  C   UNL     1      30.269  42.566  53.195  1.00  0.00     0.003 A 
HETATM   23  C   UNL     1      29.098  43.066  52.629  1.00  0.00     0.029 A 
BRANCH  20  24
HETATM   24  C   UNL     1      30.424  44.496  56.412  1.00  0.00     0.010 A 
HETATM   25  C   UNL     1      31.342  43.939  57.336  1.00  0.00     0.152 A 
HETATM   26  N   UNL     1      31.516  44.700  58.421  1.00  0.00    -0.187 NA
HETATM   27  N   UNL     1      30.713  45.751  58.194  1.00  0.00    -0.289 N 
HETATM   28  H   UNL     1      30.673  46.485  58.893  1.00  0.00     0.188 HD
HETATM   29  C   UNL     1      30.037  45.676  57.012  1.00  0.00     0.123 A 
ENDBRANCH  20  24
ENDBRANCH   2  18
TORSDOF 6
ENDMDL
MODEL 3
REMARK VINA RESULT:      -9.0      1.667      2.527
REMARK  6 active torsions:
REMARK  status: ('A' for Active; 'I' for Inactive)
REMARK    1  A    between atoms: C_2  and  N_3 
REMARK    2  A    between atoms: C_2  and  C_12 
REMARK       I    between atoms: N_3  and  C_4 
REMARK    3  A    between atoms: C_4  and  C_5 
REMARK    4  A    between atoms: C_12  and  C_13 
REMARK       I    between atoms: C_13  and  N_14 
REMARK    5  A    between atoms: N_14  and  C_15 
REMARK    6  A    between atoms: C_17  and  C_18 
ROOT
HETATM    1  C   UNL     1      26.437  43.498  51.077  1.00  0.00     0.224 C 
HETATM    2  N   UNL     1      26.706  43.142  52.381  1.00  0.00    -0.327 N 
HETATM    3  O   UNL     1      27.232  43.956  50.261  1.00  0.00    -0.273 OA
HETATM    4  H   UNL     1      25.929  42.706  52.888  1.00  0.00     0.169 HD
ENDROOT
BRANCH   1   5
HETATM    5  C   UNL     1      24.992  43.235  50.684  1.00  0.00     0.128 C 
BRANCH   5   6
HETATM    6  C   UNL     1      24.222  44.562  50.571  1.00  0.00     0.089 C 
HETATM    7  C   UNL     1      22.969  44.363  49.712  1.00  0.00     0.032 C 
BRANCH   6   8
HETATM    8  N   UNL     1      25.002  45.675  50.013  1.00  0.00    -0.352 N 
HETATM    9  C   UNL     1      25.172  46.885  50.656  1.00  0.00     0.252 C 
HETATM   10  O   UNL     1      25.001  47.049  51.859  1.00  0.00    -0.268 OA
HETATM   11  H   UNL     1      25.186  45.647  49.019  1.00  0.00     0.163 HD
BRANCH   9  12
HETATM   12  C   UNL     1      25.593  48.035  49.815  1.00  0.00     0.032 A 
HETATM   13  C   UNL     1      26.942  48.383  49.669  1.00  0.00     0.017 A 
HETATM   14  C   UNL     1      27.302  49.432  48.819  1.00  0.00     0.001 A 
HETATM   15  C   UNL     1      26.321  50.128  48.113  1.00  0.00     0.000 A 
HETATM   16  C   UNL     1      24.978  49.776  48.248  1.00  0.00     0.001 A 
HETATM   17  C   UNL     1      24.614  48.726  49.093  1.00  0.00     0.017 A 
ENDBRANCH   9  12
ENDBRANCH   6   8
ENDBRANCH   5   6
ENDBRANCH   1   5
BRANCH   2  18
HETATM   18  C   UNL     1      27.916  43.228  53.093  1.00  0.00     0.035 A 
HETATM   19  C   UNL     1      28.110  44.023  54.227  1.00  0.00     0.042 A 
HETATM   20  C   UNL     1      29.356  44.060  54.877  1.00  0.00    -0.021 A 
HETATM   21  C   UNL     1      30.404  43.273  54.377  1.00  0.00     0.012 A 
HETATM   22  C   UNL     1      30.219  42.478  53.249  1.00  0.00     0.003 A 
HETATM   23  C   UNL     1      28.982  42.462  52.608  1.00  0.00     0.029 A 
BRANCH  20  24
HETATM   24  C   UNL     1      29.581  44.906  56.040  1.00  0.00     0.010 A 
HETATM   25  C   UNL     1      30.705  45.027  56.893  1.00  0.00     0.152 A 
HETATM   26  N   UNL     1      30.524  45.920  57.872  1.00  0.00    -0.187 NA
HETATM   27  N   UNL     1      29.282  46.379  57.646  1.00  0.00    -0.289 N 
HETATM   28  H   UNL     1      28.911  47.085  58.271  1.00  0.00     0.188 HD
HETATM   29  C   UNL     1      28.677  45.803  56.568  1.00  0.00     0.123 A 
ENDBRANCH  20  24
ENDBRANCH   2  18
TORSDOF 6
ENDMDL
MODEL 4
REMARK VINA RESULT:      -8.9      4.353      7.919
REMARK  6 active torsions:
REMARK  status: ('A' for Active; 'I' for Inactive)
REMARK    1  A    between atoms: C_2  and  N_3 
REMARK    2  A    between atoms: C_2  and  C_12 
REMARK       I    between atoms: N_3  and  C_4 
REMARK    3  A    between atoms: C_4  and  C_5 
REMARK    4  A    between atoms: C_12  and  C_13 
REMARK       I    between atoms: C_13  and  N_14 
REMARK    5  A    between atoms: N_14  and  C_15 
REMARK    6  A    between atoms: C_17  and  C_18 
ROOT
HETATM    1  C   UNL     1      27.027  44.382  50.685  1.00  0.00     0.224 C 
HETATM    2  N   UNL     1      27.015  43.043  51.013  1.00  0.00    -0.327 N 
HETATM    3  O   UNL     1      27.300  44.869  49.592  1.00  0.00    -0.273 OA
HETATM    4  H   UNL     1      26.688  42.824  51.959  1.00  0.00     0.169 HD
ENDROOT
BRANCH   1   5
HETATM    5  C   UNL     1      26.618  45.273  51.848  1.00  0.00     0.128 C 
BRANCH   5   6
HETATM    6  C   UNL     1      26.623  44.470  53.160  1.00  0.00     0.089 C 
HETATM    7  C   UNL     1      25.298  44.680  53.901  1.00  0.00     0.032 C 
BRANCH   6   8
HETATM    8  N   UNL     1      27.728  44.797  54.073  1.00  0.00    -0.352 N 
HETATM    9  C   UNL     1      28.944  44.145  54.062  1.00  0.00     0.252 C 
HETATM   10  O   UNL     1      29.360  43.488  53.112  1.00  0.00    -0.268 OA
HETATM   11  H   UNL     1      27.490  45.324  54.902  1.00  0.00     0.163 HD
BRANCH   9  12
HETATM   12  C   UNL     1      29.780  44.268  55.284  1.00  0.00     0.032 A 
HETATM   13  C   UNL     1      29.633  45.344  56.169  1.00  0.00     0.017 A 
HETATM   14  C   UNL     1      30.394  45.391  57.340  1.00  0.00     0.001 A 
HETATM   15  C   UNL     1      31.294  44.366  57.630  1.00  0.00     0.000 A 
HETATM   16  C   UNL     1      31.434  43.287  56.756  1.00  0.00     0.001 A 
HETATM   17  C   UNL     1      30.673  43.235  55.588  1.00  0.00     0.017 A 
ENDBRANCH   9  12
ENDBRANCH   6   8
ENDBRANCH   5   6
ENDBRANCH   1   5
BRANCH   2  18
HETATM   18  C   UNL     1      27.322  41.930  50.209  1.00  0.00     0.035 A 
HETATM   19  C   UNL     1      27.823  40.719  50.696  1.00  0.00     0.042 A 
HETATM   20  C   UNL     1      28.113  39.656  49.822  1.00  0.00    -0.021 A 
HETATM   21  C   UNL     1      27.879  39.823  48.450  1.00  0.00     0.012 A 
HETATM   22  C   UNL     1      27.380  41.027  47.957  1.00  0.00     0.003 A 
HETATM   23  C   UNL     1      27.110  42.075  48.834  1.00  0.00     0.029 A 
BRANCH  20  24
HETATM   24  C   UNL     1      28.663  38.400  50.312  1.00  0.00     0.010 A 
HETATM   25  C   UNL     1      29.895  38.116  50.952  1.00  0.00     0.152 A 
HETATM   26  N   UNL     1      30.043  36.821  51.247  1.00  0.00    -0.187 NA
HETATM   27  N   UNL     1      28.903  36.269  50.801  1.00  0.00    -0.289 N 
HETATM   28  H   UNL     1      28.776  35.270  50.917  1.00  0.00     0.188 HD
HETATM   29  C   UNL     1      28.050  37.167  50.232  1.00  0.00     0.123 A 
ENDBRANCH  20  24
ENDBRANCH   2  18
TORSDOF 6
ENDMDL
MODEL 5
REMARK VINA RESULT:      -8.7      2.338      9.064
REMARK  6 active torsions:
REMARK  status: ('A' for Active; 'I' for Inactive)
REMARK    1  A    between atoms: C_2  and  N_3 
REMARK    2  A    between atoms: C_2  and  C_12 
REMARK       I    between atoms: N_3  and  C_4 
REMARK    3  A    between atoms: C_4  and  C_5 
REMARK    4  A    between atoms: C_12  and  C_13 
REMARK       I    between atoms: C_13  and  N_14 
REMARK    5  A    between atoms: N_14  and  C_15 
REMARK    6  A    between atoms: C_17  and  C_18 
ROOT
HETATM    1  C   UNL     1      25.259  45.359  51.693  1.00  0.00     0.224 C 
HETATM    2  N   UNL     1      25.934  46.537  51.454  1.00  0.00    -0.327 N 
HETATM    3  O   UNL     1      24.297  44.922  51.068  1.00  0.00    -0.273 OA
HETATM    4  H   UNL     1      26.761  46.697  52.036  1.00  0.00     0.169 HD
ENDROOT
BRANCH   1   5
HETATM    5  C   UNL     1      25.853  44.569  52.849  1.00  0.00     0.128 C 
BRANCH   5   6
HETATM    6  C   UNL     1      27.389  44.660  52.822  1.00  0.00     0.089 C 
HETATM    7  C   UNL     1      27.947  43.673  51.791  1.00  0.00     0.032 C 
BRANCH   6   8
HETATM    8  N   UNL     1      28.039  44.405  54.115  1.00  0.00    -0.352 N 
HETATM    9  C   UNL     1      28.640  45.390  54.873  1.00  0.00     0.252 C 
HETATM   10  O   UNL     1      28.412  46.588  54.742  1.00  0.00    -0.268 OA
HETATM   11  H   UNL     1      28.288  43.446  54.317  1.00  0.00     0.163 HD
BRANCH   9  12
HETATM   12  C   UNL     1      29.611  44.941  55.904  1.00  0.00     0.032 A 
HETATM   13  C   UNL     1      30.450  43.839  55.693  1.00  0.00     0.017 A 
HETATM   14  C   UNL     1      31.394  43.488  56.661  1.00  0.00     0.001 A 
HETATM   15  C   UNL     1      31.505  44.236  57.833  1.00  0.00     0.000 A 
HETATM   16  C   UNL     1      30.679  45.341  58.041  1.00  0.00     0.001 A 
HETATM   17  C   UNL     1      29.738  45.698  57.074  1.00  0.00     0.017 A 
ENDBRANCH   9  12
ENDBRANCH   6   8
ENDBRANCH   5   6
ENDBRANCH   1   5
BRANCH   2  18
HETATM   18  C   UNL     1      25.688  47.517  50.475  1.00  0.00     0.035 A 
HETATM   19  C   UNL     1      24.414  47.927  50.072  1.00  0.00     0.042 A 
HETATM   20  C   UNL     1      24.254  48.909  49.078  1.00  0.00    -0.021 A 
HETATM   21  C   UNL     1      25.396  49.484  48.502  1.00  0.00     0.012 A 
HETATM   22  C   UNL     1      26.669  49.080  48.899  1.00  0.00     0.003 A 
HETATM   23  C   UNL     1      26.811  48.097  49.876  1.00  0.00     0.029 A 
BRANCH  20  24
HETATM   24  C   UNL     1      22.933  49.325  48.627  1.00  0.00     0.010 A 
HETATM   25  C   UNL     1      21.642  48.887  49.016  1.00  0.00     0.152 A 
HETATM   26  N   UNL     1      20.660  49.512  48.359  1.00  0.00    -0.187 NA
HETATM   27  N   UNL     1      21.318  50.357  47.549  1.00  0.00    -0.289 N 
HETATM   28  H   UNL     1      20.775  50.956  46.937  1.00  0.00     0.188 HD
HETATM   29  C   UNL     1      22.674  50.281  47.668  1.00  0.00     0.123 A 
ENDBRANCH  20  24
ENDBRANCH   2  18
TORSDOF 6
ENDMDL
MODEL 6
REMARK VINA RESULT:      -8.5      3.109      9.355
REMARK  6 active torsions:
REMARK  status: ('A' for Active; 'I' for Inactive)
REMARK    1  A    between atoms: C_2  and  N_3 
REMARK    2  A    between atoms: C_2  and  C_12 
REMARK       I    between atoms: N_3  and  C_4 
REMARK    3  A    between atoms: C_4  and  C_5 
REMARK    4  A    between atoms: C_12  and  C_13 
REMARK       I    between atoms: C_13  and  N_14 
REMARK    5  A    between atoms: N_14  and  C_15 
REMARK    6  A    between atoms: C_17  and  C_18 
ROOT
HETATM    1  C   UNL     1      25.524  47.006  50.001  1.00  0.00     0.224 C 
HETATM    2  N   UNL     1      24.570  47.339  49.064  1.00  0.00    -0.327 N 
HETATM    3  O   UNL     1      25.897  47.692  50.948  1.00  0.00    -0.273 OA
HETATM    4  H   UNL     1      24.339  46.604  48.389  1.00  0.00     0.169 HD
ENDROOT
BRANCH   1   5
HETATM    5  C   UNL     1      26.100  45.616  49.781  1.00  0.00     0.128 C 
BRANCH   5   6
HETATM    6  C   UNL     1      25.979  44.780  51.067  1.00  0.00     0.089 C 
HETATM    7  C   UNL     1      24.703  45.170  51.820  1.00  0.00     0.032 C 
BRANCH   6   8
HETATM    8  N   UNL     1      27.121  44.902  51.984  1.00  0.00    -0.352 N 
HETATM    9  C   UNL     1      27.844  43.822  52.450  1.00  0.00     0.252 C 
HETATM   10  O   UNL     1      27.848  42.720  51.912  1.00  0.00    -0.268 OA
HETATM   11  H   UNL     1      27.202  45.771  52.495  1.00  0.00     0.163 HD
BRANCH   9  12
HETATM   12  C   UNL     1      28.659  44.040  53.673  1.00  0.00     0.032 A 
HETATM   13  C   UNL     1      29.761  43.231  53.975  1.00  0.00     0.017 A 
HETATM   14  C   UNL     1      30.540  43.508  55.101  1.00  0.00     0.001 A 
HETATM   15  C   UNL     1      30.224  44.593  55.920  1.00  0.00     0.000 A 
HETATM   16  C   UNL     1      29.134  45.408  55.614  1.00  0.00     0.001 A 
HETATM   17  C   UNL     1      28.356  45.137  54.488  1.00  0.00     0.017 A 
ENDBRANCH   9  12
ENDBRANCH   6   8
ENDBRANCH   5   6
ENDBRANCH   1   5
BRANCH   2  18
HETATM   18  C   UNL     1      23.817  48.522  48.946  1.00  0.00     0.035 A 
HETATM   19  C   UNL     1      22.500  48.668  49.390  1.00  0.00     0.042 A 
HETATM   20  C   UNL     1      21.814  49.885  49.226  1.00  0.00    -0.021 A 
HETATM   21  C   UNL     1      22.478  50.960  48.619  1.00  0.00     0.012 A 
HETATM   22  C   UNL     1      23.791  50.824  48.175  1.00  0.00     0.003 A 
HETATM   23  C   UNL     1      24.453  49.608  48.333  1.00  0.00     0.029 A 
BRANCH  20  24
HETATM   24  C   UNL     1      20.432  50.040  49.657  1.00  0.00     0.010 A 
HETATM   25  C   UNL     1      19.664  51.206  49.901  1.00  0.00     0.152 A 
HETATM   26  N   UNL     1      18.417  50.936  50.297  1.00  0.00    -0.187 NA
HETATM   27  N   UNL     1      18.378  49.593  50.304  1.00  0.00    -0.289 N 
HETATM   28  H   UNL     1      17.513  49.139  50.575  1.00  0.00     0.188 HD
HETATM   29  C   UNL     1      19.555  49.013  49.934  1.00  0.00     0.123 A 
ENDBRANCH  20  24
ENDBRANCH   2  18
TORSDOF 6
ENDMDL
MODEL 7
REMARK VINA RESULT:      -8.4      3.862      5.874
REMARK  6 active torsions:
REMARK  status: ('A' for Active; 'I' for Inactive)
REMARK    1  A    between atoms: C_2  and  N_3 
REMARK    2  A    between atoms: C_2  and  C_12 
REMARK       I    between atoms: N_3  and  C_4 
REMARK    3  A    between atoms: C_4  and  C_5 
REMARK    4  A    between atoms: C_12  and  C_13 
REMARK       I    between atoms: C_13  and  N_14 
REMARK    5  A    between atoms: N_14  and  C_15 
REMARK    6  A    between atoms: C_17  and  C_18 
ROOT
HETATM    1  C   UNL     1      26.591  44.210  51.726  1.00  0.00     0.224 C 
HETATM    2  N   UNL     1      26.430  44.516  53.061  1.00  0.00    -0.327 N 
HETATM    3  O   UNL     1      27.584  44.425  51.036  1.00  0.00    -0.273 OA
HETATM    4  H   UNL     1      25.557  44.191  53.485  1.00  0.00     0.169 HD
ENDROOT
BRANCH   1   5
HETATM    5  C   UNL     1      25.377  43.509  51.136  1.00  0.00     0.128 C 
BRANCH   5   6
HETATM    6  C   UNL     1      25.789  42.677  49.908  1.00  0.00     0.089 C 
HETATM    7  C   UNL     1      24.599  41.840  49.428  1.00  0.00     0.032 C 
BRANCH   6   8
HETATM    8  N   UNL     1      26.933  41.783  50.133  1.00  0.00    -0.352 N 
HETATM    9  C   UNL     1      27.669  41.216  49.112  1.00  0.00     0.252 C 
HETATM   10  O   UNL     1      27.684  41.641  47.962  1.00  0.00    -0.268 OA
HETATM   11  H   UNL     1      27.006  41.361  51.049  1.00  0.00     0.163 HD
BRANCH   9  12
HETATM   12  C   UNL     1      28.487  40.024  49.460  1.00  0.00     0.032 A 
HETATM   13  C   UNL     1      28.791  39.705  50.789  1.00  0.00     0.017 A 
HETATM   14  C   UNL     1      29.509  38.541  51.078  1.00  0.00     0.001 A 
HETATM   15  C   UNL     1      29.916  37.696  50.046  1.00  0.00     0.000 A 
HETATM   16  C   UNL     1      29.603  38.006  48.722  1.00  0.00     0.001 A 
HETATM   17  C   UNL     1      28.883  39.165  48.429  1.00  0.00     0.017 A 
ENDBRANCH   9  12
ENDBRANCH   6   8
ENDBRANCH   5   6
ENDBRANCH   1   5
BRANCH   2  18
HETATM   18  C   UNL     1      27.327  45.150  53.940  1.00  0.00     0.035 A 
HETATM   19  C   UNL     1      28.342  44.494  54.641  1.00  0.00     0.042 A 
HETATM   20  C   UNL     1      29.193  45.202  55.509  1.00  0.00    -0.021 A 
HETATM   21  C   UNL     1      29.015  46.586  55.652  1.00  0.00     0.012 A 
HETATM   22  C   UNL     1      28.006  47.247  54.956  1.00  0.00     0.003 A 
HETATM   23  C   UNL     1      27.164  46.530  54.109  1.00  0.00     0.029 A 
BRANCH  20  24
HETATM   24  C   UNL     1      30.235  44.526  56.269  1.00  0.00     0.010 A 
HETATM   25  C   UNL     1      30.806  44.830  57.530  1.00  0.00     0.152 A 
HETATM   26  N   UNL     1      31.757  43.964  57.893  1.00  0.00    -0.187 NA
HETATM   27  N   UNL     1      31.797  43.098  56.868  1.00  0.00    -0.289 N 
HETATM   28  H   UNL     1      32.456  42.330  56.913  1.00  0.00     0.188 HD
HETATM   29  C   UNL     1      30.911  43.392  55.873  1.00  0.00     0.123 A 
ENDBRANCH  20  24
ENDBRANCH   2  18
TORSDOF 6
ENDMDL
MODEL 8
REMARK VINA RESULT:      -8.3      2.680      8.569
REMARK  6 active torsions:
REMARK  status: ('A' for Active; 'I' for Inactive)
REMARK    1  A    between atoms: C_2  and  N_3 
REMARK    2  A    between atoms: C_2  and  C_12 
REMARK       I    between atoms: N_3  and  C_4 
REMARK    3  A    between atoms: C_4  and  C_5 
REMARK    4  A    between atoms: C_12  and  C_13 
REMARK       I    between atoms: C_13  and  N_14 
REMARK    5  A    between atoms: N_14  and  C_15 
REMARK    6  A    between atoms: C_17  and  C_18 
ROOT
HETATM    1  C   UNL     1      24.403  43.878  50.834  1.00  0.00     0.224 C 
HETATM    2  N   UNL     1      24.712  44.632  49.722  1.00  0.00    -0.327 N 
HETATM    3  O   UNL     1      24.005  44.294  51.918  1.00  0.00    -0.273 OA
HETATM    4  H   UNL     1      24.957  44.099  48.883  1.00  0.00     0.169 HD
ENDROOT
BRANCH   1   5
HETATM    5  C   UNL     1      24.573  42.386  50.595  1.00  0.00     0.128 C 
BRANCH   5   6
HETATM    6  C   UNL     1      26.051  41.988  50.751  1.00  0.00     0.089 C 
HETATM    7  C   UNL     1      26.178  40.461  50.762  1.00  0.00     0.032 C 
BRANCH   6   8
HETATM    8  N   UNL     1      26.704  42.522  51.955  1.00  0.00    -0.352 N 
HETATM    9  C   UNL     1      27.672  43.505  51.924  1.00  0.00     0.252 C 
HETATM   10  O   UNL     1      27.847  44.263  50.977  1.00  0.00    -0.268 OA
HETATM   11  H   UNL     1      26.635  41.962  52.794  1.00  0.00     0.163 HD
BRANCH   9  12
HETATM   12  C   UNL     1      28.534  43.632  53.128  1.00  0.00     0.032 A 
HETATM   13  C   UNL     1      29.680  42.845  53.297  1.00  0.00     0.017 A 
HETATM   14  C   UNL     1      30.499  43.039  54.413  1.00  0.00     0.001 A 
HETATM   15  C   UNL     1      30.179  44.017  55.353  1.00  0.00     0.000 A 
HETATM   16  C   UNL     1      29.044  44.811  55.181  1.00  0.00     0.001 A 
HETATM   17  C   UNL     1      28.226  44.623  54.067  1.00  0.00     0.017 A 
ENDBRANCH   9  12
ENDBRANCH   6   8
ENDBRANCH   5   6
ENDBRANCH   1   5
BRANCH   2  18
HETATM   18  C   UNL     1      24.669  46.029  49.558  1.00  0.00     0.035 A 
HETATM   19  C   UNL     1      23.528  46.746  49.188  1.00  0.00     0.042 A 
HETATM   20  C   UNL     1      23.571  48.143  49.036  1.00  0.00    -0.021 A 
HETATM   21  C   UNL     1      24.780  48.813  49.275  1.00  0.00     0.012 A 
HETATM   22  C   UNL     1      25.922  48.106  49.645  1.00  0.00     0.003 A 
HETATM   23  C   UNL     1      25.865  46.720  49.779  1.00  0.00     0.029 A 
BRANCH  20  24
HETATM   24  C   UNL     1      22.398  48.899  48.622  1.00  0.00     0.010 A 
HETATM   25  C   UNL     1      21.021  48.689  48.885  1.00  0.00     0.152 A 
HETATM   26  N   UNL     1      20.235  49.607  48.316  1.00  0.00    -0.187 NA
HETATM   27  N   UNL     1      21.106  50.414  47.688  1.00  0.00    -0.289 N 
HETATM   28  H   UNL     1      20.740  51.207  47.173  1.00  0.00     0.188 HD
HETATM   29  C   UNL     1      22.406  50.032  47.836  1.00  0.00     0.123 A 
ENDBRANCH  20  24
ENDBRANCH   2  18
TORSDOF 6
ENDMDL
MODEL 9
REMARK VINA RESULT:      -8.3      2.964      5.209
REMARK  6 active torsions:
REMARK  status: ('A' for Active; 'I' for Inactive)
REMARK    1  A    between atoms: C_2  and  N_3 
REMARK    2  A    between atoms: C_2  and  C_12 
REMARK       I    between atoms: N_3  and  C_4 
REMARK    3  A    between atoms: C_4  and  C_5 
REMARK    4  A    between atoms: C_12  and  C_13 
REMARK       I    between atoms: C_13  and  N_14 
REMARK    5  A    between atoms: N_14  and  C_15 
REMARK    6  A    between atoms: C_17  and  C_18 
ROOT
HETATM    1  C   UNL     1      25.658  44.408  52.466  1.00  0.00     0.224 C 
HETATM    2  N   UNL     1      26.999  44.682  52.304  1.00  0.00    -0.327 N 
HETATM    3  O   UNL     1      25.149  43.708  53.337  1.00  0.00    -0.273 OA
HETATM    4  H   UNL     1      27.226  45.350  51.562  1.00  0.00     0.169 HD
ENDROOT
BRANCH   1   5
HETATM    5  C   UNL     1      24.788  45.110  51.434  1.00  0.00     0.128 C 
BRANCH   5   6
HETATM    6  C   UNL     1      24.460  44.152  50.276  1.00  0.00     0.089 C 
HETATM    7  C   UNL     1      22.963  43.826  50.281  1.00  0.00     0.032 C 
BRANCH   6   8
HETATM    8  N   UNL     1      25.215  42.891  50.293  1.00  0.00    -0.352 N 
HETATM    9  C   UNL     1      26.425  42.717  49.651  1.00  0.00     0.252 C 
HETATM   10  O   UNL     1      27.152  43.641  49.302  1.00  0.00    -0.268 OA
HETATM   11  H   UNL     1      24.702  42.058  50.552  1.00  0.00     0.163 HD
BRANCH   9  12
HETATM   12  C   UNL     1      26.846  41.317  49.387  1.00  0.00     0.032 A 
HETATM   13  C   UNL     1      28.000  40.775  49.968  1.00  0.00     0.017 A 
HETATM   14  C   UNL     1      28.328  39.436  49.745  1.00  0.00     0.001 A 
HETATM   15  C   UNL     1      27.505  38.637  48.951  1.00  0.00     0.000 A 
HETATM   16  C   UNL     1      26.349  39.171  48.381  1.00  0.00     0.001 A 
HETATM   17  C   UNL     1      26.016  40.508  48.604  1.00  0.00     0.017 A 
ENDBRANCH   9  12
ENDBRANCH   6   8
ENDBRANCH   5   6
ENDBRANCH   1   5
BRANCH   2  18
HETATM   18  C   UNL     1      28.095  44.227  53.061  1.00  0.00     0.035 A 
HETATM   19  C   UNL     1      28.465  44.747  54.304  1.00  0.00     0.042 A 
HETATM   20  C   UNL     1      29.582  44.241  54.993  1.00  0.00    -0.021 A 
HETATM   21  C   UNL     1      30.315  43.193  54.418  1.00  0.00     0.012 A 
HETATM   22  C   UNL     1      29.952  42.669  53.180  1.00  0.00     0.003 A 
HETATM   23  C   UNL     1      28.851  43.190  52.504  1.00  0.00     0.029 A 
BRANCH  20  24
HETATM   24  C   UNL     1      29.997  44.793  56.275  1.00  0.00     0.010 A 
HETATM   25  C   UNL     1      30.975  44.352  57.200  1.00  0.00     0.152 A 
HETATM   26  N   UNL     1      31.059  45.132  58.282  1.00  0.00    -0.187 NA
HETATM   27  N   UNL     1      30.137  46.081  58.053  1.00  0.00    -0.289 N 
HETATM   28  H   UNL     1      30.012  46.807  58.749  1.00  0.00     0.188 HD
HETATM   29  C   UNL     1      29.474  45.921  56.872  1.00  0.00     0.123 A 
ENDBRANCH  20  24
ENDBRANCH   2  18
TORSDOF 6
ENDMDL
MODEL 10
REMARK VINA RESULT:      -8.2      3.204      4.949
REMARK  6 active torsions:
REMARK  status: ('A' for Active; 'I' for Inactive)
REMARK    1  A    between atoms: C_2  and  N_3 
REMARK    2  A    between atoms: C_2  and  C_12 
REMARK       I    between atoms: N_3  and  C_4 
REMARK    3  A    between atoms: C_4  and  C_5 
REMARK    4  A    between atoms: C_12  and  C_13 
REMARK       I    between atoms: C_13  and  N_14 
REMARK    5  A    between atoms: N_14  and  C_15 
REMARK    6  A    between atoms: C_17  and  C_18 
ROOT
HETATM    1  C   UNL     1      28.556  41.097  52.494  1.00  0.00     0.224 C 
HETATM    2  N   UNL     1      29.179  42.327  52.489  1.00  0.00    -0.327 N 
HETATM    3  O   UNL     1      27.865  40.626  53.392  1.00  0.00    -0.273 OA
HETATM    4  H   UNL     1      29.652  42.578  51.616  1.00  0.00     0.169 HD
ENDROOT
BRANCH   1   5
HETATM    5  C   UNL     1      28.776  40.325  51.202  1.00  0.00     0.128 C 
BRANCH   5   6
HETATM    6  C   UNL     1      27.430  40.063  50.504  1.00  0.00     0.089 C 
HETATM    7  C   UNL     1      27.675  39.570  49.074  1.00  0.00     0.032 C 
BRANCH   6   8
HETATM    8  N   UNL     1      26.532  41.226  50.452  1.00  0.00    -0.352 N 
HETATM    9  C   UNL     1      26.754  42.325  49.646  1.00  0.00     0.252 C 
HETATM   10  O   UNL     1      27.493  42.317  48.668  1.00  0.00    -0.268 OA
HETATM   11  H   UNL     1      25.890  41.338  51.225  1.00  0.00     0.163 HD
BRANCH   9  12
HETATM   12  C   UNL     1      26.035  43.574  50.008  1.00  0.00     0.032 A 
HETATM   13  C   UNL     1      24.815  43.547  50.696  1.00  0.00     0.017 A 
HETATM   14  C   UNL     1      24.203  44.745  51.073  1.00  0.00     0.001 A 
HETATM   15  C   UNL     1      24.807  45.965  50.770  1.00  0.00     0.000 A 
HETATM   16  C   UNL     1      26.028  45.994  50.095  1.00  0.00     0.001 A 
HETATM   17  C   UNL     1      26.645  44.800  49.720  1.00  0.00     0.017 A 
ENDBRANCH   9  12
ENDBRANCH   6   8
ENDBRANCH   5   6
ENDBRANCH   1   5
BRANCH   2  18
HETATM   18  C   UNL     1      29.197  43.316  53.490  1.00  0.00     0.035 A 
HETATM   19  C   UNL     1      28.276  44.364  53.581  1.00  0.00     0.042 A 
HETATM   20  C   UNL     1      28.370  45.318  54.610  1.00  0.00    -0.021 A 
HETATM   21  C   UNL     1      29.397  45.196  55.556  1.00  0.00     0.012 A 
HETATM   22  C   UNL     1      30.318  44.154  55.473  1.00  0.00     0.003 A 
HETATM   23  C   UNL     1      30.220  43.224  54.440  1.00  0.00     0.029 A 
BRANCH  20  24
HETATM   24  C   UNL     1      27.436  46.432  54.699  1.00  0.00     0.010 A 
HETATM   25  C   UNL     1      26.294  46.747  53.921  1.00  0.00     0.152 A 
HETATM   26  N   UNL     1      25.692  47.874  54.312  1.00  0.00    -0.187 NA
HETATM   27  N   UNL     1      26.443  48.285  55.346  1.00  0.00    -0.289 N 
HETATM   28  H   UNL     1      26.179  49.140  55.822  1.00  0.00     0.188 HD
HETATM   29  C   UNL     1      27.497  47.461  55.614  1.00  0.00     0.123 A 
ENDBRANCH  20  24
ENDBRANCH   2  18
TORSDOF 6
ENDMDL
