MODEL 1
REMARK VINA RESULT:      -9.4      0.000      0.000
REMARK  5 active torsions:
REMARK  status: ('A' for Active; 'I' for Inactive)
REMARK    1  A    between atoms: C_2  and  N_3 
REMARK    2  A    between atoms: C_6  and  C_7 
REMARK    3  A    between atoms: C_7  and  N_8 
REMARK    4  A    between atoms: C_11  and  O_12 
REMARK    5  A    between atoms: C_13  and  N_14 
ROOT
HETATM    1  N   UNL     1      24.664  45.429  49.871  1.00  0.00    -0.065 N 
HETATM    2  H   UNL     1      25.032  46.337  50.189  1.00  0.00     0.280 HD
HETATM    3  C   UNL     1      24.061  44.704  51.059  1.00  0.00     0.268 C 
HETATM    4  C   UNL     1      25.143  44.469  52.127  1.00  0.00     0.174 C 
HETATM    5  C   UNL     1      26.340  43.718  51.498  1.00  0.00     0.220 C 
HETATM    6  C   UNL     1      26.898  44.438  50.272  1.00  0.00     0.063 C 
HETATM    7  C   UNL     1      25.796  44.664  49.234  1.00  0.00     0.237 C 
ENDROOT
BRANCH   1   8
HETATM    8  C   UNL     1      23.594  45.842  48.849  1.00  0.00     0.276 C 
BRANCH   8   9
HETATM    9  C   UNL     1      23.137  47.225  49.122  1.00  0.00     0.004 A 
HETATM   10  C   UNL     1      23.912  48.330  49.519  1.00  0.00     0.149 A 
HETATM   11  N   UNL     1      23.202  49.451  49.579  1.00  0.00    -0.180 NA
HETATM   12  N   UNL     1      21.923  49.093  49.318  1.00  0.00    -0.245 N 
HETATM   13  C   UNL     1      21.854  47.738  49.034  1.00  0.00     0.129 A 
BRANCH  12  14
HETATM   14  C   UNL     1      20.874  50.054  49.281  1.00  0.00     0.058 A 
HETATM   15  C   UNL     1      19.755  49.884  50.114  1.00  0.00     0.034 A 
HETATM   16  C   UNL     1      18.729  50.831  50.117  1.00  0.00     0.044 A 
HETATM   17  C   UNL     1      18.820  51.943  49.291  1.00  0.00     0.116 A 
HETATM   18  C   UNL     1      19.915  52.124  48.454  1.00  0.00     0.044 A 
HETATM   19  F   UNL     1      17.842  52.857  49.300  1.00  0.00    -0.206 F 
HETATM   20  C   UNL     1      20.946  51.179  48.443  1.00  0.00     0.034 A 
ENDBRANCH  12  14
ENDBRANCH   8   9
ENDBRANCH   1   8
BRANCH   4  21
HETATM   21  O   UNL     1      24.686  43.674  53.218  1.00  0.00    -0.392 OA
HETATM   22  H   UNL     1      24.543  42.748  52.928  1.00  0.00     0.210 HD
ENDBRANCH   4  21
BRANCH   5  23
HETATM   23  N   UNL     1      27.406  43.448  52.586  1.00  0.00    -0.064 N 
HETATM   24  H   UNL     1      26.872  42.896  53.284  1.00  0.00     0.280 HD
HETATM   25  C   UNL     1      28.496  42.509  52.102  1.00  0.00     0.235 C 
HETATM   26  C   UNL     1      29.346  41.954  53.240  1.00  0.00     0.028 C 
HETATM   27  C   UNL     1      30.325  42.972  53.816  1.00  0.00     0.002 C 
HETATM   28  C   UNL     1      29.753  43.851  54.922  1.00  0.00     0.002 C 
HETATM   29  C   UNL     1      28.315  44.325  54.746  1.00  0.00     0.028 C 
HETATM   30  C   UNL     1      27.928  44.675  53.318  1.00  0.00     0.235 C 
ENDBRANCH   5  23
TORSDOF 5
ENDMDL
MODEL 2
REMARK VINA RESULT:      -9.0      3.815     10.164
REMARK  5 active torsions:
REMARK  status: ('A' for Active; 'I' for Inactive)
REMARK    1  A    between atoms: C_2  and  N_3 
REMARK    2  A    between atoms: C_6  and  C_7 
REMARK    3  A    between atoms: C_7  and  N_8 
REMARK    4  A    between atoms: C_11  and  O_12 
REMARK    5  A    between atoms: C_13  and  N_14 
ROOT
HETATM    1  N   UNL     1      23.905  46.187  49.377  1.00  0.00    -0.065 N 
HETATM    2  H   UNL     1      23.550  45.989  50.323  1.00  0.00     0.280 HD
HETATM    3  C   UNL     1      24.472  47.594  49.353  1.00  0.00     0.268 C 
HETATM    4  C   UNL     1      23.368  48.605  49.706  1.00  0.00     0.174 C 
HETATM    5  C   UNL     1      22.166  48.416  48.750  1.00  0.00     0.220 C 
HETATM    6  C   UNL     1      21.644  46.981  48.749  1.00  0.00     0.063 C 
HETATM    7  C   UNL     1      22.769  46.001  48.404  1.00  0.00     0.237 C 
ENDROOT
BRANCH   1   8
HETATM    8  C   UNL     1      25.000  45.125  49.201  1.00  0.00     0.276 C 
BRANCH   8   9
HETATM    9  C   UNL     1      25.560  44.749  50.521  1.00  0.00     0.004 A 
HETATM   10  C   UNL     1      24.862  44.350  51.674  1.00  0.00     0.149 A 
HETATM   11  N   UNL     1      25.676  43.983  52.658  1.00  0.00    -0.180 NA
HETATM   12  N   UNL     1      26.930  44.225  52.209  1.00  0.00    -0.245 N 
HETATM   13  C   UNL     1      26.889  44.693  50.905  1.00  0.00     0.129 A 
BRANCH  12  14
HETATM   14  C   UNL     1      28.074  43.933  53.004  1.00  0.00     0.058 A 
HETATM   15  C   UNL     1      28.235  44.581  54.241  1.00  0.00     0.034 A 
HETATM   16  C   UNL     1      29.334  44.286  55.052  1.00  0.00     0.044 A 
HETATM   17  C   UNL     1      30.267  43.350  54.628  1.00  0.00     0.116 A 
HETATM   18  C   UNL     1      30.129  42.707  53.404  1.00  0.00     0.044 A 
HETATM   19  F   UNL     1      31.315  43.059  55.408  1.00  0.00    -0.206 F 
HETATM   20  C   UNL     1      29.033  42.997  52.584  1.00  0.00     0.034 A 
ENDBRANCH  12  14
ENDBRANCH   8   9
ENDBRANCH   1   8
BRANCH   4  21
HETATM   21  O   UNL     1      23.789  49.960  49.574  1.00  0.00    -0.392 OA
HETATM   22  H   UNL     1      24.579  50.016  48.995  1.00  0.00     0.210 HD
ENDBRANCH   4  21
BRANCH   5  23
HETATM   23  N   UNL     1      21.077  49.462  49.082  1.00  0.00    -0.064 N 
HETATM   24  H   UNL     1      21.495  49.968  49.887  1.00  0.00     0.280 HD
HETATM   25  C   UNL     1      20.938  50.513  47.995  1.00  0.00     0.235 C 
HETATM   26  C   UNL     1      20.142  51.733  48.449  1.00  0.00     0.028 C 
HETATM   27  C   UNL     1      18.642  51.473  48.543  1.00  0.00     0.002 C 
HETATM   28  C   UNL     1      18.176  50.905  49.879  1.00  0.00     0.002 C 
HETATM   29  C   UNL     1      19.080  49.868  50.536  1.00  0.00     0.028 C 
HETATM   30  C   UNL     1      19.750  48.902  49.571  1.00  0.00     0.235 C 
ENDBRANCH   5  23
TORSDOF 5
ENDMDL
MODEL 3
REMARK VINA RESULT:      -8.8      1.061      1.133
REMARK  5 active torsions:
REMARK  status: ('A' for Active; 'I' for Inactive)
REMARK    1  A    between atoms: C_2  and  N_3 
REMARK    2  A    between atoms: C_6  and  C_7 
REMARK    3  A    between atoms: C_7  and  N_8 
REMARK    4  A    between atoms: C_11  and  O_12 
REMARK    5  A    between atoms: C_13  and  N_14 
ROOT
HETATM    1  N   UNL     1      23.931  46.108  49.904  1.00  0.00    -0.065 N 
HETATM    2  H   UNL     1      23.624  46.712  50.680  1.00  0.00     0.280 HD
HETATM    3  C   UNL     1      23.724  44.659  50.302  1.00  0.00     0.268 C 
HETATM    4  C   UNL     1      24.557  44.341  51.555  1.00  0.00     0.174 C 
HETATM    5  C   UNL     1      26.040  44.696  51.298  1.00  0.00     0.220 C 
HETATM    6  C   UNL     1      26.221  46.144  50.847  1.00  0.00     0.063 C 
HETATM    7  C   UNL     1      25.372  46.430  49.605  1.00  0.00     0.237 C 
ENDROOT
BRANCH   1   8
HETATM    8  C   UNL     1      22.993  46.528  48.763  1.00  0.00     0.276 C 
BRANCH   8   9
HETATM    9  C   UNL     1      22.466  47.891  49.013  1.00  0.00     0.004 A 
HETATM   10  C   UNL     1      23.192  49.055  49.323  1.00  0.00     0.149 A 
HETATM   11  N   UNL     1      22.418  50.133  49.385  1.00  0.00    -0.180 NA
HETATM   12  N   UNL     1      21.151  49.689  49.213  1.00  0.00    -0.245 N 
HETATM   13  C   UNL     1      21.151  48.322  48.983  1.00  0.00     0.129 A 
BRANCH  12  14
HETATM   14  C   UNL     1      20.044  50.583  49.204  1.00  0.00     0.058 A 
HETATM   15  C   UNL     1      18.933  50.310  50.021  1.00  0.00     0.034 A 
HETATM   16  C   UNL     1      17.849  51.190  50.052  1.00  0.00     0.044 A 
HETATM   17  C   UNL     1      17.874  52.337  49.269  1.00  0.00     0.116 A 
HETATM   18  C   UNL     1      18.961  52.618  48.449  1.00  0.00     0.044 A 
HETATM   19  F   UNL     1      16.841  53.187  49.305  1.00  0.00    -0.206 F 
HETATM   20  C   UNL     1      20.049  51.741  48.410  1.00  0.00     0.034 A 
ENDBRANCH  12  14
ENDBRANCH   8   9
ENDBRANCH   1   8
BRANCH   4  21
HETATM   21  O   UNL     1      24.520  42.962  51.913  1.00  0.00    -0.392 OA
HETATM   22  H   UNL     1      23.641  42.580  51.708  1.00  0.00     0.210 HD
ENDBRANCH   4  21
BRANCH   5  23
HETATM   23  N   UNL     1      26.879  44.335  52.546  1.00  0.00    -0.064 N 
HETATM   24  H   UNL     1      26.218  43.752  53.094  1.00  0.00     0.280 HD
HETATM   25  C   UNL     1      28.032  43.405  52.214  1.00  0.00     0.235 C 
HETATM   26  C   UNL     1      28.647  42.760  53.452  1.00  0.00     0.028 C 
HETATM   27  C   UNL     1      29.509  43.719  54.267  1.00  0.00     0.002 C 
HETATM   28  C   UNL     1      28.748  44.539  55.302  1.00  0.00     0.002 C 
HETATM   29  C   UNL     1      27.373  45.055  54.891  1.00  0.00     0.028 C 
HETATM   30  C   UNL     1      27.266  45.502  53.441  1.00  0.00     0.235 C 
ENDBRANCH   5  23
TORSDOF 5
ENDMDL
MODEL 4
REMARK VINA RESULT:      -8.3      1.607      2.149
REMARK  5 active torsions:
REMARK  status: ('A' for Active; 'I' for Inactive)
REMARK    1  A    between atoms: C_2  and  N_3 
REMARK    2  A    between atoms: C_6  and  C_7 
REMARK    3  A    between atoms: C_7  and  N_8 
REMARK    4  A    between atoms: C_11  and  O_12 
REMARK    5  A    between atoms: C_13  and  N_14 
ROOT
HETATM    1  N   UNL     1      23.960  45.774  49.789  1.00  0.00    -0.065 N 
HETATM    2  H   UNL     1      23.436  46.510  50.282  1.00  0.00     0.280 HD
HETATM    3  C   UNL     1      23.910  44.502  50.614  1.00  0.00     0.268 C 
HETATM    4  C   UNL     1      24.551  44.751  51.991  1.00  0.00     0.174 C 
HETATM    5  C   UNL     1      25.986  45.300  51.804  1.00  0.00     0.220 C 
HETATM    6  C   UNL     1      26.020  46.549  50.926  1.00  0.00     0.063 C 
HETATM    7  C   UNL     1      25.366  46.271  49.570  1.00  0.00     0.237 C 
ENDROOT
BRANCH   1   8
HETATM    8  C   UNL     1      23.182  45.634  48.473  1.00  0.00     0.276 C 
BRANCH   8   9
HETATM    9  C   UNL     1      21.945  46.449  48.524  1.00  0.00     0.004 A 
HETATM   10  C   UNL     1      20.613  46.002  48.469  1.00  0.00     0.149 A 
HETATM   11  N   UNL     1      19.740  46.988  48.643  1.00  0.00    -0.180 NA
HETATM   12  N   UNL     1      20.475  48.123  48.720  1.00  0.00    -0.245 N 
HETATM   13  C   UNL     1      21.827  47.822  48.650  1.00  0.00     0.129 A 
BRANCH  12  14
HETATM   14  C   UNL     1      19.865  49.392  48.925  1.00  0.00     0.058 A 
HETATM   15  C   UNL     1      18.749  49.490  49.774  1.00  0.00     0.034 A 
HETATM   16  C   UNL     1      18.154  50.730  50.015  1.00  0.00     0.044 A 
HETATM   17  C   UNL     1      18.671  51.868  49.409  1.00  0.00     0.116 A 
HETATM   18  C   UNL     1      19.769  51.789  48.560  1.00  0.00     0.044 A 
HETATM   19  F   UNL     1      18.109  53.059  49.646  1.00  0.00    -0.206 F 
HETATM   20  C   UNL     1      20.369  50.550  48.311  1.00  0.00     0.034 A 
ENDBRANCH  12  14
ENDBRANCH   8   9
ENDBRANCH   1   8
BRANCH   4  21
HETATM   21  O   UNL     1      24.663  43.567  52.776  1.00  0.00    -0.392 OA
HETATM   22  H   UNL     1      25.316  42.953  52.375  1.00  0.00     0.210 HD
ENDBRANCH   4  21
BRANCH   5  23
HETATM   23  N   UNL     1      26.640  45.508  53.189  1.00  0.00    -0.064 N 
HETATM   24  H   UNL     1      25.951  45.065  53.827  1.00  0.00     0.280 HD
HETATM   25  C   UNL     1      27.906  44.686  53.357  1.00  0.00     0.235 C 
HETATM   26  C   UNL     1      28.365  44.598  54.809  1.00  0.00     0.028 C 
HETATM   27  C   UNL     1      29.002  45.885  55.320  1.00  0.00     0.002 C 
HETATM   28  C   UNL     1      28.017  46.900  55.891  1.00  0.00     0.002 C 
HETATM   29  C   UNL     1      26.688  47.051  55.159  1.00  0.00     0.028 C 
HETATM   30  C   UNL     1      26.778  46.953  53.644  1.00  0.00     0.235 C 
ENDBRANCH   5  23
TORSDOF 5
ENDMDL
MODEL 5
REMARK VINA RESULT:      -8.3      3.566      9.528
REMARK  5 active torsions:
REMARK  status: ('A' for Active; 'I' for Inactive)
REMARK    1  A    between atoms: C_2  and  N_3 
REMARK    2  A    between atoms: C_6  and  C_7 
REMARK    3  A    between atoms: C_7  and  N_8 
REMARK    4  A    between atoms: C_11  and  O_12 
REMARK    5  A    between atoms: C_13  and  N_14 
ROOT
HETATM    1  N   UNL     1      22.136  45.666  49.224  1.00  0.00    -0.065 N 
HETATM    2  H   UNL     1      22.016  46.025  50.181  1.00  0.00     0.280 HD
HETATM    3  C   UNL     1      23.049  46.606  48.460  1.00  0.00     0.268 C 
HETATM    4  C   UNL     1      22.419  48.009  48.403  1.00  0.00     0.174 C 
HETATM    5  C   UNL     1      20.997  47.916  47.800  1.00  0.00     0.220 C 
HETATM    6  C   UNL     1      20.111  46.924  48.551  1.00  0.00     0.063 C 
HETATM    7  C   UNL     1      20.771  45.543  48.598  1.00  0.00     0.237 C 
ENDROOT
BRANCH   1   8
HETATM    8  C   UNL     1      22.792  44.298  49.460  1.00  0.00     0.276 C 
BRANCH   8   9
HETATM    9  C   UNL     1      24.094  44.470  50.147  1.00  0.00     0.004 A 
HETATM   10  C   UNL     1      25.380  44.209  49.640  1.00  0.00     0.149 A 
HETATM   11  N   UNL     1      26.340  44.570  50.484  1.00  0.00    -0.180 NA
HETATM   12  N   UNL     1      25.708  44.986  51.607  1.00  0.00    -0.245 N 
HETATM   13  C   UNL     1      24.334  44.936  51.427  1.00  0.00     0.129 A 
BRANCH  12  14
HETATM   14  C   UNL     1      26.432  45.468  52.733  1.00  0.00     0.058 A 
HETATM   15  C   UNL     1      27.409  44.648  53.324  1.00  0.00     0.034 A 
HETATM   16  C   UNL     1      28.154  45.112  54.411  1.00  0.00     0.044 A 
HETATM   17  C   UNL     1      27.922  46.388  54.906  1.00  0.00     0.116 A 
HETATM   18  C   UNL     1      26.954  47.209  54.340  1.00  0.00     0.044 A 
HETATM   19  F   UNL     1      28.642  46.838  55.941  1.00  0.00    -0.206 F 
HETATM   20  C   UNL     1      26.202  46.752  53.253  1.00  0.00     0.034 A 
ENDBRANCH  12  14
ENDBRANCH   8   9
ENDBRANCH   1   8
BRANCH   4  21
HETATM   21  O   UNL     1      23.153  48.917  47.586  1.00  0.00    -0.392 OA
HETATM   22  H   UNL     1      22.554  49.595  47.206  1.00  0.00     0.210 HD
ENDBRANCH   4  21
BRANCH   5  23
HETATM   23  N   UNL     1      20.385  49.333  47.706  1.00  0.00    -0.064 N 
HETATM   24  H   UNL     1      21.086  49.838  47.130  1.00  0.00     0.280 HD
HETATM   25  C   UNL     1      19.113  49.356  46.878  1.00  0.00     0.235 C 
HETATM   26  C   UNL     1      18.694  50.768  46.478  1.00  0.00     0.028 C 
HETATM   27  C   UNL     1      18.091  51.567  47.628  1.00  0.00     0.002 C 
HETATM   28  C   UNL     1      19.105  52.313  48.487  1.00  0.00     0.002 C 
HETATM   29  C   UNL     1      20.415  51.592  48.784  1.00  0.00     0.028 C 
HETATM   30  C   UNL     1      20.281  50.095  49.018  1.00  0.00     0.235 C 
ENDBRANCH   5  23
TORSDOF 5
ENDMDL
MODEL 6
REMARK VINA RESULT:      -8.2      4.056      9.940
REMARK  5 active torsions:
REMARK  status: ('A' for Active; 'I' for Inactive)
REMARK    1  A    between atoms: C_2  and  N_3 
REMARK    2  A    between atoms: C_6  and  C_7 
REMARK    3  A    between atoms: C_7  and  N_8 
REMARK    4  A    between atoms: C_11  and  O_12 
REMARK    5  A    between atoms: C_13  and  N_14 
ROOT
HETATM    1  N   UNL     1      26.150  44.644  49.740  1.00  0.00    -0.065 N 
HETATM    2  H   UNL     1      26.244  44.662  48.714  1.00  0.00     0.280 HD
HETATM    3  C   UNL     1      24.738  44.218  50.094  1.00  0.00     0.268 C 
HETATM    4  C   UNL     1      23.731  45.222  49.508  1.00  0.00     0.174 C 
HETATM    5  C   UNL     1      24.076  46.649  49.995  1.00  0.00     0.220 C 
HETATM    6  C   UNL     1      25.518  47.038  49.676  1.00  0.00     0.063 C 
HETATM    7  C   UNL     1      26.494  46.015  50.263  1.00  0.00     0.237 C 
ENDROOT
BRANCH   1   8
HETATM    8  C   UNL     1      27.187  43.589  50.151  1.00  0.00     0.276 C 
BRANCH   8   9
HETATM    9  C   UNL     1      27.407  43.635  51.616  1.00  0.00     0.004 A 
HETATM   10  C   UNL     1      26.504  43.289  52.637  1.00  0.00     0.149 A 
HETATM   11  N   UNL     1      27.056  43.349  53.844  1.00  0.00    -0.180 NA
HETATM   12  N   UNL     1      28.307  43.832  53.654  1.00  0.00    -0.245 N 
HETATM   13  C   UNL     1      28.548  44.015  52.301  1.00  0.00     0.129 A 
BRANCH  12  14
HETATM   14  C   UNL     1      29.206  44.016  54.741  1.00  0.00     0.058 A 
HETATM   15  C   UNL     1      30.119  42.996  55.059  1.00  0.00     0.034 A 
HETATM   16  C   UNL     1      31.032  43.167  56.102  1.00  0.00     0.044 A 
HETATM   17  C   UNL     1      31.032  44.353  56.825  1.00  0.00     0.116 A 
HETATM   18  C   UNL     1      30.131  45.370  56.530  1.00  0.00     0.044 A 
HETATM   19  F   UNL     1      31.913  44.524  57.818  1.00  0.00    -0.206 F 
HETATM   20  C   UNL     1      29.212  45.205  55.489  1.00  0.00     0.034 A 
ENDBRANCH  12  14
ENDBRANCH   8   9
ENDBRANCH   1   8
BRANCH   4  21
HETATM   21  O   UNL     1      22.388  44.963  49.911  1.00  0.00    -0.392 OA
HETATM   22  H   UNL     1      22.346  44.817  50.880  1.00  0.00     0.210 HD
ENDBRANCH   4  21
BRANCH   5  23
HETATM   23  N   UNL     1      23.036  47.647  49.437  1.00  0.00    -0.064 N 
HETATM   24  H   UNL     1      22.266  47.574  50.130  1.00  0.00     0.280 HD
HETATM   25  C   UNL     1      23.509  49.086  49.536  1.00  0.00     0.235 C 
HETATM   26  C   UNL     1      22.384  50.095  49.329  1.00  0.00     0.028 C 
HETATM   27  C   UNL     1      21.947  50.223  47.874  1.00  0.00     0.002 C 
HETATM   28  C   UNL     1      20.880  49.225  47.438  1.00  0.00     0.002 C 
HETATM   29  C   UNL     1      21.007  47.806  47.980  1.00  0.00     0.028 C 
HETATM   30  C   UNL     1      22.433  47.288  48.088  1.00  0.00     0.235 C 
ENDBRANCH   5  23
TORSDOF 5
ENDMDL
MODEL 7
REMARK VINA RESULT:      -8.1      1.968      3.119
REMARK  5 active torsions:
REMARK  status: ('A' for Active; 'I' for Inactive)
REMARK    1  A    between atoms: C_2  and  N_3 
REMARK    2  A    between atoms: C_6  and  C_7 
REMARK    3  A    between atoms: C_7  and  N_8 
REMARK    4  A    between atoms: C_11  and  O_12 
REMARK    5  A    between atoms: C_13  and  N_14 
ROOT
HETATM    1  N   UNL     1      24.372  48.905  49.212  1.00  0.00    -0.065 N 
HETATM    2  H   UNL     1      24.211  49.313  50.144  1.00  0.00     0.280 HD
HETATM    3  C   UNL     1      23.631  47.584  49.124  1.00  0.00     0.268 C 
HETATM    4  C   UNL     1      24.157  46.621  50.202  1.00  0.00     0.174 C 
HETATM    5  C   UNL     1      25.690  46.470  50.061  1.00  0.00     0.220 C 
HETATM    6  C   UNL     1      26.412  47.814  50.099  1.00  0.00     0.063 C 
HETATM    7  C   UNL     1      25.859  48.752  49.022  1.00  0.00     0.237 C 
ENDROOT
BRANCH   1   8
HETATM    8  C   UNL     1      23.772  49.962  48.274  1.00  0.00     0.276 C 
BRANCH   8   9
HETATM    9  C   UNL     1      22.462  50.420  48.796  1.00  0.00     0.004 A 
HETATM   10  C   UNL     1      22.119  50.723  50.126  1.00  0.00     0.149 A 
HETATM   11  N   UNL     1      20.886  51.205  50.235  1.00  0.00    -0.180 NA
HETATM   12  N   UNL     1      20.354  51.139  48.991  1.00  0.00    -0.245 N 
HETATM   13  C   UNL     1      21.296  50.663  48.092  1.00  0.00     0.129 A 
BRANCH  12  14
HETATM   14  C   UNL     1      19.032  51.593  48.724  1.00  0.00     0.058 A 
HETATM   15  C   UNL     1      18.513  51.472  47.423  1.00  0.00     0.034 A 
HETATM   16  C   UNL     1      17.208  51.882  47.145  1.00  0.00     0.044 A 
HETATM   17  C   UNL     1      16.424  52.411  48.161  1.00  0.00     0.116 A 
HETATM   18  C   UNL     1      16.923  52.546  49.452  1.00  0.00     0.044 A 
HETATM   19  F   UNL     1      15.168  52.795  47.899  1.00  0.00    -0.206 F 
HETATM   20  C   UNL     1      18.230  52.141  49.739  1.00  0.00     0.034 A 
ENDBRANCH  12  14
ENDBRANCH   8   9
ENDBRANCH   1   8
BRANCH   4  21
HETATM   21  O   UNL     1      23.603  45.312  50.097  1.00  0.00    -0.392 OA
HETATM   22  H   UNL     1      22.768  45.253  50.609  1.00  0.00     0.210 HD
ENDBRANCH   4  21
BRANCH   5  23
HETATM   23  N   UNL     1      26.207  45.468  51.120  1.00  0.00    -0.064 N 
HETATM   24  H   UNL     1      25.441  44.768  51.153  1.00  0.00     0.280 HD
HETATM   25  C   UNL     1      27.419  44.693  50.635  1.00  0.00     0.235 C 
HETATM   26  C   UNL     1      27.725  43.473  51.498  1.00  0.00     0.028 C 
HETATM   27  C   UNL     1      28.351  43.826  52.842  1.00  0.00     0.002 C 
HETATM   28  C   UNL     1      27.351  44.127  53.953  1.00  0.00     0.002 C 
HETATM   29  C   UNL     1      26.109  44.920  53.560  1.00  0.00     0.028 C 
HETATM   30  C   UNL     1      26.349  46.015  52.532  1.00  0.00     0.235 C 
ENDBRANCH   5  23
TORSDOF 5
ENDMDL
MODEL 8
REMARK VINA RESULT:      -8.0      6.106      8.914
REMARK  5 active torsions:
REMARK  status: ('A' for Active; 'I' for Inactive)
REMARK    1  A    between atoms: C_2  and  N_3 
REMARK    2  A    between atoms: C_6  and  C_7 
REMARK    3  A    between atoms: C_7  and  N_8 
REMARK    4  A    between atoms: C_11  and  O_12 
REMARK    5  A    between atoms: C_13  and  N_14 
ROOT
HETATM    1  N   UNL     1      25.677  43.965  51.556  1.00  0.00    -0.065 N 
HETATM    2  H   UNL     1      25.840  43.342  52.360  1.00  0.00     0.280 HD
HETATM    3  C   UNL     1      24.583  43.368  50.690  1.00  0.00     0.268 C 
HETATM    4  C   UNL     1      25.022  41.984  50.182  1.00  0.00     0.174 C 
HETATM    5  C   UNL     1      26.380  42.104  49.451  1.00  0.00     0.220 C 
HETATM    6  C   UNL     1      27.452  42.756  50.322  1.00  0.00     0.063 C 
HETATM    7  C   UNL     1      26.981  44.126  50.818  1.00  0.00     0.237 C 
ENDROOT
BRANCH   1   8
HETATM    8  C   UNL     1      25.225  45.269  52.230  1.00  0.00     0.276 C 
BRANCH   8   9
HETATM    9  C   UNL     1      26.258  45.730  53.188  1.00  0.00     0.004 A 
HETATM   10  C   UNL     1      26.516  47.046  53.614  1.00  0.00     0.149 A 
HETATM   11  N   UNL     1      27.447  47.099  54.560  1.00  0.00    -0.180 NA
HETATM   12  N   UNL     1      27.893  45.829  54.711  1.00  0.00    -0.245 N 
HETATM   13  C   UNL     1      27.182  44.972  53.885  1.00  0.00     0.129 A 
BRANCH  12  14
HETATM   14  C   UNL     1      28.896  45.501  55.666  1.00  0.00     0.058 A 
HETATM   15  C   UNL     1      28.948  46.209  56.879  1.00  0.00     0.034 A 
HETATM   16  C   UNL     1      29.904  45.884  57.844  1.00  0.00     0.044 A 
HETATM   17  C   UNL     1      30.804  44.856  57.597  1.00  0.00     0.116 A 
HETATM   18  C   UNL     1      30.773  44.150  56.400  1.00  0.00     0.044 A 
HETATM   19  F   UNL     1      31.715  44.535  58.524  1.00  0.00    -0.206 F 
HETATM   20  C   UNL     1      29.820  44.471  55.427  1.00  0.00     0.034 A 
ENDBRANCH  12  14
ENDBRANCH   8   9
ENDBRANCH   1   8
BRANCH   4  21
HETATM   21  O   UNL     1      24.104  41.415  49.253  1.00  0.00    -0.392 OA
HETATM   22  H   UNL     1      24.587  41.000  48.507  1.00  0.00     0.210 HD
ENDBRANCH   4  21
BRANCH   5  23
HETATM   23  N   UNL     1      26.795  40.718  48.907  1.00  0.00    -0.064 N 
HETATM   24  H   UNL     1      25.932  40.405  48.422  1.00  0.00     0.280 HD
HETATM   25  C   UNL     1      27.839  40.821  47.809  1.00  0.00     0.235 C 
HETATM   26  C   UNL     1      28.000  39.523  47.023  1.00  0.00     0.028 C 
HETATM   27  C   UNL     1      28.753  38.442  47.791  1.00  0.00     0.002 C 
HETATM   28  C   UNL     1      27.880  37.570  48.687  1.00  0.00     0.002 C 
HETATM   29  C   UNL     1      26.757  38.273  49.442  1.00  0.00     0.028 C 
HETATM   30  C   UNL     1      27.105  39.662  49.956  1.00  0.00     0.235 C 
ENDBRANCH   5  23
TORSDOF 5
ENDMDL
MODEL 9
REMARK VINA RESULT:      -7.9      3.661      9.703
REMARK  5 active torsions:
REMARK  status: ('A' for Active; 'I' for Inactive)
REMARK    1  A    between atoms: C_2  and  N_3 
REMARK    2  A    between atoms: C_6  and  C_7 
REMARK    3  A    between atoms: C_7  and  N_8 
REMARK    4  A    between atoms: C_11  and  O_12 
REMARK    5  A    between atoms: C_13  and  N_14 
ROOT
HETATM    1  N   UNL     1      22.499  45.793  47.995  1.00  0.00    -0.065 N 
HETATM    2  H   UNL     1      22.483  46.089  47.008  1.00  0.00     0.280 HD
HETATM    3  C   UNL     1      21.078  45.507  48.442  1.00  0.00     0.268 C 
HETATM    4  C   UNL     1      20.225  46.780  48.305  1.00  0.00     0.174 C 
HETATM    5  C   UNL     1      20.889  47.937  49.088  1.00  0.00     0.220 C 
HETATM    6  C   UNL     1      22.335  48.174  48.660  1.00  0.00     0.063 C 
HETATM    7  C   UNL     1      23.154  46.887  48.799  1.00  0.00     0.237 C 
ENDROOT
BRANCH   1   8
HETATM    8  C   UNL     1      23.352  44.517  47.947  1.00  0.00     0.276 C 
BRANCH   8   9
HETATM    9  C   UNL     1      23.853  44.189  49.303  1.00  0.00     0.004 A 
HETATM   10  C   UNL     1      23.207  43.444  50.306  1.00  0.00     0.149 A 
HETATM   11  N   UNL     1      23.979  43.250  51.370  1.00  0.00    -0.180 NA
HETATM   12  N   UNL     1      25.117  43.946  51.133  1.00  0.00    -0.245 N 
HETATM   13  C   UNL     1      25.066  44.529  49.876  1.00  0.00     0.129 A 
BRANCH  12  14
HETATM   14  C   UNL     1      26.192  43.954  52.064  1.00  0.00     0.058 A 
HETATM   15  C   UNL     1      25.922  44.186  53.424  1.00  0.00     0.034 A 
HETATM   16  C   UNL     1      26.958  44.166  54.361  1.00  0.00     0.044 A 
HETATM   17  C   UNL     1      28.258  43.918  53.940  1.00  0.00     0.116 A 
HETATM   18  C   UNL     1      28.544  43.695  52.598  1.00  0.00     0.044 A 
HETATM   19  F   UNL     1      29.251  43.889  54.838  1.00  0.00    -0.206 F 
HETATM   20  C   UNL     1      27.514  43.715  51.654  1.00  0.00     0.034 A 
ENDBRANCH  12  14
ENDBRANCH   8   9
ENDBRANCH   1   8
BRANCH   4  21
HETATM   21  O   UNL     1      18.909  46.628  48.831  1.00  0.00    -0.392 OA
HETATM   22  H   UNL     1      18.704  45.678  48.967  1.00  0.00     0.210 HD
ENDBRANCH   4  21
BRANCH   5  23
HETATM   23  N   UNL     1      20.005  49.202  48.981  1.00  0.00    -0.064 N 
HETATM   24  H   UNL     1      19.223  48.875  48.382  1.00  0.00     0.280 HD
HETATM   25  C   UNL     1      19.354  49.561  50.305  1.00  0.00     0.235 C 
HETATM   26  C   UNL     1      18.220  50.570  50.151  1.00  0.00     0.028 C 
HETATM   27  C   UNL     1      18.707  51.989  49.879  1.00  0.00     0.002 C 
HETATM   28  C   UNL     1      18.942  52.312  48.408  1.00  0.00     0.002 C 
HETATM   29  C   UNL     1      19.566  51.212  47.556  1.00  0.00     0.028 C 
HETATM   30  C   UNL     1      20.631  50.386  48.260  1.00  0.00     0.235 C 
ENDBRANCH   5  23
TORSDOF 5
ENDMDL
MODEL 10
REMARK VINA RESULT:      -7.8      3.620      9.633
REMARK  5 active torsions:
REMARK  status: ('A' for Active; 'I' for Inactive)
REMARK    1  A    between atoms: C_2  and  N_3 
REMARK    2  A    between atoms: C_6  and  C_7 
REMARK    3  A    between atoms: C_7  and  N_8 
REMARK    4  A    between atoms: C_11  and  O_12 
REMARK    5  A    between atoms: C_13  and  N_14 
ROOT
HETATM    1  N   UNL     1      23.102  46.343  48.560  1.00  0.00    -0.065 N 
HETATM    2  H   UNL     1      23.143  46.508  47.544  1.00  0.00     0.280 HD
HETATM    3  C   UNL     1      21.689  45.933  48.932  1.00  0.00     0.268 C 
HETATM    4  C   UNL     1      20.707  47.057  48.558  1.00  0.00     0.174 C 
HETATM    5  C   UNL     1      21.153  48.380  49.224  1.00  0.00     0.220 C 
HETATM    6  C   UNL     1      22.594  48.747  48.880  1.00  0.00     0.063 C 
HETATM    7  C   UNL     1      23.544  47.606  49.255  1.00  0.00     0.237 C 
ENDROOT
BRANCH   1   8
HETATM    8  C   UNL     1      24.101  45.194  48.753  1.00  0.00     0.276 C 
BRANCH   8   9
HETATM    9  C   UNL     1      24.509  45.107  50.175  1.00  0.00     0.004 A 
HETATM   10  C   UNL     1      23.885  44.389  51.211  1.00  0.00     0.149 A 
HETATM   11  N   UNL     1      24.569  44.443  52.349  1.00  0.00    -0.180 NA
HETATM   12  N   UNL     1      25.609  45.279  52.115  1.00  0.00    -0.245 N 
HETATM   13  C   UNL     1      25.597  45.698  50.793  1.00  0.00     0.129 A 
BRANCH  12  14
HETATM   14  C   UNL     1      26.575  45.563  53.120  1.00  0.00     0.058 A 
HETATM   15  C   UNL     1      27.546  44.597  53.434  1.00  0.00     0.034 A 
HETATM   16  C   UNL     1      28.523  44.867  54.395  1.00  0.00     0.044 A 
HETATM   17  C   UNL     1      28.528  46.097  55.040  1.00  0.00     0.116 A 
HETATM   18  C   UNL     1      27.570  47.061  54.749  1.00  0.00     0.044 A 
HETATM   19  F   UNL     1      29.470  46.362  55.954  1.00  0.00    -0.206 F 
HETATM   20  C   UNL     1      26.587  46.798  53.790  1.00  0.00     0.034 A 
ENDBRANCH  12  14
ENDBRANCH   8   9
ENDBRANCH   1   8
BRANCH   4  21
HETATM   21  O   UNL     1      19.376  46.803  48.998  1.00  0.00    -0.392 OA
HETATM   22  H   UNL     1      18.889  47.647  49.116  1.00  0.00     0.210 HD
ENDBRANCH   4  21
BRANCH   5  23
HETATM   23  N   UNL     1      20.139  49.496  48.879  1.00  0.00    -0.064 N 
HETATM   24  H   UNL     1      19.232  49.049  49.114  1.00  0.00     0.280 HD
HETATM   25  C   UNL     1      20.244  50.680  49.822  1.00  0.00     0.235 C 
HETATM   26  C   UNL     1      19.044  51.618  49.731  1.00  0.00     0.028 C 
HETATM   27  C   UNL     1      19.046  52.479  48.472  1.00  0.00     0.002 C 
HETATM   28  C   UNL     1      18.396  51.831  47.255  1.00  0.00     0.002 C 
HETATM   29  C   UNL     1      18.653  50.342  47.051  1.00  0.00     0.028 C 
HETATM   30  C   UNL     1      20.058  49.882  47.410  1.00  0.00     0.235 C 
ENDBRANCH   5  23
TORSDOF 5
ENDMDL
