MODEL 1
REMARK VINA RESULT:      -9.5      0.000      0.000
REMARK  7 active torsions:
REMARK  status: ('A' for Active; 'I' for Inactive)
REMARK    1  A    between atoms: C_3  and  C_4 
REMARK    2  A    between atoms: C_6  and  O_7 
REMARK    3  A    between atoms: C_9  and  O_10 
REMARK    4  A    between atoms: O_10  and  C_11 
REMARK    5  A    between atoms: C_11  and  C_12 
REMARK       I    between atoms: C_12  and  N_13 
REMARK    6  A    between atoms: N_13  and  N_14 
REMARK       I    between atoms: N_14  and  C_15 
REMARK    7  A    between atoms: C_15  and  C_16 
ROOT
HETATM    1  C   UNL     1      24.695  45.870  50.735  1.00  0.00     0.260 C 
HETATM    2  N   UNL     1      24.424  47.178  50.382  1.00  0.00    -0.265 N 
HETATM    3  O   UNL     1      23.880  44.957  50.597  1.00  0.00    -0.269 OA
HETATM    4  H   UNL     1      25.170  47.870  50.318  1.00  0.00     0.190 HD
ENDROOT
BRANCH   2   5
HETATM    5  N   UNL     1      23.239  47.445  49.692  1.00  0.00    -0.263 N 
HETATM    6  C   UNL     1      22.991  48.720  49.228  1.00  0.00     0.272 C 
HETATM    7  O   UNL     1      23.719  49.672  49.506  1.00  0.00    -0.266 OA
HETATM    8  H   UNL     1      22.633  46.657  49.494  1.00  0.00     0.190 HD
BRANCH   6   9
HETATM    9  C   UNL     1      21.765  48.863  48.446  1.00  0.00     0.061 A 
HETATM   10  C   UNL     1      20.838  49.958  48.339  1.00  0.00     0.008 A 
HETATM   11  C   UNL     1      19.865  49.597  47.393  1.00  0.00     0.045 A 
HETATM   12  C   UNL     1      20.718  51.223  48.963  1.00  0.00     0.015 A 
HETATM   13  C   UNL     1      18.829  50.471  47.019  1.00  0.00     0.030 A 
HETATM   14  N   UNL     1      20.154  48.312  46.991  1.00  0.00    -0.359 N 
HETATM   15  C   UNL     1      18.761  51.725  47.628  1.00  0.00     0.002 A 
HETATM   16  C   UNL     1      19.687  52.095  48.594  1.00  0.00     0.001 A 
HETATM   17  C   UNL     1      19.404  47.511  46.049  1.00  0.00     0.156 C 
HETATM   18  C   UNL     1      21.276  47.859  47.629  1.00  0.00     0.108 A 
ENDBRANCH   6   9
ENDBRANCH   2   5
BRANCH   1  19
HETATM   19  C   UNL     1      26.111  45.639  51.254  1.00  0.00     0.280 C 
BRANCH  19  20
HETATM   20  O   UNL     1      26.134  45.726  52.676  1.00  0.00    -0.339 OA
BRANCH  20  21
HETATM   21  C   UNL     1      27.192  45.086  53.274  1.00  0.00     0.102 A 
HETATM   22  C   UNL     1      27.623  45.581  54.517  1.00  0.00     0.102 A 
HETATM   23  C   UNL     1      28.735  45.000  55.139  1.00  0.00     0.051 A 
HETATM   24  C   UNL     1      29.403  43.922  54.545  1.00  0.00    -0.034 A 
HETATM   25  C   UNL     1      28.967  43.442  53.305  1.00  0.00     0.014 A 
HETATM   26  C   UNL     1      27.870  44.025  52.668  1.00  0.00     0.040 A 
BRANCH  22  27
HETATM   27  O   UNL     1      26.901  46.629  55.034  1.00  0.00    -0.353 OA
HETATM   28  C   UNL     1      27.514  47.911  55.012  1.00  0.00     0.210 C 
ENDBRANCH  22  27
BRANCH  24  29
HETATM   29  C   UNL     1      30.580  43.356  55.211  1.00  0.00     0.007 C 
HETATM   30  C   UNL     1      30.937  43.684  56.463  1.00  0.00    -0.030 C 
HETATM   31  C   UNL     1      32.141  43.127  57.152  1.00  0.00     0.036 C 
ENDBRANCH  24  29
ENDBRANCH  20  21
ENDBRANCH  19  20
ENDBRANCH   1  19
TORSDOF 7
ENDMDL
MODEL 2
REMARK VINA RESULT:      -9.5      1.029      2.045
REMARK  7 active torsions:
REMARK  status: ('A' for Active; 'I' for Inactive)
REMARK    1  A    between atoms: C_3  and  C_4 
REMARK    2  A    between atoms: C_6  and  O_7 
REMARK    3  A    between atoms: C_9  and  O_10 
REMARK    4  A    between atoms: O_10  and  C_11 
REMARK    5  A    between atoms: C_11  and  C_12 
REMARK       I    between atoms: C_12  and  N_13 
REMARK    6  A    between atoms: N_13  and  N_14 
REMARK       I    between atoms: N_14  and  C_15 
REMARK    7  A    between atoms: C_15  and  C_16 
ROOT
HETATM    1  C   UNL     1      24.679  45.762  50.850  1.00  0.00     0.260 C 
HETATM    2  N   UNL     1      24.425  47.073  50.498  1.00  0.00    -0.265 N 
HETATM    3  O   UNL     1      23.857  44.857  50.704  1.00  0.00    -0.269 OA
HETATM    4  H   UNL     1      25.180  47.757  50.442  1.00  0.00     0.190 HD
ENDROOT
BRANCH   2   5
HETATM    5  N   UNL     1      23.249  47.354  49.800  1.00  0.00    -0.263 N 
HETATM    6  C   UNL     1      23.039  48.621  49.296  1.00  0.00     0.272 C 
HETATM    7  O   UNL     1      23.796  49.559  49.545  1.00  0.00    -0.266 OA
HETATM    8  H   UNL     1      22.620  46.579  49.624  1.00  0.00     0.190 HD
BRANCH   6   9
HETATM    9  C   UNL     1      21.818  48.777  48.509  1.00  0.00     0.061 A 
HETATM   10  C   UNL     1      20.903  49.882  48.397  1.00  0.00     0.008 A 
HETATM   11  C   UNL     1      19.930  49.530  47.448  1.00  0.00     0.045 A 
HETATM   12  C   UNL     1      20.793  51.148  49.020  1.00  0.00     0.015 A 
HETATM   13  C   UNL     1      18.905  50.415  47.069  1.00  0.00     0.030 A 
HETATM   14  N   UNL     1      20.207  48.242  47.048  1.00  0.00    -0.359 N 
HETATM   15  C   UNL     1      18.848  51.670  47.677  1.00  0.00     0.002 A 
HETATM   16  C   UNL     1      19.774  52.031  48.647  1.00  0.00     0.001 A 
HETATM   17  C   UNL     1      19.452  47.449  46.104  1.00  0.00     0.156 C 
HETATM   18  C   UNL     1      21.321  47.778  47.691  1.00  0.00     0.108 A 
ENDBRANCH   6   9
ENDBRANCH   2   5
BRANCH   1  19
HETATM   19  C   UNL     1      26.089  45.515  51.380  1.00  0.00     0.280 C 
BRANCH  19  20
HETATM   20  O   UNL     1      26.112  44.342  52.189  1.00  0.00    -0.339 OA
BRANCH  20  21
HETATM   21  C   UNL     1      27.263  44.168  52.918  1.00  0.00     0.102 A 
HETATM   22  C   UNL     1      28.106  43.108  52.543  1.00  0.00     0.102 A 
HETATM   23  C   UNL     1      29.262  42.853  53.291  1.00  0.00     0.051 A 
HETATM   24  C   UNL     1      29.591  43.654  54.392  1.00  0.00    -0.034 A 
HETATM   25  C   UNL     1      28.740  44.703  54.758  1.00  0.00     0.014 A 
HETATM   26  C   UNL     1      27.576  44.955  54.029  1.00  0.00     0.040 A 
BRANCH  22  27
HETATM   27  O   UNL     1      27.716  42.384  51.443  1.00  0.00    -0.353 OA
HETATM   28  C   UNL     1      28.199  41.051  51.340  1.00  0.00     0.210 C 
ENDBRANCH  22  27
BRANCH  24  29
HETATM   29  C   UNL     1      30.794  43.341  55.169  1.00  0.00     0.007 C 
HETATM   30  C   UNL     1      30.910  43.619  56.477  1.00  0.00    -0.030 C 
HETATM   31  C   UNL     1      32.134  43.320  57.281  1.00  0.00     0.036 C 
ENDBRANCH  24  29
ENDBRANCH  20  21
ENDBRANCH  19  20
ENDBRANCH   1  19
TORSDOF 7
ENDMDL
MODEL 3
REMARK VINA RESULT:      -9.3      2.171     10.691
REMARK  7 active torsions:
REMARK  status: ('A' for Active; 'I' for Inactive)
REMARK    1  A    between atoms: C_3  and  C_4 
REMARK    2  A    between atoms: C_6  and  O_7 
REMARK    3  A    between atoms: C_9  and  O_10 
REMARK    4  A    between atoms: O_10  and  C_11 
REMARK    5  A    between atoms: C_11  and  C_12 
REMARK       I    between atoms: C_12  and  N_13 
REMARK    6  A    between atoms: N_13  and  N_14 
REMARK       I    between atoms: N_14  and  C_15 
REMARK    7  A    between atoms: C_15  and  C_16 
ROOT
HETATM    1  C   UNL     1      24.517  46.439  49.724  1.00  0.00     0.260 C 
HETATM    2  N   UNL     1      24.267  46.409  51.082  1.00  0.00    -0.265 N 
HETATM    3  O   UNL     1      25.655  46.469  49.253  1.00  0.00    -0.269 OA
HETATM    4  H   UNL     1      23.339  46.184  51.440  1.00  0.00     0.190 HD
ENDROOT
BRANCH   2   5
HETATM    5  N   UNL     1      25.348  46.244  51.950  1.00  0.00    -0.263 N 
HETATM    6  C   UNL     1      25.453  45.092  52.701  1.00  0.00     0.272 C 
HETATM    7  O   UNL     1      24.559  44.247  52.732  1.00  0.00    -0.266 OA
HETATM    8  H   UNL     1      26.065  46.961  51.936  1.00  0.00     0.190 HD
BRANCH   6   9
HETATM    9  C   UNL     1      26.668  44.989  53.506  1.00  0.00     0.061 A 
HETATM   10  C   UNL     1      27.804  44.113  53.391  1.00  0.00     0.008 A 
HETATM   11  C   UNL     1      28.725  44.484  54.383  1.00  0.00     0.045 A 
HETATM   12  C   UNL     1      28.140  43.027  52.547  1.00  0.00     0.015 A 
HETATM   13  C   UNL     1      29.973  43.850  54.516  1.00  0.00     0.030 A 
HETATM   14  N   UNL     1      28.145  45.499  55.110  1.00  0.00    -0.359 N 
HETATM   15  C   UNL     1      30.288  42.807  53.643  1.00  0.00     0.002 A 
HETATM   16  C   UNL     1      29.381  42.393  52.676  1.00  0.00     0.001 A 
HETATM   17  C   UNL     1      28.711  46.175  56.257  1.00  0.00     0.156 C 
HETATM   18  C   UNL     1      26.908  45.794  54.605  1.00  0.00     0.108 A 
ENDBRANCH   6   9
ENDBRANCH   2   5
BRANCH   1  19
HETATM   19  C   UNL     1      23.267  46.368  48.852  1.00  0.00     0.280 C 
BRANCH  19  20
HETATM   20  O   UNL     1      23.234  47.470  47.949  1.00  0.00    -0.339 OA
BRANCH  20  21
HETATM   21  C   UNL     1      22.331  48.453  48.273  1.00  0.00     0.102 A 
HETATM   22  C   UNL     1      22.680  49.777  47.953  1.00  0.00     0.102 A 
HETATM   23  C   UNL     1      21.819  50.820  48.316  1.00  0.00     0.051 A 
HETATM   24  C   UNL     1      20.612  50.553  48.974  1.00  0.00    -0.034 A 
HETATM   25  C   UNL     1      20.279  49.232  49.292  1.00  0.00     0.014 A 
HETATM   26  C   UNL     1      21.138  48.185  48.950  1.00  0.00     0.040 A 
BRANCH  22  27
HETATM   27  O   UNL     1      23.873  49.945  47.294  1.00  0.00    -0.353 OA
HETATM   28  C   UNL     1      25.036  50.113  48.093  1.00  0.00     0.210 C 
ENDBRANCH  22  27
BRANCH  24  29
HETATM   29  C   UNL     1      19.749  51.672  49.364  1.00  0.00     0.007 C 
HETATM   30  C   UNL     1      18.409  51.611  49.314  1.00  0.00    -0.030 C 
HETATM   31  C   UNL     1      17.515  52.747  49.694  1.00  0.00     0.036 C 
ENDBRANCH  24  29
ENDBRANCH  20  21
ENDBRANCH  19  20
ENDBRANCH   1  19
TORSDOF 7
ENDMDL
MODEL 4
REMARK VINA RESULT:      -9.1      2.176     10.787
REMARK  7 active torsions:
REMARK  status: ('A' for Active; 'I' for Inactive)
REMARK    1  A    between atoms: C_3  and  C_4 
REMARK    2  A    between atoms: C_6  and  O_7 
REMARK    3  A    between atoms: C_9  and  O_10 
REMARK    4  A    between atoms: O_10  and  C_11 
REMARK    5  A    between atoms: C_11  and  C_12 
REMARK       I    between atoms: C_12  and  N_13 
REMARK    6  A    between atoms: N_13  and  N_14 
REMARK       I    between atoms: N_14  and  C_15 
REMARK    7  A    between atoms: C_15  and  C_16 
ROOT
HETATM    1  C   UNL     1      24.080  47.870  49.551  1.00  0.00     0.260 C 
HETATM    2  N   UNL     1      24.014  46.647  50.189  1.00  0.00    -0.265 N 
HETATM    3  O   UNL     1      24.979  48.686  49.760  1.00  0.00    -0.269 OA
HETATM    4  H   UNL     1      23.384  45.916  49.858  1.00  0.00     0.190 HD
ENDROOT
BRANCH   2   5
HETATM    5  N   UNL     1      25.094  46.254  50.982  1.00  0.00    -0.263 N 
HETATM    6  C   UNL     1      25.000  45.112  51.749  1.00  0.00     0.272 C 
HETATM    7  O   UNL     1      23.948  44.484  51.863  1.00  0.00    -0.266 OA
HETATM    8  H   UNL     1      25.947  46.796  50.900  1.00  0.00     0.190 HD
BRANCH   6   9
HETATM    9  C   UNL     1      26.219  44.750  52.468  1.00  0.00     0.061 A 
HETATM   10  C   UNL     1      26.951  45.447  53.493  1.00  0.00     0.008 A 
HETATM   11  C   UNL     1      28.015  44.620  53.888  1.00  0.00     0.045 A 
HETATM   12  C   UNL     1      26.825  46.710  54.120  1.00  0.00     0.015 A 
HETATM   13  C   UNL     1      28.904  44.988  54.913  1.00  0.00     0.030 A 
HETATM   14  N   UNL     1      27.968  43.497  53.092  1.00  0.00    -0.359 N 
HETATM   15  C   UNL     1      28.729  46.225  55.536  1.00  0.00     0.002 A 
HETATM   16  C   UNL     1      27.709  47.081  55.140  1.00  0.00     0.001 A 
HETATM   17  C   UNL     1      28.887  42.381  53.115  1.00  0.00     0.156 C 
HETATM   18  C   UNL     1      26.910  43.576  52.228  1.00  0.00     0.108 A 
ENDBRANCH   6   9
ENDBRANCH   2   5
BRANCH   1  19
HETATM   19  C   UNL     1      22.981  48.102  48.518  1.00  0.00     0.280 C 
BRANCH  19  20
HETATM   20  O   UNL     1      21.701  47.886  49.105  1.00  0.00    -0.339 OA
BRANCH  20  21
HETATM   21  C   UNL     1      20.895  48.997  49.153  1.00  0.00     0.102 A 
HETATM   22  C   UNL     1      19.506  48.784  49.161  1.00  0.00     0.102 A 
HETATM   23  C   UNL     1      18.642  49.886  49.150  1.00  0.00     0.051 A 
HETATM   24  C   UNL     1      19.150  51.192  49.150  1.00  0.00    -0.034 A 
HETATM   25  C   UNL     1      20.535  51.390  49.136  1.00  0.00     0.014 A 
HETATM   26  C   UNL     1      21.405  50.298  49.130  1.00  0.00     0.040 A 
BRANCH  22  27
HETATM   27  O   UNL     1      19.096  47.473  49.176  1.00  0.00    -0.353 OA
HETATM   28  C   UNL     1      17.780  47.201  48.711  1.00  0.00     0.210 C 
ENDBRANCH  22  27
BRANCH  24  29
HETATM   29  C   UNL     1      18.216  52.321  49.110  1.00  0.00     0.007 C 
HETATM   30  C   UNL     1      17.149  52.413  49.918  1.00  0.00    -0.030 C 
HETATM   31  C   UNL     1      16.180  53.551  49.881  1.00  0.00     0.036 C 
ENDBRANCH  24  29
ENDBRANCH  20  21
ENDBRANCH  19  20
ENDBRANCH   1  19
TORSDOF 7
ENDMDL
MODEL 5
REMARK VINA RESULT:      -9.0      2.200     10.600
REMARK  7 active torsions:
REMARK  status: ('A' for Active; 'I' for Inactive)
REMARK    1  A    between atoms: C_3  and  C_4 
REMARK    2  A    between atoms: C_6  and  O_7 
REMARK    3  A    between atoms: C_9  and  O_10 
REMARK    4  A    between atoms: O_10  and  C_11 
REMARK    5  A    between atoms: C_11  and  C_12 
REMARK       I    between atoms: C_12  and  N_13 
REMARK    6  A    between atoms: N_13  and  N_14 
REMARK       I    between atoms: N_14  and  C_15 
REMARK    7  A    between atoms: C_15  and  C_16 
ROOT
HETATM    1  C   UNL     1      26.326  48.174  49.359  1.00  0.00     0.260 C 
HETATM    2  N   UNL     1      25.838  47.357  50.360  1.00  0.00    -0.265 N 
HETATM    3  O   UNL     1      27.469  48.076  48.912  1.00  0.00    -0.269 OA
HETATM    4  H   UNL     1      24.841  47.324  50.571  1.00  0.00     0.190 HD
ENDROOT
BRANCH   2   5
HETATM    5  N   UNL     1      26.618  46.273  50.769  1.00  0.00    -0.263 N 
HETATM    6  C   UNL     1      26.027  45.215  51.427  1.00  0.00     0.272 C 
HETATM    7  O   UNL     1      24.850  45.241  51.785  1.00  0.00    -0.266 OA
HETATM    8  H   UNL     1      27.593  46.277  50.492  1.00  0.00     0.190 HD
BRANCH   6   9
HETATM    9  C   UNL     1      26.922  44.100  51.728  1.00  0.00     0.061 A 
HETATM   10  C   UNL     1      27.868  43.912  52.796  1.00  0.00     0.008 A 
HETATM   11  C   UNL     1      28.417  42.628  52.653  1.00  0.00     0.045 A 
HETATM   12  C   UNL     1      28.327  44.713  53.870  1.00  0.00     0.015 A 
HETATM   13  C   UNL     1      29.350  42.110  53.568  1.00  0.00     0.030 A 
HETATM   14  N   UNL     1      27.874  42.084  51.510  1.00  0.00    -0.359 N 
HETATM   15  C   UNL     1      29.753  42.913  54.637  1.00  0.00     0.002 A 
HETATM   16  C   UNL     1      29.256  44.202  54.782  1.00  0.00     0.001 A 
HETATM   17  C   UNL     1      28.170  40.787  50.944  1.00  0.00     0.156 C 
HETATM   18  C   UNL     1      26.995  42.964  50.941  1.00  0.00     0.108 A 
ENDBRANCH   6   9
ENDBRANCH   2   5
BRANCH   1  19
HETATM   19  C   UNL     1      25.309  49.170  48.808  1.00  0.00     0.280 C 
BRANCH  19  20
HETATM   20  O   UNL     1      24.048  48.534  48.624  1.00  0.00    -0.339 OA
BRANCH  20  21
HETATM   21  C   UNL     1      22.964  49.375  48.689  1.00  0.00     0.102 A 
HETATM   22  C   UNL     1      21.694  48.781  48.790  1.00  0.00     0.102 A 
HETATM   23  C   UNL     1      20.555  49.594  48.801  1.00  0.00     0.051 A 
HETATM   24  C   UNL     1      20.672  50.989  48.731  1.00  0.00    -0.034 A 
HETATM   25  C   UNL     1      21.941  51.567  48.625  1.00  0.00     0.014 A 
HETATM   26  C   UNL     1      23.084  50.764  48.597  1.00  0.00     0.040 A 
BRANCH  22  27
HETATM   27  O   UNL     1      21.673  47.410  48.870  1.00  0.00    -0.353 OA
HETATM   28  C   UNL     1      20.495  46.754  48.420  1.00  0.00     0.210 C 
ENDBRANCH  22  27
BRANCH  24  29
HETATM   29  C   UNL     1      19.456  51.808  48.717  1.00  0.00     0.007 C 
HETATM   30  C   UNL     1      18.622  51.892  49.764  1.00  0.00    -0.030 C 
HETATM   31  C   UNL     1      17.371  52.711  49.761  1.00  0.00     0.036 C 
ENDBRANCH  24  29
ENDBRANCH  20  21
ENDBRANCH  19  20
ENDBRANCH   1  19
TORSDOF 7
ENDMDL
MODEL 6
REMARK VINA RESULT:      -8.7      1.737      2.655
REMARK  7 active torsions:
REMARK  status: ('A' for Active; 'I' for Inactive)
REMARK    1  A    between atoms: C_3  and  C_4 
REMARK    2  A    between atoms: C_6  and  O_7 
REMARK    3  A    between atoms: C_9  and  O_10 
REMARK    4  A    between atoms: O_10  and  C_11 
REMARK    5  A    between atoms: C_11  and  C_12 
REMARK       I    between atoms: C_12  and  N_13 
REMARK    6  A    between atoms: N_13  and  N_14 
REMARK       I    between atoms: N_14  and  C_15 
REMARK    7  A    between atoms: C_15  and  C_16 
ROOT
HETATM    1  C   UNL     1      24.693  48.140  49.797  1.00  0.00     0.260 C 
HETATM    2  N   UNL     1      23.481  47.486  49.907  1.00  0.00    -0.265 N 
HETATM    3  O   UNL     1      24.836  49.180  49.152  1.00  0.00    -0.269 OA
HETATM    4  H   UNL     1      23.344  46.750  50.599  1.00  0.00     0.190 HD
ENDROOT
BRANCH   2   5
HETATM    5  N   UNL     1      22.342  48.115  49.401  1.00  0.00    -0.263 N 
HETATM    6  C   UNL     1      21.560  47.464  48.469  1.00  0.00     0.272 C 
HETATM    7  O   UNL     1      21.895  46.393  47.965  1.00  0.00    -0.266 OA
HETATM    8  H   UNL     1      22.091  49.010  49.803  1.00  0.00     0.190 HD
BRANCH   6   9
HETATM    9  C   UNL     1      20.347  48.178  48.076  1.00  0.00     0.061 A 
HETATM   10  C   UNL     1      20.000  49.572  48.173  1.00  0.00     0.008 A 
HETATM   11  C   UNL     1      18.736  49.734  47.585  1.00  0.00     0.045 A 
HETATM   12  C   UNL     1      20.630  50.717  48.717  1.00  0.00     0.015 A 
HETATM   13  C   UNL     1      18.122  50.994  47.474  1.00  0.00     0.030 A 
HETATM   14  N   UNL     1      18.306  48.483  47.204  1.00  0.00    -0.359 N 
HETATM   15  C   UNL     1      18.788  52.108  47.989  1.00  0.00     0.002 A 
HETATM   16  C   UNL     1      20.022  51.973  48.611  1.00  0.00     0.001 A 
HETATM   17  C   UNL     1      17.043  48.153  46.583  1.00  0.00     0.156 C 
HETATM   18  C   UNL     1      19.254  47.545  47.511  1.00  0.00     0.108 A 
ENDBRANCH   6   9
ENDBRANCH   2   5
BRANCH   1  19
HETATM   19  C   UNL     1      25.827  47.502  50.593  1.00  0.00     0.280 C 
BRANCH  19  20
HETATM   20  O   UNL     1      25.304  46.777  51.702  1.00  0.00    -0.339 OA
BRANCH  20  21
HETATM   21  C   UNL     1      26.213  46.509  52.696  1.00  0.00     0.102 A 
HETATM   22  C   UNL     1      26.746  45.210  52.745  1.00  0.00     0.102 A 
HETATM   23  C   UNL     1      27.633  44.871  53.775  1.00  0.00     0.051 A 
HETATM   24  C   UNL     1      28.004  45.817  54.739  1.00  0.00    -0.034 A 
HETATM   25  C   UNL     1      27.461  47.105  54.681  1.00  0.00     0.014 A 
HETATM   26  C   UNL     1      26.563  47.450  53.668  1.00  0.00     0.040 A 
BRANCH  22  27
HETATM   27  O   UNL     1      26.341  44.352  51.753  1.00  0.00    -0.353 OA
HETATM   28  C   UNL     1      27.280  44.058  50.727  1.00  0.00     0.210 C 
ENDBRANCH  22  27
BRANCH  24  29
HETATM   29  C   UNL     1      28.912  45.419  55.818  1.00  0.00     0.007 C 
HETATM   30  C   UNL     1      29.006  46.090  56.976  1.00  0.00    -0.030 C 
HETATM   31  C   UNL     1      29.936  45.707  58.082  1.00  0.00     0.036 C 
ENDBRANCH  24  29
ENDBRANCH  20  21
ENDBRANCH  19  20
ENDBRANCH   1  19
TORSDOF 7
ENDMDL
MODEL 7
REMARK VINA RESULT:      -8.6      2.052     10.774
REMARK  7 active torsions:
REMARK  status: ('A' for Active; 'I' for Inactive)
REMARK    1  A    between atoms: C_3  and  C_4 
REMARK    2  A    between atoms: C_6  and  O_7 
REMARK    3  A    between atoms: C_9  and  O_10 
REMARK    4  A    between atoms: O_10  and  C_11 
REMARK    5  A    between atoms: C_11  and  C_12 
REMARK       I    between atoms: C_12  and  N_13 
REMARK    6  A    between atoms: N_13  and  N_14 
REMARK       I    between atoms: N_14  and  C_15 
REMARK    7  A    between atoms: C_15  and  C_16 
ROOT
HETATM    1  C   UNL     1      24.698  45.263  50.404  1.00  0.00     0.260 C 
HETATM    2  N   UNL     1      25.228  46.231  51.234  1.00  0.00    -0.265 N 
HETATM    3  O   UNL     1      25.165  44.126  50.316  1.00  0.00    -0.269 OA
HETATM    4  H   UNL     1      24.712  47.087  51.438  1.00  0.00     0.190 HD
ENDROOT
BRANCH   2   5
HETATM    5  N   UNL     1      26.233  45.857  52.129  1.00  0.00    -0.263 N 
HETATM    6  C   UNL     1      26.350  46.511  53.338  1.00  0.00     0.272 C 
HETATM    7  O   UNL     1      25.678  47.504  53.613  1.00  0.00    -0.266 OA
HETATM    8  H   UNL     1      26.799  45.055  51.878  1.00  0.00     0.190 HD
BRANCH   6   9
HETATM    9  C   UNL     1      27.378  45.979  54.229  1.00  0.00     0.061 A 
HETATM   10  C   UNL     1      28.307  44.893  54.055  1.00  0.00     0.008 A 
HETATM   11  C   UNL     1      29.123  44.849  55.196  1.00  0.00     0.045 A 
HETATM   12  C   UNL     1      28.530  43.929  53.042  1.00  0.00     0.015 A 
HETATM   13  C   UNL     1      30.173  43.923  55.326  1.00  0.00     0.030 A 
HETATM   14  N   UNL     1      28.668  45.825  56.054  1.00  0.00    -0.359 N 
HETATM   15  C   UNL     1      30.389  43.010  54.292  1.00  0.00     0.002 A 
HETATM   16  C   UNL     1      29.573  43.005  53.168  1.00  0.00     0.001 A 
HETATM   17  C   UNL     1      29.182  46.129  57.370  1.00  0.00     0.156 C 
HETATM   18  C   UNL     1      27.613  46.492  55.492  1.00  0.00     0.108 A 
ENDBRANCH   6   9
ENDBRANCH   2   5
BRANCH   1  19
HETATM   19  C   UNL     1      23.446  45.698  49.648  1.00  0.00     0.280 C 
BRANCH  19  20
HETATM   20  O   UNL     1      23.785  46.645  48.638  1.00  0.00    -0.339 OA
BRANCH  20  21
HETATM   21  C   UNL     1      23.052  47.806  48.668  1.00  0.00     0.102 A 
HETATM   22  C   UNL     1      22.003  47.928  47.740  1.00  0.00     0.102 A 
HETATM   23  C   UNL     1      21.265  49.116  47.692  1.00  0.00     0.051 A 
HETATM   24  C   UNL     1      21.549  50.171  48.570  1.00  0.00    -0.034 A 
HETATM   25  C   UNL     1      22.599  50.039  49.485  1.00  0.00     0.014 A 
HETATM   26  C   UNL     1      23.354  48.864  49.530  1.00  0.00     0.040 A 
BRANCH  22  27
HETATM   27  O   UNL     1      21.784  46.841  46.930  1.00  0.00    -0.353 OA
HETATM   28  C   UNL     1      20.542  46.789  46.240  1.00  0.00     0.210 C 
ENDBRANCH  22  27
BRANCH  24  29
HETATM   29  C   UNL     1      20.773  51.410  48.473  1.00  0.00     0.007 C 
HETATM   30  C   UNL     1      19.432  51.435  48.500  1.00  0.00    -0.030 C 
HETATM   31  C   UNL     1      18.625  52.688  48.387  1.00  0.00     0.036 C 
ENDBRANCH  24  29
ENDBRANCH  20  21
ENDBRANCH  19  20
ENDBRANCH   1  19
TORSDOF 7
ENDMDL
MODEL 8
REMARK VINA RESULT:      -8.6      2.137     10.623
REMARK  7 active torsions:
REMARK  status: ('A' for Active; 'I' for Inactive)
REMARK    1  A    between atoms: C_3  and  C_4 
REMARK    2  A    between atoms: C_6  and  O_7 
REMARK    3  A    between atoms: C_9  and  O_10 
REMARK    4  A    between atoms: O_10  and  C_11 
REMARK    5  A    between atoms: C_11  and  C_12 
REMARK       I    between atoms: C_12  and  N_13 
REMARK    6  A    between atoms: N_13  and  N_14 
REMARK       I    between atoms: N_14  and  C_15 
REMARK    7  A    between atoms: C_15  and  C_16 
ROOT
HETATM    1  C   UNL     1      23.517  45.364  48.925  1.00  0.00     0.260 C 
HETATM    2  N   UNL     1      23.967  45.506  50.223  1.00  0.00    -0.265 N 
HETATM    3  O   UNL     1      24.034  44.592  48.117  1.00  0.00    -0.269 OA
HETATM    4  H   UNL     1      23.407  45.995  50.922  1.00  0.00     0.190 HD
ENDROOT
BRANCH   2   5
HETATM    5  N   UNL     1      24.945  44.623  50.684  1.00  0.00    -0.263 N 
HETATM    6  C   UNL     1      26.097  45.118  51.260  1.00  0.00     0.272 C 
HETATM    7  O   UNL     1      26.358  46.320  51.272  1.00  0.00    -0.266 OA
HETATM    8  H   UNL     1      24.730  43.633  50.643  1.00  0.00     0.190 HD
BRANCH   6   9
HETATM    9  C   UNL     1      27.008  44.104  51.786  1.00  0.00     0.061 A 
HETATM   10  C   UNL     1      27.859  44.112  52.946  1.00  0.00     0.008 A 
HETATM   11  C   UNL     1      28.475  42.853  53.027  1.00  0.00     0.045 A 
HETATM   12  C   UNL     1      28.181  45.072  53.936  1.00  0.00     0.015 A 
HETATM   13  C   UNL     1      29.342  42.514  54.080  1.00  0.00     0.030 A 
HETATM   14  N   UNL     1      28.064  42.134  51.927  1.00  0.00    -0.359 N 
HETATM   15  C   UNL     1      29.609  43.472  55.060  1.00  0.00     0.002 A 
HETATM   16  C   UNL     1      29.045  44.739  54.985  1.00  0.00     0.001 A 
HETATM   17  C   UNL     1      28.468  40.792  51.571  1.00  0.00     0.156 C 
HETATM   18  C   UNL     1      27.203  42.881  51.170  1.00  0.00     0.108 A 
ENDBRANCH   6   9
ENDBRANCH   2   5
BRANCH   1  19
HETATM   19  C   UNL     1      22.283  46.198  48.592  1.00  0.00     0.280 C 
BRANCH  19  20
HETATM   20  O   UNL     1      22.673  47.477  48.098  1.00  0.00    -0.339 OA
BRANCH  20  21
HETATM   21  C   UNL     1      21.812  48.501  48.407  1.00  0.00     0.102 A 
HETATM   22  C   UNL     1      22.188  49.798  48.017  1.00  0.00     0.102 A 
HETATM   23  C   UNL     1      21.372  50.882  48.362  1.00  0.00     0.051 A 
HETATM   24  C   UNL     1      20.180  50.682  49.071  1.00  0.00    -0.034 A 
HETATM   25  C   UNL     1      19.820  49.387  49.457  1.00  0.00     0.014 A 
HETATM   26  C   UNL     1      20.635  48.300  49.134  1.00  0.00     0.040 A 
BRANCH  22  27
HETATM   27  O   UNL     1      23.363  49.900  47.313  1.00  0.00    -0.353 OA
HETATM   28  C   UNL     1      24.543  50.172  48.057  1.00  0.00     0.210 C 
ENDBRANCH  22  27
BRANCH  24  29
HETATM   29  C   UNL     1      19.365  51.844  49.438  1.00  0.00     0.007 C 
HETATM   30  C   UNL     1      18.024  51.837  49.391  1.00  0.00    -0.030 C 
HETATM   31  C   UNL     1      17.178  53.016  49.749  1.00  0.00     0.036 C 
ENDBRANCH  24  29
ENDBRANCH  20  21
ENDBRANCH  19  20
ENDBRANCH   1  19
TORSDOF 7
ENDMDL
MODEL 9
REMARK VINA RESULT:      -8.4      2.648      9.881
REMARK  7 active torsions:
REMARK  status: ('A' for Active; 'I' for Inactive)
REMARK    1  A    between atoms: C_3  and  C_4 
REMARK    2  A    between atoms: C_6  and  O_7 
REMARK    3  A    between atoms: C_9  and  O_10 
REMARK    4  A    between atoms: O_10  and  C_11 
REMARK    5  A    between atoms: C_11  and  C_12 
REMARK       I    between atoms: C_12  and  N_13 
REMARK    6  A    between atoms: N_13  and  N_14 
REMARK       I    between atoms: N_14  and  C_15 
REMARK    7  A    between atoms: C_15  and  C_16 
ROOT
HETATM    1  C   UNL     1      24.226  43.742  50.912  1.00  0.00     0.260 C 
HETATM    2  N   UNL     1      25.360  42.959  51.000  1.00  0.00    -0.265 N 
HETATM    3  O   UNL     1      23.867  44.505  51.810  1.00  0.00    -0.269 OA
HETATM    4  H   UNL     1      25.741  42.493  50.176  1.00  0.00     0.190 HD
ENDROOT
BRANCH   2   5
HETATM    5  N   UNL     1      26.220  43.159  52.081  1.00  0.00    -0.263 N 
HETATM    6  C   UNL     1      27.344  43.943  51.925  1.00  0.00     0.272 C 
HETATM    7  O   UNL     1      27.693  44.377  50.828  1.00  0.00    -0.266 OA
HETATM    8  H   UNL     1      25.936  42.772  52.974  1.00  0.00     0.190 HD
BRANCH   6   9
HETATM    9  C   UNL     1      28.122  44.154  53.143  1.00  0.00     0.061 A 
HETATM   10  C   UNL     1      28.030  45.173  54.155  1.00  0.00     0.008 A 
HETATM   11  C   UNL     1      28.974  44.869  55.149  1.00  0.00     0.045 A 
HETATM   12  C   UNL     1      27.244  46.339  54.323  1.00  0.00     0.015 A 
HETATM   13  C   UNL     1      29.111  45.649  56.311  1.00  0.00     0.030 A 
HETATM   14  N   UNL     1      29.653  43.748  54.727  1.00  0.00    -0.359 N 
HETATM   15  C   UNL     1      28.295  46.771  56.461  1.00  0.00     0.002 A 
HETATM   16  C   UNL     1      27.379  47.119  55.477  1.00  0.00     0.001 A 
HETATM   17  C   UNL     1      30.742  43.087  55.412  1.00  0.00     0.156 C 
HETATM   18  C   UNL     1      29.164  43.326  53.521  1.00  0.00     0.108 A 
ENDBRANCH   6   9
ENDBRANCH   2   5
BRANCH   1  19
HETATM   19  C   UNL     1      23.486  43.632  49.582  1.00  0.00     0.280 C 
BRANCH  19  20
HETATM   20  O   UNL     1      23.952  44.627  48.675  1.00  0.00    -0.339 OA
BRANCH  20  21
HETATM   21  C   UNL     1      23.289  45.828  48.749  1.00  0.00     0.102 A 
HETATM   22  C   UNL     1      23.999  46.922  49.275  1.00  0.00     0.102 A 
HETATM   23  C   UNL     1      23.349  48.153  49.424  1.00  0.00     0.051 A 
HETATM   24  C   UNL     1      22.011  48.306  49.038  1.00  0.00    -0.034 A 
HETATM   25  C   UNL     1      21.315  47.208  48.522  1.00  0.00     0.014 A 
HETATM   26  C   UNL     1      21.948  45.971  48.384  1.00  0.00     0.040 A 
BRANCH  22  27
HETATM   27  O   UNL     1      25.309  46.687  49.612  1.00  0.00    -0.353 OA
HETATM   28  C   UNL     1      25.801  47.326  50.782  1.00  0.00     0.210 C 
ENDBRANCH  22  27
BRANCH  24  29
HETATM   29  C   UNL     1      21.354  49.602  49.236  1.00  0.00     0.007 C 
HETATM   30  C   UNL     1      20.913  50.357  48.218  1.00  0.00    -0.030 C 
HETATM   31  C   UNL     1      20.254  51.687  48.401  1.00  0.00     0.036 C 
ENDBRANCH  24  29
ENDBRANCH  20  21
ENDBRANCH  19  20
ENDBRANCH   1  19
TORSDOF 7
ENDMDL
MODEL 10
REMARK VINA RESULT:      -8.3      6.171     10.369
REMARK  7 active torsions:
REMARK  status: ('A' for Active; 'I' for Inactive)
REMARK    1  A    between atoms: C_3  and  C_4 
REMARK    2  A    between atoms: C_6  and  O_7 
REMARK    3  A    between atoms: C_9  and  O_10 
REMARK    4  A    between atoms: O_10  and  C_11 
REMARK    5  A    between atoms: C_11  and  C_12 
REMARK       I    between atoms: C_12  and  N_13 
REMARK    6  A    between atoms: N_13  and  N_14 
REMARK       I    between atoms: N_14  and  C_15 
REMARK    7  A    between atoms: C_15  and  C_16 
ROOT
HETATM    1  C   UNL     1      24.871  42.650  51.027  1.00  0.00     0.260 C 
HETATM    2  N   UNL     1      26.074  42.246  51.572  1.00  0.00    -0.265 N 
HETATM    3  O   UNL     1      24.153  43.503  51.549  1.00  0.00    -0.269 OA
HETATM    4  H   UNL     1      26.738  41.694  51.027  1.00  0.00     0.190 HD
ENDROOT
BRANCH   2   5
HETATM    5  N   UNL     1      26.571  42.946  52.673  1.00  0.00    -0.263 N 
HETATM    6  C   UNL     1      27.722  43.695  52.544  1.00  0.00     0.272 C 
HETATM    7  O   UNL     1      28.408  43.672  51.523  1.00  0.00    -0.266 OA
HETATM    8  H   UNL     1      26.011  42.935  53.518  1.00  0.00     0.190 HD
BRANCH   6   9
HETATM    9  C   UNL     1      28.099  44.455  53.733  1.00  0.00     0.061 A 
HETATM   10  C   UNL     1      29.139  44.233  54.703  1.00  0.00     0.008 A 
HETATM   11  C   UNL     1      29.107  45.305  55.609  1.00  0.00     0.045 A 
HETATM   12  C   UNL     1      30.102  43.217  54.913  1.00  0.00     0.015 A 
HETATM   13  C   UNL     1      30.030  45.418  56.664  1.00  0.00     0.030 A 
HETATM   14  N   UNL     1      28.052  46.110  55.242  1.00  0.00    -0.359 N 
HETATM   15  C   UNL     1      30.991  44.417  56.819  1.00  0.00     0.002 A 
HETATM   16  C   UNL     1      31.022  43.325  55.962  1.00  0.00     0.001 A 
HETATM   17  C   UNL     1      27.612  47.317  55.906  1.00  0.00     0.156 C 
HETATM   18  C   UNL     1      27.432  45.599  54.134  1.00  0.00     0.108 A 
ENDBRANCH   6   9
ENDBRANCH   2   5
BRANCH   1  19
HETATM   19  C   UNL     1      24.535  41.998  49.689  1.00  0.00     0.280 C 
BRANCH  19  20
HETATM   20  O   UNL     1      25.171  40.727  49.588  1.00  0.00    -0.339 OA
BRANCH  20  21
HETATM   21  C   UNL     1      25.902  40.538  48.440  1.00  0.00     0.102 A 
HETATM   22  C   UNL     1      27.119  39.846  48.560  1.00  0.00     0.102 A 
HETATM   23  C   UNL     1      27.928  39.680  47.430  1.00  0.00     0.051 A 
HETATM   24  C   UNL     1      27.526  40.178  46.184  1.00  0.00    -0.034 A 
HETATM   25  C   UNL     1      26.315  40.870  46.079  1.00  0.00     0.014 A 
HETATM   26  C   UNL     1      25.508  41.056  47.204  1.00  0.00     0.040 A 
BRANCH  22  27
HETATM   27  O   UNL     1      27.428  39.378  49.814  1.00  0.00    -0.353 OA
HETATM   28  C   UNL     1      28.787  39.047  50.065  1.00  0.00     0.210 C 
ENDBRANCH  22  27
BRANCH  24  29
HETATM   29  C   UNL     1      28.411  40.010  45.028  1.00  0.00     0.007 C 
HETATM   30  C   UNL     1      28.390  40.833  43.968  1.00  0.00    -0.030 C 
HETATM   31  C   UNL     1      29.275  40.667  42.775  1.00  0.00     0.036 C 
ENDBRANCH  24  29
ENDBRANCH  20  21
ENDBRANCH  19  20
ENDBRANCH   1  19
TORSDOF 7
ENDMDL
