MODEL 1
REMARK VINA RESULT:      -8.7      0.000      0.000
REMARK  2 active torsions:
REMARK  status: ('A' for Active; 'I' for Inactive)
REMARK    1  A    between atoms: C_2  and  N_3 
REMARK    2  A    between atoms: N_3  and  C_4 
ROOT
HETATM    1  C   UNL     1      19.640  48.103  49.051  1.00  0.00     0.143 A 
HETATM    2  N   UNL     1      19.567  46.798  48.690  1.00  0.00    -0.223 NA
HETATM    3  C   UNL     1      18.437  46.320  48.151  1.00  0.00     0.236 A 
HETATM    4  N   UNL     1      17.309  46.986  47.900  1.00  0.00    -0.234 NA
HETATM    5  C   UNL     1      17.395  48.277  48.258  1.00  0.00     0.114 A 
HETATM    6  C   UNL     1      18.499  48.910  48.833  1.00  0.00     0.053 A 
HETATM    7  S   UNL     1      16.055  49.329  48.017  1.00  0.00    -0.073 SA
HETATM    8  C   UNL     1      16.918  50.606  48.656  1.00  0.00    -0.008 A 
HETATM    9  C   UNL     1      18.185  50.283  49.059  1.00  0.00    -0.028 A 
HETATM   10  C   UNL     1      18.882  51.480  49.599  1.00  0.00     0.041 C 
HETATM   11  C   UNL     1      17.717  52.505  49.769  1.00  0.00     0.010 C 
HETATM   12  C   UNL     1      16.555  52.028  48.848  1.00  0.00     0.047 C 
ENDROOT
BRANCH   1  13
HETATM   13  N   UNL     1      20.797  48.619  49.655  1.00  0.00    -0.340 N 
HETATM   14  H   UNL     1      20.745  48.661  50.661  1.00  0.00     0.167 HD
BRANCH  13  15
HETATM   15  C   UNL     1      22.013  49.081  49.122  1.00  0.00     0.036 A 
HETATM   16  C   UNL     1      22.098  49.945  48.024  1.00  0.00     0.032 A 
HETATM   17  C   UNL     1      23.336  50.350  47.509  1.00  0.00     0.042 A 
HETATM   18  C   UNL     1      24.512  49.881  48.082  1.00  0.00     0.102 A 
HETATM   19  C   UNL     1      24.450  48.986  49.152  1.00  0.00     0.104 A 
HETATM   20  O   UNL     1      25.689  50.325  47.537  1.00  0.00    -0.346 OA
HETATM   21  C   UNL     1      23.213  48.604  49.675  1.00  0.00     0.069 A 
HETATM   22  O   UNL     1      25.564  48.442  49.742  1.00  0.00    -0.346 OA
HETATM   23  C   UNL     1      26.719  48.607  48.911  1.00  0.00     0.202 C 
HETATM   24  C   UNL     1      26.803  50.032  48.388  1.00  0.00     0.202 C 
ENDBRANCH  13  15
ENDBRANCH   1  13
TORSDOF 2
ENDMDL
MODEL 2
REMARK VINA RESULT:      -8.6      9.146     12.058
REMARK  2 active torsions:
REMARK  status: ('A' for Active; 'I' for Inactive)
REMARK    1  A    between atoms: C_2  and  N_3 
REMARK    2  A    between atoms: N_3  and  C_4 
ROOT
HETATM    1  C   UNL     1      26.932  43.507  53.490  1.00  0.00     0.143 A 
HETATM    2  N   UNL     1      25.772  44.036  53.029  1.00  0.00    -0.223 NA
HETATM    3  C   UNL     1      25.465  45.311  53.308  1.00  0.00     0.236 A 
HETATM    4  N   UNL     1      26.183  46.185  54.012  1.00  0.00    -0.234 NA
HETATM    5  C   UNL     1      27.331  45.652  54.460  1.00  0.00     0.114 A 
HETATM    6  C   UNL     1      27.777  44.345  54.254  1.00  0.00     0.053 A 
HETATM    7  S   UNL     1      28.420  46.607  55.389  1.00  0.00    -0.073 SA
HETATM    8  C   UNL     1      29.472  45.318  55.514  1.00  0.00    -0.008 A 
HETATM    9  C   UNL     1      29.042  44.178  54.892  1.00  0.00    -0.028 A 
HETATM   10  C   UNL     1      30.046  43.092  55.042  1.00  0.00     0.041 C 
HETATM   11  C   UNL     1      30.998  43.656  56.143  1.00  0.00     0.010 C 
HETATM   12  C   UNL     1      30.794  45.200  56.170  1.00  0.00     0.047 C 
ENDROOT
BRANCH   1  13
HETATM   13  N   UNL     1      27.258  42.164  53.247  1.00  0.00    -0.340 N 
HETATM   14  H   UNL     1      27.211  41.581  54.067  1.00  0.00     0.167 HD
BRANCH  13  15
HETATM   15  C   UNL     1      27.630  41.482  52.076  1.00  0.00     0.036 A 
HETATM   16  C   UNL     1      27.125  41.789  50.806  1.00  0.00     0.032 A 
HETATM   17  C   UNL     1      27.503  41.056  49.675  1.00  0.00     0.042 A 
HETATM   18  C   UNL     1      28.384  39.989  49.802  1.00  0.00     0.102 A 
HETATM   19  C   UNL     1      28.868  39.640  51.064  1.00  0.00     0.104 A 
HETATM   20  O   UNL     1      28.721  39.322  48.653  1.00  0.00    -0.346 OA
HETATM   21  C   UNL     1      28.506  40.389  52.185  1.00  0.00     0.069 A 
HETATM   22  O   UNL     1      29.705  38.573  51.279  1.00  0.00    -0.346 OA
HETATM   23  C   UNL     1      29.708  37.686  50.154  1.00  0.00     0.202 C 
HETATM   24  C   UNL     1      29.851  38.466  48.857  1.00  0.00     0.202 C 
ENDBRANCH  13  15
ENDBRANCH   1  13
TORSDOF 2
ENDMDL
MODEL 3
REMARK VINA RESULT:      -8.6      6.441      9.976
REMARK  2 active torsions:
REMARK  status: ('A' for Active; 'I' for Inactive)
REMARK    1  A    between atoms: C_2  and  N_3 
REMARK    2  A    between atoms: N_3  and  C_4 
ROOT
HETATM    1  C   UNL     1      26.377  46.195  53.621  1.00  0.00     0.143 A 
HETATM    2  N   UNL     1      25.756  47.319  54.055  1.00  0.00    -0.223 NA
HETATM    3  C   UNL     1      26.224  47.962  55.135  1.00  0.00     0.236 A 
HETATM    4  N   UNL     1      27.278  47.637  55.883  1.00  0.00    -0.234 NA
HETATM    5  C   UNL     1      27.887  46.525  55.441  1.00  0.00     0.114 A 
HETATM    6  C   UNL     1      27.511  45.751  54.341  1.00  0.00     0.053 A 
HETATM    7  S   UNL     1      29.279  45.924  56.255  1.00  0.00    -0.073 SA
HETATM    8  C   UNL     1      29.392  44.663  55.168  1.00  0.00    -0.008 A 
HETATM    9  C   UNL     1      28.417  44.657  54.209  1.00  0.00    -0.028 A 
HETATM   10  C   UNL     1      28.605  43.511  53.281  1.00  0.00     0.041 C 
HETATM   11  C   UNL     1      29.652  42.631  54.033  1.00  0.00     0.010 C 
HETATM   12  C   UNL     1      30.371  43.558  55.056  1.00  0.00     0.047 C 
ENDROOT
BRANCH   1  13
HETATM   13  N   UNL     1      25.883  45.480  52.520  1.00  0.00    -0.340 N 
HETATM   14  H   UNL     1      26.166  44.512  52.504  1.00  0.00     0.167 HD
BRANCH  13  15
HETATM   15  C   UNL     1      25.066  45.858  51.440  1.00  0.00     0.036 A 
HETATM   16  C   UNL     1      24.338  44.948  50.664  1.00  0.00     0.032 A 
HETATM   17  C   UNL     1      23.564  45.373  49.577  1.00  0.00     0.042 A 
HETATM   18  C   UNL     1      23.521  46.720  49.241  1.00  0.00     0.102 A 
HETATM   19  C   UNL     1      24.271  47.639  49.976  1.00  0.00     0.104 A 
HETATM   20  O   UNL     1      22.735  47.069  48.174  1.00  0.00    -0.346 OA
HETATM   21  C   UNL     1      25.023  47.213  51.073  1.00  0.00     0.069 A 
HETATM   22  O   UNL     1      24.318  48.979  49.679  1.00  0.00    -0.346 OA
HETATM   23  C   UNL     1      23.826  49.231  48.358  1.00  0.00     0.202 C 
HETATM   24  C   UNL     1      22.525  48.484  48.119  1.00  0.00     0.202 C 
ENDBRANCH  13  15
ENDBRANCH   1  13
TORSDOF 2
ENDMDL
MODEL 4
REMARK VINA RESULT:      -8.4      7.192     10.242
REMARK  2 active torsions:
REMARK  status: ('A' for Active; 'I' for Inactive)
REMARK    1  A    between atoms: C_2  and  N_3 
REMARK    2  A    between atoms: N_3  and  C_4 
ROOT
HETATM    1  C   UNL     1      26.928  43.021  52.811  1.00  0.00     0.143 A 
HETATM    2  N   UNL     1      27.117  41.927  52.031  1.00  0.00    -0.223 NA
HETATM    3  C   UNL     1      28.299  41.295  52.048  1.00  0.00     0.236 A 
HETATM    4  N   UNL     1      29.377  41.605  52.768  1.00  0.00    -0.234 NA
HETATM    5  C   UNL     1      29.177  42.686  53.538  1.00  0.00     0.114 A 
HETATM    6  C   UNL     1      28.008  43.445  53.620  1.00  0.00     0.053 A 
HETATM    7  S   UNL     1      30.437  43.262  54.559  1.00  0.00    -0.073 SA
HETATM    8  C   UNL     1      29.454  44.493  55.109  1.00  0.00    -0.008 A 
HETATM    9  C   UNL     1      28.204  44.506  54.553  1.00  0.00    -0.028 A 
HETATM   10  C   UNL     1      27.397  45.623  55.110  1.00  0.00     0.041 C 
HETATM   11  C   UNL     1      28.470  46.488  55.843  1.00  0.00     0.010 C 
HETATM   12  C   UNL     1      29.696  45.563  56.103  1.00  0.00     0.047 C 
ENDROOT
BRANCH   1  13
HETATM   13  N   UNL     1      25.714  43.724  52.781  1.00  0.00    -0.340 N 
HETATM   14  H   UNL     1      25.225  43.726  53.663  1.00  0.00     0.167 HD
BRANCH  13  15
HETATM   15  C   UNL     1      25.058  44.430  51.757  1.00  0.00     0.036 A 
HETATM   16  C   UNL     1      24.254  43.819  50.789  1.00  0.00     0.032 A 
HETATM   17  C   UNL     1      23.649  44.563  49.768  1.00  0.00     0.042 A 
HETATM   18  C   UNL     1      23.855  45.935  49.695  1.00  0.00     0.102 A 
HETATM   19  C   UNL     1      24.686  46.559  50.628  1.00  0.00     0.104 A 
HETATM   20  O   UNL     1      23.224  46.605  48.679  1.00  0.00    -0.346 OA
HETATM   21  C   UNL     1      25.268  45.815  51.656  1.00  0.00     0.069 A 
HETATM   22  O   UNL     1      24.976  47.901  50.596  1.00  0.00    -0.346 OA
HETATM   23  C   UNL     1      24.639  48.471  49.325  1.00  0.00     0.202 C 
HETATM   24  C   UNL     1      23.255  48.021  48.888  1.00  0.00     0.202 C 
ENDBRANCH  13  15
ENDBRANCH   1  13
TORSDOF 2
ENDMDL
MODEL 5
REMARK VINA RESULT:      -8.3      6.132      9.142
REMARK  2 active torsions:
REMARK  status: ('A' for Active; 'I' for Inactive)
REMARK    1  A    between atoms: C_2  and  N_3 
REMARK    2  A    between atoms: N_3  and  C_4 
ROOT
HETATM    1  C   UNL     1      26.447  43.993  51.695  1.00  0.00     0.143 A 
HETATM    2  N   UNL     1      26.643  42.837  51.014  1.00  0.00    -0.223 NA
HETATM    3  C   UNL     1      27.632  42.009  51.380  1.00  0.00     0.236 A 
HETATM    4  N   UNL     1      28.499  42.168  52.380  1.00  0.00    -0.234 NA
HETATM    5  C   UNL     1      28.292  43.314  53.049  1.00  0.00     0.114 A 
HETATM    6  C   UNL     1      27.311  44.270  52.780  1.00  0.00     0.053 A 
HETATM    7  S   UNL     1      29.294  43.721  54.388  1.00  0.00    -0.073 SA
HETATM    8  C   UNL     1      28.442  45.137  54.617  1.00  0.00    -0.008 A 
HETATM    9  C   UNL     1      27.428  45.336  53.721  1.00  0.00    -0.028 A 
HETATM   10  C   UNL     1      26.718  46.609  54.010  1.00  0.00     0.041 C 
HETATM   11  C   UNL     1      27.680  47.315  55.017  1.00  0.00     0.010 C 
HETATM   12  C   UNL     1      28.586  46.207  55.630  1.00  0.00     0.047 C 
ENDROOT
BRANCH   1  13
HETATM   13  N   UNL     1      25.445  44.895  51.308  1.00  0.00    -0.340 N 
HETATM   14  H   UNL     1      24.520  44.627  51.604  1.00  0.00     0.167 HD
BRANCH  13  15
HETATM   15  C   UNL     1      25.491  46.104  50.591  1.00  0.00     0.036 A 
HETATM   16  C   UNL     1      26.682  46.737  50.215  1.00  0.00     0.032 A 
HETATM   17  C   UNL     1      26.674  47.958  49.530  1.00  0.00     0.042 A 
HETATM   18  C   UNL     1      25.467  48.573  49.223  1.00  0.00     0.102 A 
HETATM   19  C   UNL     1      24.268  47.979  49.623  1.00  0.00     0.104 A 
HETATM   20  O   UNL     1      25.530  49.760  48.541  1.00  0.00    -0.346 OA
HETATM   21  C   UNL     1      24.282  46.750  50.286  1.00  0.00     0.069 A 
HETATM   22  O   UNL     1      23.038  48.545  49.398  1.00  0.00    -0.346 OA
HETATM   23  C   UNL     1      23.163  49.931  49.059  1.00  0.00     0.202 C 
HETATM   24  C   UNL     1      24.250  50.131  48.016  1.00  0.00     0.202 C 
ENDBRANCH  13  15
ENDBRANCH   1  13
TORSDOF 2
ENDMDL
MODEL 6
REMARK VINA RESULT:      -8.1      8.781     11.071
REMARK  2 active torsions:
REMARK  status: ('A' for Active; 'I' for Inactive)
REMARK    1  A    between atoms: C_2  and  N_3 
REMARK    2  A    between atoms: N_3  and  C_4 
ROOT
HETATM    1  C   UNL     1      28.276  43.041  53.944  1.00  0.00     0.143 A 
HETATM    2  N   UNL     1      29.376  42.395  54.404  1.00  0.00    -0.223 NA
HETATM    3  C   UNL     1      30.250  43.047  55.185  1.00  0.00     0.236 A 
HETATM    4  N   UNL     1      30.185  44.311  55.601  1.00  0.00    -0.234 NA
HETATM    5  C   UNL     1      29.090  44.938  55.143  1.00  0.00     0.114 A 
HETATM    6  C   UNL     1      28.102  44.393  54.321  1.00  0.00     0.053 A 
HETATM    7  S   UNL     1      28.799  46.581  55.563  1.00  0.00    -0.073 SA
HETATM    8  C   UNL     1      27.383  46.575  54.680  1.00  0.00    -0.008 A 
HETATM    9  C   UNL     1      27.110  45.385  54.063  1.00  0.00    -0.028 A 
HETATM   10  C   UNL     1      25.828  45.468  53.315  1.00  0.00     0.041 C 
HETATM   11  C   UNL     1      25.539  47.002  53.300  1.00  0.00     0.010 C 
HETATM   12  C   UNL     1      26.367  47.629  54.460  1.00  0.00     0.047 C 
ENDROOT
BRANCH   1  13
HETATM   13  N   UNL     1      27.367  42.395  53.092  1.00  0.00    -0.340 N 
HETATM   14  H   UNL     1      26.574  41.996  53.571  1.00  0.00     0.167 HD
BRANCH  13  15
HETATM   15  C   UNL     1      27.351  42.206  51.699  1.00  0.00     0.036 A 
HETATM   16  C   UNL     1      26.626  43.014  50.816  1.00  0.00     0.032 A 
HETATM   17  C   UNL     1      26.617  42.763  49.438  1.00  0.00     0.042 A 
HETATM   18  C   UNL     1      27.327  41.684  48.925  1.00  0.00     0.102 A 
HETATM   19  C   UNL     1      28.025  40.842  49.793  1.00  0.00     0.104 A 
HETATM   20  O   UNL     1      27.285  41.502  47.567  1.00  0.00    -0.346 OA
HETATM   21  C   UNL     1      28.048  41.111  51.162  1.00  0.00     0.069 A 
HETATM   22  O   UNL     1      28.711  39.731  49.370  1.00  0.00    -0.346 OA
HETATM   23  C   UNL     1      28.320  39.357  48.043  1.00  0.00     0.202 C 
HETATM   24  C   UNL     1      28.284  40.573  47.133  1.00  0.00     0.202 C 
ENDBRANCH  13  15
ENDBRANCH   1  13
TORSDOF 2
ENDMDL
MODEL 7
REMARK VINA RESULT:      -8.1      6.831     10.327
REMARK  2 active torsions:
REMARK  status: ('A' for Active; 'I' for Inactive)
REMARK    1  A    between atoms: C_2  and  N_3 
REMARK    2  A    between atoms: N_3  and  C_4 
ROOT
HETATM    1  C   UNL     1      26.363  46.021  53.982  1.00  0.00     0.143 A 
HETATM    2  N   UNL     1      25.823  47.184  54.424  1.00  0.00    -0.223 NA
HETATM    3  C   UNL     1      26.442  47.880  55.389  1.00  0.00     0.236 A 
HETATM    4  N   UNL     1      27.582  47.575  56.008  1.00  0.00    -0.234 NA
HETATM    5  C   UNL     1      28.109  46.425  55.559  1.00  0.00     0.114 A 
HETATM    6  C   UNL     1      27.576  45.595  54.570  1.00  0.00     0.053 A 
HETATM    7  S   UNL     1      29.589  45.841  56.216  1.00  0.00    -0.073 SA
HETATM    8  C   UNL     1      29.535  44.514  55.205  1.00  0.00    -0.008 A 
HETATM    9  C   UNL     1      28.439  44.475  54.386  1.00  0.00    -0.028 A 
HETATM   10  C   UNL     1      28.483  43.271  53.515  1.00  0.00     0.041 C 
HETATM   11  C   UNL     1      29.609  42.413  54.174  1.00  0.00     0.010 C 
HETATM   12  C   UNL     1      30.473  43.383  55.032  1.00  0.00     0.047 C 
ENDROOT
BRANCH   1  13
HETATM   13  N   UNL     1      25.714  45.253  53.004  1.00  0.00    -0.340 N 
HETATM   14  H   UNL     1      25.702  44.266  53.205  1.00  0.00     0.167 HD
BRANCH  13  15
HETATM   15  C   UNL     1      25.074  45.603  51.801  1.00  0.00     0.036 A 
HETATM   16  C   UNL     1      25.158  46.875  51.221  1.00  0.00     0.032 A 
HETATM   17  C   UNL     1      24.474  47.182  50.039  1.00  0.00     0.042 A 
HETATM   18  C   UNL     1      23.680  46.221  49.426  1.00  0.00     0.102 A 
HETATM   19  C   UNL     1      23.551  44.959  50.009  1.00  0.00     0.104 A 
HETATM   20  O   UNL     1      23.048  46.584  48.266  1.00  0.00    -0.346 OA
HETATM   21  C   UNL     1      24.253  44.650  51.176  1.00  0.00     0.069 A 
HETATM   22  O   UNL     1      22.751  43.971  49.491  1.00  0.00    -0.346 OA
HETATM   23  C   UNL     1      21.822  44.505  48.540  1.00  0.00     0.202 C 
HETATM   24  C   UNL     1      22.526  45.444  47.574  1.00  0.00     0.202 C 
ENDBRANCH  13  15
ENDBRANCH   1  13
TORSDOF 2
ENDMDL
MODEL 8
REMARK VINA RESULT:      -8.0      8.872     11.585
REMARK  2 active torsions:
REMARK  status: ('A' for Active; 'I' for Inactive)
REMARK    1  A    between atoms: C_2  and  N_3 
REMARK    2  A    between atoms: N_3  and  C_4 
ROOT
HETATM    1  C   UNL     1      26.840  43.485  53.185  1.00  0.00     0.143 A 
HETATM    2  N   UNL     1      25.687  44.076  52.785  1.00  0.00    -0.223 NA
HETATM    3  C   UNL     1      25.392  45.313  53.210  1.00  0.00     0.236 A 
HETATM    4  N   UNL     1      26.116  46.092  54.015  1.00  0.00    -0.234 NA
HETATM    5  C   UNL     1      27.256  45.497  54.401  1.00  0.00     0.114 A 
HETATM    6  C   UNL     1      27.690  44.219  54.045  1.00  0.00     0.053 A 
HETATM    7  S   UNL     1      28.350  46.326  55.439  1.00  0.00    -0.073 SA
HETATM    8  C   UNL     1      29.389  45.020  55.416  1.00  0.00    -0.008 A 
HETATM    9  C   UNL     1      28.951  43.965  54.663  1.00  0.00    -0.028 A 
HETATM   10  C   UNL     1      29.942  42.858  54.689  1.00  0.00     0.041 C 
HETATM   11  C   UNL     1      30.895  43.280  55.852  1.00  0.00     0.010 C 
HETATM   12  C   UNL     1      30.707  44.812  56.058  1.00  0.00     0.047 C 
ENDROOT
BRANCH   1  13
HETATM   13  N   UNL     1      27.153  42.176  52.788  1.00  0.00    -0.340 N 
HETATM   14  H   UNL     1      27.433  41.577  53.549  1.00  0.00     0.167 HD
BRANCH  13  15
HETATM   15  C   UNL     1      27.144  41.545  51.532  1.00  0.00     0.036 A 
HETATM   16  C   UNL     1      28.287  41.010  50.926  1.00  0.00     0.032 A 
HETATM   17  C   UNL     1      28.230  40.420  49.657  1.00  0.00     0.042 A 
HETATM   18  C   UNL     1      27.024  40.370  48.968  1.00  0.00     0.102 A 
HETATM   19  C   UNL     1      25.880  40.933  49.538  1.00  0.00     0.104 A 
HETATM   20  O   UNL     1      27.036  39.769  47.737  1.00  0.00    -0.346 OA
HETATM   21  C   UNL     1      25.938  41.500  50.812  1.00  0.00     0.069 A 
HETATM   22  O   UNL     1      24.663  40.965  48.903  1.00  0.00    -0.346 OA
HETATM   23  C   UNL     1      24.806  40.702  47.502  1.00  0.00     0.202 C 
HETATM   24  C   UNL     1      25.709  39.501  47.272  1.00  0.00     0.202 C 
ENDBRANCH  13  15
ENDBRANCH   1  13
TORSDOF 2
ENDMDL
MODEL 9
REMARK VINA RESULT:      -7.8     11.855     13.027
REMARK  2 active torsions:
REMARK  status: ('A' for Active; 'I' for Inactive)
REMARK    1  A    between atoms: C_2  and  N_3 
REMARK    2  A    between atoms: N_3  and  C_4 
ROOT
HETATM    1  C   UNL     1      29.680  49.224  41.494  1.00  0.00     0.143 A 
HETATM    2  N   UNL     1      29.227  47.947  41.519  1.00  0.00    -0.223 NA
HETATM    3  C   UNL     1      28.289  47.557  40.643  1.00  0.00     0.236 A 
HETATM    4  N   UNL     1      27.708  48.290  39.693  1.00  0.00    -0.234 NA
HETATM    5  C   UNL     1      28.168  49.551  39.676  1.00  0.00     0.114 A 
HETATM    6  C   UNL     1      29.132  50.097  40.525  1.00  0.00     0.053 A 
HETATM    7  S   UNL     1      27.560  50.674  38.522  1.00  0.00    -0.073 SA
HETATM    8  C   UNL     1      28.560  51.865  39.127  1.00  0.00    -0.008 A 
HETATM    9  C   UNL     1      29.339  51.465  40.178  1.00  0.00    -0.028 A 
HETATM   10  C   UNL     1      30.204  52.582  40.641  1.00  0.00     0.041 C 
HETATM   11  C   UNL     1      29.580  53.818  39.920  1.00  0.00     0.010 C 
HETATM   12  C   UNL     1      28.758  53.273  38.715  1.00  0.00     0.047 C 
ENDROOT
BRANCH   1  13
HETATM   13  N   UNL     1      30.631  49.668  42.425  1.00  0.00    -0.340 N 
HETATM   14  H   UNL     1      30.264  49.779  43.358  1.00  0.00     0.167 HD
BRANCH  13  15
HETATM   15  C   UNL     1      31.996  49.981  42.303  1.00  0.00     0.036 A 
HETATM   16  C   UNL     1      32.880  49.279  41.475  1.00  0.00     0.032 A 
HETATM   17  C   UNL     1      34.239  49.609  41.415  1.00  0.00     0.042 A 
HETATM   18  C   UNL     1      34.738  50.643  42.197  1.00  0.00     0.102 A 
HETATM   19  C   UNL     1      33.881  51.331  43.059  1.00  0.00     0.104 A 
HETATM   20  O   UNL     1      36.075  50.922  42.081  1.00  0.00    -0.346 OA
HETATM   21  C   UNL     1      32.523  51.012  43.099  1.00  0.00     0.069 A 
HETATM   22  O   UNL     1      34.305  52.332  43.898  1.00  0.00    -0.346 OA
HETATM   23  C   UNL     1      35.730  52.317  44.039  1.00  0.00     0.202 C 
HETATM   24  C   UNL     1      36.401  52.180  42.682  1.00  0.00     0.202 C 
ENDBRANCH  13  15
ENDBRANCH   1  13
TORSDOF 2
ENDMDL
MODEL 10
REMARK VINA RESULT:      -7.7      5.495      8.911
REMARK  2 active torsions:
REMARK  status: ('A' for Active; 'I' for Inactive)
REMARK    1  A    between atoms: C_2  and  N_3 
REMARK    2  A    between atoms: N_3  and  C_4 
ROOT
HETATM    1  C   UNL     1      26.227  46.398  52.006  1.00  0.00     0.143 A 
HETATM    2  N   UNL     1      25.926  47.393  52.877  1.00  0.00    -0.223 NA
HETATM    3  C   UNL     1      26.071  47.189  54.194  1.00  0.00     0.236 A 
HETATM    4  N   UNL     1      26.496  46.083  54.805  1.00  0.00    -0.234 NA
HETATM    5  C   UNL     1      26.794  45.107  53.932  1.00  0.00     0.114 A 
HETATM    6  C   UNL     1      26.688  45.173  52.541  1.00  0.00     0.053 A 
HETATM    7  S   UNL     1      27.371  43.590  54.502  1.00  0.00    -0.073 SA
HETATM    8  C   UNL     1      27.489  43.026  52.935  1.00  0.00    -0.008 A 
HETATM    9  C   UNL     1      27.102  43.928  51.982  1.00  0.00    -0.028 A 
HETATM   10  C   UNL     1      27.253  43.347  50.623  1.00  0.00     0.041 C 
HETATM   11  C   UNL     1      27.473  41.830  50.922  1.00  0.00     0.010 C 
HETATM   12  C   UNL     1      27.950  41.725  52.400  1.00  0.00     0.047 C 
ENDROOT
BRANCH   1  13
HETATM   13  N   UNL     1      26.046  46.572  50.625  1.00  0.00    -0.340 N 
HETATM   14  H   UNL     1      26.385  45.801  50.072  1.00  0.00     0.167 HD
BRANCH  13  15
HETATM   15  C   UNL     1      25.476  47.614  49.873  1.00  0.00     0.036 A 
HETATM   16  C   UNL     1      26.228  48.599  49.221  1.00  0.00     0.032 A 
HETATM   17  C   UNL     1      25.610  49.636  48.512  1.00  0.00     0.042 A 
HETATM   18  C   UNL     1      24.224  49.710  48.457  1.00  0.00     0.102 A 
HETATM   19  C   UNL     1      23.455  48.761  49.133  1.00  0.00     0.104 A 
HETATM   20  O   UNL     1      23.685  50.743  47.736  1.00  0.00    -0.346 OA
HETATM   21  C   UNL     1      24.076  47.716  49.820  1.00  0.00     0.069 A 
HETATM   22  O   UNL     1      22.083  48.791  49.166  1.00  0.00    -0.346 OA
HETATM   23  C   UNL     1      21.586  50.072  48.757  1.00  0.00     0.202 C 
HETATM   24  C   UNL     1      22.288  50.540  47.493  1.00  0.00     0.202 C 
ENDBRANCH  13  15
ENDBRANCH   1  13
TORSDOF 2
ENDMDL
