MODEL 1
REMARK VINA RESULT:     -10.0      0.000      0.000
REMARK  6 active torsions:
REMARK  status: ('A' for Active; 'I' for Inactive)
REMARK    1  A    between atoms: C_3  and  C_4 
REMARK       I    between atoms: C_4  and  N_5 
REMARK    2  A    between atoms: N_5  and  C_6 
REMARK    3  A    between atoms: C_6  and  C_7 
REMARK    4  A    between atoms: C_7  and  C_8 
REMARK    5  A    between atoms: C_19  and  O_20 
REMARK    6  A    between atoms: C_29  and  O_30 
ROOT
HETATM    1  C   UNL     1      24.256  47.156  49.609  1.00  0.00     0.158 A 
HETATM    2  N   UNL     1      25.049  48.228  49.735  1.00  0.00    -0.111 NA
HETATM    3  O   UNL     1      24.176  49.297  49.533  1.00  0.00    -0.189 OA
HETATM    4  C   UNL     1      22.934  48.761  49.315  1.00  0.00     0.223 A 
HETATM    5  C   UNL     1      21.764  49.534  49.063  1.00  0.00     0.089 A 
HETATM    6  N   UNL     1      20.544  48.950  48.834  1.00  0.00    -0.352 N 
HETATM    7  H   UNL     1      20.384  47.951  48.825  1.00  0.00     0.166 HD
HETATM    8  C   UNL     1      19.584  49.911  48.618  1.00  0.00     0.045 A 
HETATM    9  C   UNL     1      20.217  51.149  48.711  1.00  0.00    -0.007 A 
HETATM   10  C   UNL     1      21.588  50.901  48.992  1.00  0.00     0.048 A 
HETATM   11  C   UNL     1      18.217  49.782  48.348  1.00  0.00     0.067 A 
HETATM   12  C   UNL     1      17.463  50.949  48.165  1.00  0.00     0.070 A 
HETATM   13  C   UNL     1      18.076  52.200  48.252  1.00  0.00     0.038 A 
HETATM   14  C   UNL     1      19.448  52.313  48.524  1.00  0.00     0.016 A 
HETATM   15  N   UNL     1      22.935  47.444  49.368  1.00  0.00    -0.203 NA
ENDROOT
BRANCH   1  16
HETATM   16  C   UNL     1      24.778  45.776  49.770  1.00  0.00     0.103 C 
BRANCH  16  17
HETATM   17  C   UNL     1      24.648  45.247  51.200  1.00  0.00     0.133 C 
BRANCH  17  18
HETATM   18  N   UNL     1      25.937  44.841  51.766  1.00  0.00    -0.352 N 
HETATM   19  C   UNL     1      25.961  44.399  53.089  1.00  0.00     0.254 C 
HETATM   20  O   UNL     1      24.946  44.229  53.759  1.00  0.00    -0.267 OA
HETATM   21  C   UNL     1      27.082  44.828  50.864  1.00  0.00     0.152 C 
BRANCH  19  22
HETATM   22  C   UNL     1      27.274  44.135  53.726  1.00  0.00     0.038 A 
HETATM   23  C   UNL     1      27.965  45.147  54.414  1.00  0.00    -0.044 A 
HETATM   24  C   UNL     1      27.419  46.544  54.519  1.00  0.00     0.049 C 
HETATM   25  C   UNL     1      29.213  44.841  54.990  1.00  0.00     0.044 A 
HETATM   26  C   UNL     1      29.755  43.556  54.887  1.00  0.00     0.068 A 
HETATM   27  C   UNL     1      29.062  42.572  54.178  1.00  0.00     0.038 A 
HETATM   28  C   UNL     1      27.829  42.857  53.592  1.00  0.00     0.020 A 
BRANCH  26  29
HETATM   29  O   UNL     1      30.946  43.141  55.417  1.00  0.00    -0.356 OA
HETATM   30  C   UNL     1      31.194  43.466  56.778  1.00  0.00     0.210 C 
ENDBRANCH  26  29
ENDBRANCH  19  22
ENDBRANCH  17  18
ENDBRANCH  16  17
ENDBRANCH   1  16
BRANCH  12  31
HETATM   31  O   UNL     1      16.137  50.724  47.906  1.00  0.00    -0.356 OA
HETATM   32  C   UNL     1      15.710  49.369  47.852  1.00  0.00     0.210 C 
ENDBRANCH  12  31
TORSDOF 6
ENDMDL
MODEL 2
REMARK VINA RESULT:      -9.4      1.910     11.367
REMARK  6 active torsions:
REMARK  status: ('A' for Active; 'I' for Inactive)
REMARK    1  A    between atoms: C_3  and  C_4 
REMARK       I    between atoms: C_4  and  N_5 
REMARK    2  A    between atoms: N_5  and  C_6 
REMARK    3  A    between atoms: C_6  and  C_7 
REMARK    4  A    between atoms: C_7  and  C_8 
REMARK    5  A    between atoms: C_19  and  O_20 
REMARK    6  A    between atoms: C_29  and  O_30 
ROOT
HETATM    1  C   UNL     1      23.860  45.939  49.283  1.00  0.00     0.158 A 
HETATM    2  N   UNL     1      24.285  44.827  48.670  1.00  0.00    -0.111 NA
HETATM    3  O   UNL     1      25.276  44.349  49.527  1.00  0.00    -0.189 OA
HETATM    4  C   UNL     1      25.343  45.219  50.583  1.00  0.00     0.223 A 
HETATM    5  C   UNL     1      26.243  45.077  51.679  1.00  0.00     0.089 A 
HETATM    6  N   UNL     1      26.283  45.985  52.706  1.00  0.00    -0.352 N 
HETATM    7  H   UNL     1      25.694  46.806  52.765  1.00  0.00     0.166 HD
HETATM    8  C   UNL     1      27.234  45.622  53.632  1.00  0.00     0.045 A 
HETATM    9  C   UNL     1      27.819  44.443  53.175  1.00  0.00    -0.007 A 
HETATM   10  C   UNL     1      27.188  44.108  51.945  1.00  0.00     0.048 A 
HETATM   11  C   UNL     1      27.619  46.241  54.826  1.00  0.00     0.067 A 
HETATM   12  C   UNL     1      28.634  45.644  55.586  1.00  0.00     0.070 A 
HETATM   13  C   UNL     1      29.237  44.464  55.147  1.00  0.00     0.038 A 
HETATM   14  C   UNL     1      28.839  43.854  53.947  1.00  0.00     0.016 A 
HETATM   15  N   UNL     1      24.476  46.206  50.480  1.00  0.00    -0.203 NA
ENDROOT
BRANCH   1  16
HETATM   16  C   UNL     1      22.772  46.775  48.716  1.00  0.00     0.103 C 
BRANCH  16  17
HETATM   17  C   UNL     1      22.867  48.246  49.126  1.00  0.00     0.133 C 
BRANCH  17  18
HETATM   18  N   UNL     1      21.633  48.986  48.850  1.00  0.00    -0.352 N 
HETATM   19  C   UNL     1      21.391  50.152  49.577  1.00  0.00     0.254 C 
HETATM   20  O   UNL     1      22.210  50.642  50.351  1.00  0.00    -0.267 OA
HETATM   21  C   UNL     1      20.802  48.501  47.755  1.00  0.00     0.152 C 
BRANCH  19  22
HETATM   22  C   UNL     1      20.080  50.826  49.424  1.00  0.00     0.038 A 
HETATM   23  C   UNL     1      18.942  50.367  50.110  1.00  0.00    -0.044 A 
HETATM   24  C   UNL     1      18.996  49.165  51.013  1.00  0.00     0.049 C 
HETATM   25  C   UNL     1      17.720  51.040  49.918  1.00  0.00     0.044 A 
HETATM   26  C   UNL     1      17.637  52.146  49.066  1.00  0.00     0.068 A 
HETATM   27  C   UNL     1      18.774  52.569  48.375  1.00  0.00     0.038 A 
HETATM   28  C   UNL     1      19.992  51.911  48.545  1.00  0.00     0.020 A 
BRANCH  26  29
HETATM   29  O   UNL     1      16.513  52.884  48.815  1.00  0.00    -0.356 OA
HETATM   30  C   UNL     1      15.304  52.446  49.421  1.00  0.00     0.210 C 
ENDBRANCH  26  29
ENDBRANCH  19  22
ENDBRANCH  17  18
ENDBRANCH  16  17
ENDBRANCH   1  16
BRANCH  12  31
HETATM   31  O   UNL     1      28.943  46.320  56.736  1.00  0.00    -0.356 OA
HETATM   32  C   UNL     1      29.965  45.766  57.556  1.00  0.00     0.210 C 
ENDBRANCH  12  31
TORSDOF 6
ENDMDL
MODEL 3
REMARK VINA RESULT:      -9.1      1.772     11.350
REMARK  6 active torsions:
REMARK  status: ('A' for Active; 'I' for Inactive)
REMARK    1  A    between atoms: C_3  and  C_4 
REMARK       I    between atoms: C_4  and  N_5 
REMARK    2  A    between atoms: N_5  and  C_6 
REMARK    3  A    between atoms: C_6  and  C_7 
REMARK    4  A    between atoms: C_7  and  C_8 
REMARK    5  A    between atoms: C_19  and  O_20 
REMARK    6  A    between atoms: C_29  and  O_30 
ROOT
HETATM    1  C   UNL     1      24.705  44.431  50.452  1.00  0.00     0.158 A 
HETATM    2  N   UNL     1      25.129  43.273  49.930  1.00  0.00    -0.111 NA
HETATM    3  O   UNL     1      26.229  42.948  50.724  1.00  0.00    -0.189 OA
HETATM    4  C   UNL     1      26.352  43.942  51.659  1.00  0.00     0.223 A 
HETATM    5  C   UNL     1      27.365  43.975  52.661  1.00  0.00     0.089 A 
HETATM    6  N   UNL     1      27.457  45.002  53.565  1.00  0.00    -0.352 N 
HETATM    7  H   UNL     1      26.830  45.796  53.592  1.00  0.00     0.166 HD
HETATM    8  C   UNL     1      28.517  44.798  54.418  1.00  0.00     0.045 A 
HETATM    9  C   UNL     1      29.120  43.600  54.041  1.00  0.00    -0.007 A 
HETATM   10  C   UNL     1      28.388  43.090  52.933  1.00  0.00     0.048 A 
HETATM   11  C   UNL     1      28.985  45.574  55.485  1.00  0.00     0.067 A 
HETATM   12  C   UNL     1      30.105  45.121  56.194  1.00  0.00     0.070 A 
HETATM   13  C   UNL     1      30.728  43.924  55.833  1.00  0.00     0.038 A 
HETATM   14  C   UNL     1      30.245  43.157  54.761  1.00  0.00     0.016 A 
HETATM   15  N   UNL     1      25.423  44.869  51.536  1.00  0.00    -0.203 NA
ENDROOT
BRANCH   1  16
HETATM   16  C   UNL     1      23.518  45.141  49.913  1.00  0.00     0.103 C 
BRANCH  16  17
HETATM   17  C   UNL     1      23.845  46.040  48.720  1.00  0.00     0.133 C 
BRANCH  17  18
HETATM   18  N   UNL     1      22.780  47.008  48.438  1.00  0.00    -0.352 N 
HETATM   19  C   UNL     1      22.770  48.200  49.163  1.00  0.00     0.254 C 
HETATM   20  O   UNL     1      23.666  48.522  49.939  1.00  0.00    -0.267 OA
HETATM   21  C   UNL     1      21.874  46.693  47.341  1.00  0.00     0.152 C 
BRANCH  19  22
HETATM   22  C   UNL     1      21.616  49.117  49.005  1.00  0.00     0.038 A 
HETATM   23  C   UNL     1      21.771  50.387  48.422  1.00  0.00    -0.044 A 
HETATM   24  C   UNL     1      23.112  50.880  47.952  1.00  0.00     0.049 C 
HETATM   25  C   UNL     1      20.642  51.220  48.307  1.00  0.00     0.044 A 
HETATM   26  C   UNL     1      19.389  50.795  48.758  1.00  0.00     0.068 A 
HETATM   27  C   UNL     1      19.262  49.540  49.356  1.00  0.00     0.038 A 
HETATM   28  C   UNL     1      20.369  48.702  49.487  1.00  0.00     0.020 A 
BRANCH  26  29
HETATM   29  O   UNL     1      18.224  51.509  48.685  1.00  0.00    -0.356 OA
HETATM   30  C   UNL     1      17.919  52.360  49.781  1.00  0.00     0.210 C 
ENDBRANCH  26  29
ENDBRANCH  19  22
ENDBRANCH  17  18
ENDBRANCH  16  17
ENDBRANCH   1  16
BRANCH  12  31
HETATM   31  O   UNL     1      30.490  45.944  57.218  1.00  0.00    -0.356 OA
HETATM   32  C   UNL     1      30.884  45.321  58.434  1.00  0.00     0.210 C 
ENDBRANCH  12  31
TORSDOF 6
ENDMDL
MODEL 4
REMARK VINA RESULT:      -9.1      1.649     11.852
REMARK  6 active torsions:
REMARK  status: ('A' for Active; 'I' for Inactive)
REMARK    1  A    between atoms: C_3  and  C_4 
REMARK       I    between atoms: C_4  and  N_5 
REMARK    2  A    between atoms: N_5  and  C_6 
REMARK    3  A    between atoms: C_6  and  C_7 
REMARK    4  A    between atoms: C_7  and  C_8 
REMARK    5  A    between atoms: C_19  and  O_20 
REMARK    6  A    between atoms: C_29  and  O_30 
ROOT
HETATM    1  C   UNL     1      24.765  46.304  50.070  1.00  0.00     0.158 A 
HETATM    2  N   UNL     1      24.931  45.278  49.226  1.00  0.00    -0.111 NA
HETATM    3  O   UNL     1      25.910  44.505  49.850  1.00  0.00    -0.189 OA
HETATM    4  C   UNL     1      26.230  45.138  51.021  1.00  0.00     0.223 A 
HETATM    5  C   UNL     1      27.201  44.660  51.948  1.00  0.00     0.089 A 
HETATM    6  N   UNL     1      27.499  45.340  53.101  1.00  0.00    -0.352 N 
HETATM    7  H   UNL     1      27.066  46.212  53.377  1.00  0.00     0.166 HD
HETATM    8  C   UNL     1      28.465  44.671  53.818  1.00  0.00     0.045 A 
HETATM    9  C   UNL     1      28.793  43.527  53.093  1.00  0.00    -0.007 A 
HETATM   10  C   UNL     1      27.992  43.529  51.918  1.00  0.00     0.048 A 
HETATM   11  C   UNL     1      29.069  44.988  55.039  1.00  0.00     0.067 A 
HETATM   12  C   UNL     1      30.042  44.115  55.545  1.00  0.00     0.070 A 
HETATM   13  C   UNL     1      30.388  42.964  54.835  1.00  0.00     0.038 A 
HETATM   14  C   UNL     1      29.772  42.659  53.612  1.00  0.00     0.016 A 
HETATM   15  N   UNL     1      25.537  46.245  51.204  1.00  0.00    -0.203 NA
ENDROOT
BRANCH   1  16
HETATM   16  C   UNL     1      23.781  47.383  49.804  1.00  0.00     0.103 C 
BRANCH  16  17
HETATM   17  C   UNL     1      23.088  47.244  48.447  1.00  0.00     0.133 C 
BRANCH  17  18
HETATM   18  N   UNL     1      21.852  48.028  48.366  1.00  0.00    -0.352 N 
HETATM   19  C   UNL     1      21.935  49.332  47.878  1.00  0.00     0.254 C 
HETATM   20  O   UNL     1      22.966  49.811  47.412  1.00  0.00    -0.267 OA
HETATM   21  C   UNL     1      20.611  47.342  48.702  1.00  0.00     0.152 C 
BRANCH  19  22
HETATM   22  C   UNL     1      20.727  50.190  47.935  1.00  0.00     0.038 A 
HETATM   23  C   UNL     1      20.475  51.017  49.043  1.00  0.00    -0.044 A 
HETATM   24  C   UNL     1      21.403  51.056  50.226  1.00  0.00     0.049 C 
HETATM   25  C   UNL     1      19.306  51.802  49.048  1.00  0.00     0.044 A 
HETATM   26  C   UNL     1      18.414  51.767  47.972  1.00  0.00     0.068 A 
HETATM   27  C   UNL     1      18.672  50.920  46.892  1.00  0.00     0.038 A 
HETATM   28  C   UNL     1      19.819  50.127  46.872  1.00  0.00     0.020 A 
BRANCH  26  29
HETATM   29  O   UNL     1      17.261  52.494  47.860  1.00  0.00    -0.356 OA
HETATM   30  C   UNL     1      16.225  51.941  47.059  1.00  0.00     0.210 C 
ENDBRANCH  26  29
ENDBRANCH  19  22
ENDBRANCH  17  18
ENDBRANCH  16  17
ENDBRANCH   1  16
BRANCH  12  31
HETATM   31  O   UNL     1      30.577  44.506  56.743  1.00  0.00    -0.356 OA
HETATM   32  C   UNL     1      31.593  43.680  57.297  1.00  0.00     0.210 C 
ENDBRANCH  12  31
TORSDOF 6
ENDMDL
MODEL 5
REMARK VINA RESULT:      -8.9      2.587     11.680
REMARK  6 active torsions:
REMARK  status: ('A' for Active; 'I' for Inactive)
REMARK    1  A    between atoms: C_3  and  C_4 
REMARK       I    between atoms: C_4  and  N_5 
REMARK    2  A    between atoms: N_5  and  C_6 
REMARK    3  A    between atoms: C_6  and  C_7 
REMARK    4  A    between atoms: C_7  and  C_8 
REMARK    5  A    between atoms: C_19  and  O_20 
REMARK    6  A    between atoms: C_29  and  O_30 
ROOT
HETATM    1  C   UNL     1      24.452  47.029  50.114  1.00  0.00     0.158 A 
HETATM    2  N   UNL     1      24.993  47.683  51.151  1.00  0.00    -0.111 NA
HETATM    3  O   UNL     1      25.882  46.752  51.687  1.00  0.00    -0.189 OA
HETATM    4  C   UNL     1      25.799  45.627  50.910  1.00  0.00     0.223 A 
HETATM    5  C   UNL     1      26.557  44.442  51.136  1.00  0.00     0.089 A 
HETATM    6  N   UNL     1      26.425  43.334  50.338  1.00  0.00    -0.352 N 
HETATM    7  H   UNL     1      25.796  43.272  49.548  1.00  0.00     0.166 HD
HETATM    8  C   UNL     1      27.262  42.330  50.768  1.00  0.00     0.045 A 
HETATM    9  C   UNL     1      27.948  42.818  51.879  1.00  0.00    -0.007 A 
HETATM   10  C   UNL     1      27.497  44.148  52.102  1.00  0.00     0.048 A 
HETATM   11  C   UNL     1      27.463  41.040  50.265  1.00  0.00     0.067 A 
HETATM   12  C   UNL     1      28.392  40.213  50.911  1.00  0.00     0.070 A 
HETATM   13  C   UNL     1      29.089  40.679  52.027  1.00  0.00     0.038 A 
HETATM   14  C   UNL     1      28.877  41.976  52.519  1.00  0.00     0.016 A 
HETATM   15  N   UNL     1      24.939  45.760  49.919  1.00  0.00    -0.203 NA
ENDROOT
BRANCH   1  16
HETATM   16  C   UNL     1      23.444  47.665  49.230  1.00  0.00     0.103 C 
BRANCH  16  17
HETATM   17  C   UNL     1      23.315  49.173  49.452  1.00  0.00     0.133 C 
BRANCH  17  18
HETATM   18  N   UNL     1      22.010  49.692  49.033  1.00  0.00    -0.352 N 
HETATM   19  C   UNL     1      21.416  50.681  49.817  1.00  0.00     0.254 C 
HETATM   20  O   UNL     1      21.980  51.212  50.770  1.00  0.00    -0.267 OA
HETATM   21  C   UNL     1      21.482  49.208  47.763  1.00  0.00     0.152 C 
BRANCH  19  22
HETATM   22  C   UNL     1      20.031  51.103  49.498  1.00  0.00     0.038 A 
HETATM   23  C   UNL     1      18.923  50.461  50.076  1.00  0.00    -0.044 A 
HETATM   24  C   UNL     1      19.088  49.307  51.027  1.00  0.00     0.049 C 
HETATM   25  C   UNL     1      17.631  50.898  49.728  1.00  0.00     0.044 A 
HETATM   26  C   UNL     1      17.448  51.953  48.829  1.00  0.00     0.068 A 
HETATM   27  C   UNL     1      18.562  52.561  48.248  1.00  0.00     0.038 A 
HETATM   28  C   UNL     1      19.851  52.137  48.572  1.00  0.00     0.020 A 
BRANCH  26  29
HETATM   29  O   UNL     1      16.246  52.471  48.431  1.00  0.00    -0.356 OA
HETATM   30  C   UNL     1      15.310  52.789  49.452  1.00  0.00     0.210 C 
ENDBRANCH  26  29
ENDBRANCH  19  22
ENDBRANCH  17  18
ENDBRANCH  16  17
ENDBRANCH   1  16
BRANCH  12  31
HETATM   31  O   UNL     1      28.521  38.971  50.349  1.00  0.00    -0.356 OA
HETATM   32  C   UNL     1      29.352  38.865  49.200  1.00  0.00     0.210 C 
ENDBRANCH  12  31
TORSDOF 6
ENDMDL
MODEL 6
REMARK VINA RESULT:      -8.8      1.983     11.363
REMARK  6 active torsions:
REMARK  status: ('A' for Active; 'I' for Inactive)
REMARK    1  A    between atoms: C_3  and  C_4 
REMARK       I    between atoms: C_4  and  N_5 
REMARK    2  A    between atoms: N_5  and  C_6 
REMARK    3  A    between atoms: C_6  and  C_7 
REMARK    4  A    between atoms: C_7  and  C_8 
REMARK    5  A    between atoms: C_19  and  O_20 
REMARK    6  A    between atoms: C_29  and  O_30 
ROOT
HETATM    1  C   UNL     1      22.759  47.850  48.705  1.00  0.00     0.158 A 
HETATM    2  N   UNL     1      23.116  48.974  49.340  1.00  0.00    -0.111 NA
HETATM    3  O   UNL     1      24.038  48.527  50.287  1.00  0.00    -0.189 OA
HETATM    4  C   UNL     1      24.155  47.173  50.121  1.00  0.00     0.223 A 
HETATM    5  C   UNL     1      25.006  46.342  50.907  1.00  0.00     0.089 A 
HETATM    6  N   UNL     1      25.076  44.986  50.713  1.00  0.00    -0.352 N 
HETATM    7  H   UNL     1      24.543  44.482  50.016  1.00  0.00     0.166 HD
HETATM    8  C   UNL     1      25.964  44.420  51.597  1.00  0.00     0.045 A 
HETATM    9  C   UNL     1      26.475  45.452  52.381  1.00  0.00    -0.007 A 
HETATM   10  C   UNL     1      25.865  46.658  51.939  1.00  0.00     0.048 A 
HETATM   11  C   UNL     1      26.351  43.085  51.763  1.00  0.00     0.067 A 
HETATM   12  C   UNL     1      27.289  42.785  52.761  1.00  0.00     0.070 A 
HETATM   13  C   UNL     1      27.813  43.803  53.560  1.00  0.00     0.038 A 
HETATM   14  C   UNL     1      27.416  45.137  53.380  1.00  0.00     0.016 A 
HETATM   15  N   UNL     1      23.394  46.715  49.146  1.00  0.00    -0.203 NA
ENDROOT
BRANCH   1  16
HETATM   16  C   UNL     1      21.787  47.862  47.583  1.00  0.00     0.103 C 
BRANCH  16  17
HETATM   17  C   UNL     1      20.412  47.316  47.973  1.00  0.00     0.133 C 
BRANCH  17  18
HETATM   18  N   UNL     1      19.547  48.345  48.559  1.00  0.00    -0.352 N 
HETATM   19  C   UNL     1      18.947  49.264  47.699  1.00  0.00     0.254 C 
HETATM   20  O   UNL     1      19.020  49.186  46.475  1.00  0.00    -0.267 OA
HETATM   21  C   UNL     1      19.294  48.258  49.992  1.00  0.00     0.152 C 
BRANCH  19  22
HETATM   22  C   UNL     1      18.199  50.402  48.285  1.00  0.00     0.038 A 
HETATM   23  C   UNL     1      18.861  51.567  48.710  1.00  0.00    -0.044 A 
HETATM   24  C   UNL     1      20.355  51.707  48.608  1.00  0.00     0.049 C 
HETATM   25  C   UNL     1      18.099  52.611  49.269  1.00  0.00     0.044 A 
HETATM   26  C   UNL     1      16.711  52.498  49.396  1.00  0.00     0.068 A 
HETATM   27  C   UNL     1      16.077  51.322  48.990  1.00  0.00     0.038 A 
HETATM   28  C   UNL     1      16.814  50.272  48.442  1.00  0.00     0.020 A 
BRANCH  26  29
HETATM   29  O   UNL     1      15.871  53.448  49.907  1.00  0.00    -0.356 OA
HETATM   30  C   UNL     1      14.583  53.015  50.322  1.00  0.00     0.210 C 
ENDBRANCH  26  29
ENDBRANCH  19  22
ENDBRANCH  17  18
ENDBRANCH  16  17
ENDBRANCH   1  16
BRANCH  12  31
HETATM   31  O   UNL     1      27.606  41.456  52.849  1.00  0.00    -0.356 OA
HETATM   32  C   UNL     1      28.977  41.108  52.700  1.00  0.00     0.210 C 
ENDBRANCH  12  31
TORSDOF 6
ENDMDL
MODEL 7
REMARK VINA RESULT:      -8.8      2.590      3.385
REMARK  6 active torsions:
REMARK  status: ('A' for Active; 'I' for Inactive)
REMARK    1  A    between atoms: C_3  and  C_4 
REMARK       I    between atoms: C_4  and  N_5 
REMARK    2  A    between atoms: N_5  and  C_6 
REMARK    3  A    between atoms: C_6  and  C_7 
REMARK    4  A    between atoms: C_7  and  C_8 
REMARK    5  A    between atoms: C_19  and  O_20 
REMARK    6  A    between atoms: C_29  and  O_30 
ROOT
HETATM    1  C   UNL     1      23.428  43.125  49.671  1.00  0.00     0.158 A 
HETATM    2  N   UNL     1      22.680  42.412  48.819  1.00  0.00    -0.111 NA
HETATM    3  O   UNL     1      21.857  43.373  48.234  1.00  0.00    -0.189 OA
HETATM    4  C   UNL     1      22.201  44.580  48.783  1.00  0.00     0.223 A 
HETATM    5  C   UNL     1      21.582  45.818  48.444  1.00  0.00     0.089 A 
HETATM    6  N   UNL     1      21.950  46.999  49.035  1.00  0.00    -0.352 N 
HETATM    7  H   UNL     1      22.670  47.083  49.741  1.00  0.00     0.166 HD
HETATM    8  C   UNL     1      21.203  48.040  48.536  1.00  0.00     0.045 A 
HETATM    9  C   UNL     1      20.327  47.501  47.595  1.00  0.00    -0.007 A 
HETATM   10  C   UNL     1      20.574  46.101  47.545  1.00  0.00     0.048 A 
HETATM   11  C   UNL     1      21.232  49.406  48.842  1.00  0.00     0.067 A 
HETATM   12  C   UNL     1      20.342  50.255  48.171  1.00  0.00     0.070 A 
HETATM   13  C   UNL     1      19.454  49.737  47.226  1.00  0.00     0.038 A 
HETATM   14  C   UNL     1      19.438  48.365  46.930  1.00  0.00     0.016 A 
HETATM   15  N   UNL     1      23.176  44.475  49.664  1.00  0.00    -0.203 NA
ENDROOT
BRANCH   1  16
HETATM   16  C   UNL     1      24.476  42.491  50.509  1.00  0.00     0.103 C 
BRANCH  16  17
HETATM   17  C   UNL     1      25.878  42.603  49.907  1.00  0.00     0.133 C 
BRANCH  17  18
HETATM   18  N   UNL     1      26.859  43.127  50.862  1.00  0.00    -0.352 N 
HETATM   19  C   UNL     1      27.324  42.270  51.859  1.00  0.00     0.254 C 
HETATM   20  O   UNL     1      27.039  41.076  51.906  1.00  0.00    -0.267 OA
HETATM   21  C   UNL     1      27.354  44.478  50.628  1.00  0.00     0.152 C 
BRANCH  19  22
HETATM   22  C   UNL     1      28.193  42.825  52.924  1.00  0.00     0.038 A 
HETATM   23  C   UNL     1      27.662  43.617  53.957  1.00  0.00    -0.044 A 
HETATM   24  C   UNL     1      26.198  43.954  54.019  1.00  0.00     0.049 C 
HETATM   25  C   UNL     1      28.537  44.126  54.935  1.00  0.00     0.044 A 
HETATM   26  C   UNL     1      29.906  43.848  54.889  1.00  0.00     0.068 A 
HETATM   27  C   UNL     1      30.416  43.079  53.840  1.00  0.00     0.038 A 
HETATM   28  C   UNL     1      29.568  42.573  52.856  1.00  0.00     0.020 A 
BRANCH  26  29
HETATM   29  O   UNL     1      30.844  44.273  55.789  1.00  0.00    -0.356 OA
HETATM   30  C   UNL     1      31.384  43.297  56.669  1.00  0.00     0.210 C 
ENDBRANCH  26  29
ENDBRANCH  19  22
ENDBRANCH  17  18
ENDBRANCH  16  17
ENDBRANCH   1  16
BRANCH  12  31
HETATM   31  O   UNL     1      20.443  51.572  48.535  1.00  0.00    -0.356 OA
HETATM   32  C   UNL     1      19.255  52.350  48.478  1.00  0.00     0.210 C 
ENDBRANCH  12  31
TORSDOF 6
ENDMDL
MODEL 8
REMARK VINA RESULT:      -8.4      6.111     10.518
REMARK  6 active torsions:
REMARK  status: ('A' for Active; 'I' for Inactive)
REMARK    1  A    between atoms: C_3  and  C_4 
REMARK       I    between atoms: C_4  and  N_5 
REMARK    2  A    between atoms: N_5  and  C_6 
REMARK    3  A    between atoms: C_6  and  C_7 
REMARK    4  A    between atoms: C_7  and  C_8 
REMARK    5  A    between atoms: C_19  and  O_20 
REMARK    6  A    between atoms: C_29  and  O_30 
ROOT
HETATM    1  C   UNL     1      24.340  43.049  50.578  1.00  0.00     0.158 A 
HETATM    2  N   UNL     1      23.525  44.047  50.942  1.00  0.00    -0.111 NA
HETATM    3  O   UNL     1      24.230  44.679  51.965  1.00  0.00    -0.189 OA
HETATM    4  C   UNL     1      25.414  44.004  52.109  1.00  0.00     0.223 A 
HETATM    5  C   UNL     1      26.417  44.345  53.062  1.00  0.00     0.089 A 
HETATM    6  N   UNL     1      27.579  43.627  53.180  1.00  0.00    -0.352 N 
HETATM    7  H   UNL     1      27.810  42.820  52.615  1.00  0.00     0.166 HD
HETATM    8  C   UNL     1      28.375  44.158  54.169  1.00  0.00     0.045 A 
HETATM    9  C   UNL     1      27.691  45.250  54.700  1.00  0.00    -0.007 A 
HETATM   10  C   UNL     1      26.460  45.360  53.997  1.00  0.00     0.048 A 
HETATM   11  C   UNL     1      29.633  43.759  54.632  1.00  0.00     0.067 A 
HETATM   12  C   UNL     1      30.221  44.492  55.671  1.00  0.00     0.070 A 
HETATM   13  C   UNL     1      29.555  45.589  56.220  1.00  0.00     0.038 A 
HETATM   14  C   UNL     1      28.293  45.978  55.744  1.00  0.00     0.016 A 
HETATM   15  N   UNL     1      25.529  43.000  51.263  1.00  0.00    -0.203 NA
ENDROOT
BRANCH   1  16
HETATM   16  C   UNL     1      23.987  42.112  49.482  1.00  0.00     0.103 C 
BRANCH  16  17
HETATM   17  C   UNL     1      24.821  42.324  48.217  1.00  0.00     0.133 C 
BRANCH  17  18
HETATM   18  N   UNL     1      25.426  41.081  47.730  1.00  0.00    -0.352 N 
HETATM   19  C   UNL     1      26.812  40.951  47.810  1.00  0.00     0.254 C 
HETATM   20  O   UNL     1      27.533  41.776  48.366  1.00  0.00    -0.267 OA
HETATM   21  C   UNL     1      24.515  40.027  47.297  1.00  0.00     0.152 C 
BRANCH  19  22
HETATM   22  C   UNL     1      27.453  39.772  47.180  1.00  0.00     0.038 A 
HETATM   23  C   UNL     1      27.768  39.760  45.811  1.00  0.00    -0.044 A 
HETATM   24  C   UNL     1      27.454  40.929  44.918  1.00  0.00     0.049 C 
HETATM   25  C   UNL     1      28.367  38.608  45.265  1.00  0.00     0.044 A 
HETATM   26  C   UNL     1      28.648  37.498  46.067  1.00  0.00     0.068 A 
HETATM   27  C   UNL     1      28.305  37.522  47.421  1.00  0.00     0.038 A 
HETATM   28  C   UNL     1      27.703  38.650  47.979  1.00  0.00     0.020 A 
BRANCH  26  29
HETATM   29  O   UNL     1      29.239  36.335  45.653  1.00  0.00    -0.356 OA
HETATM   30  C   UNL     1      30.209  36.437  44.619  1.00  0.00     0.210 C 
ENDBRANCH  26  29
ENDBRANCH  19  22
ENDBRANCH  17  18
ENDBRANCH  16  17
ENDBRANCH   1  16
BRANCH  12  31
HETATM   31  O   UNL     1      31.451  44.029  56.058  1.00  0.00    -0.356 OA
HETATM   32  C   UNL     1      31.582  43.589  57.404  1.00  0.00     0.210 C 
ENDBRANCH  12  31
TORSDOF 6
ENDMDL
MODEL 9
REMARK VINA RESULT:      -8.3      3.349     10.272
REMARK  6 active torsions:
REMARK  status: ('A' for Active; 'I' for Inactive)
REMARK    1  A    between atoms: C_3  and  C_4 
REMARK       I    between atoms: C_4  and  N_5 
REMARK    2  A    between atoms: N_5  and  C_6 
REMARK    3  A    between atoms: C_6  and  C_7 
REMARK    4  A    between atoms: C_7  and  C_8 
REMARK    5  A    between atoms: C_19  and  O_20 
REMARK    6  A    between atoms: C_29  and  O_30 
ROOT
HETATM    1  C   UNL     1      25.540  40.897  49.288  1.00  0.00     0.158 A 
HETATM    2  N   UNL     1      26.281  39.789  49.413  1.00  0.00    -0.111 NA
HETATM    3  O   UNL     1      27.164  40.109  50.444  1.00  0.00    -0.189 OA
HETATM    4  C   UNL     1      26.859  41.382  50.849  1.00  0.00     0.223 A 
HETATM    5  C   UNL     1      27.543  42.075  51.890  1.00  0.00     0.089 A 
HETATM    6  N   UNL     1      27.211  43.356  52.248  1.00  0.00    -0.352 N 
HETATM    7  H   UNL     1      26.473  43.896  51.814  1.00  0.00     0.166 HD
HETATM    8  C   UNL     1      28.019  43.794  53.271  1.00  0.00     0.045 A 
HETATM    9  C   UNL     1      28.898  42.755  53.571  1.00  0.00    -0.007 A 
HETATM   10  C   UNL     1      28.590  41.677  52.696  1.00  0.00     0.048 A 
HETATM   11  C   UNL     1      28.042  45.019  53.947  1.00  0.00     0.067 A 
HETATM   12  C   UNL     1      28.991  45.199  54.963  1.00  0.00     0.070 A 
HETATM   13  C   UNL     1      29.882  44.173  55.280  1.00  0.00     0.038 A 
HETATM   14  C   UNL     1      29.846  42.949  54.594  1.00  0.00     0.016 A 
HETATM   15  N   UNL     1      25.853  41.900  50.173  1.00  0.00    -0.203 NA
ENDROOT
BRANCH   1  16
HETATM   16  C   UNL     1      24.439  40.993  48.298  1.00  0.00     0.103 C 
BRANCH  16  17
HETATM   17  C   UNL     1      23.208  41.724  48.835  1.00  0.00     0.133 C 
BRANCH  17  18
HETATM   18  N   UNL     1      23.191  43.142  48.463  1.00  0.00    -0.352 N 
HETATM   19  C   UNL     1      22.857  44.074  49.445  1.00  0.00     0.254 C 
HETATM   20  O   UNL     1      22.688  43.775  50.625  1.00  0.00    -0.267 OA
HETATM   21  C   UNL     1      23.632  43.476  47.114  1.00  0.00     0.152 C 
BRANCH  19  22
HETATM   22  C   UNL     1      22.682  45.492  49.050  1.00  0.00     0.038 A 
HETATM   23  C   UNL     1      23.661  46.456  49.346  1.00  0.00    -0.044 A 
HETATM   24  C   UNL     1      24.918  46.101  50.092  1.00  0.00     0.049 C 
HETATM   25  C   UNL     1      23.436  47.790  48.955  1.00  0.00     0.044 A 
HETATM   26  C   UNL     1      22.266  48.152  48.281  1.00  0.00     0.068 A 
HETATM   27  C   UNL     1      21.296  47.182  48.018  1.00  0.00     0.038 A 
HETATM   28  C   UNL     1      21.495  45.858  48.405  1.00  0.00     0.020 A 
BRANCH  26  29
HETATM   29  O   UNL     1      21.947  49.407  47.841  1.00  0.00    -0.356 OA
HETATM   30  C   UNL     1      23.018  50.330  47.693  1.00  0.00     0.210 C 
ENDBRANCH  26  29
ENDBRANCH  19  22
ENDBRANCH  17  18
ENDBRANCH  16  17
ENDBRANCH   1  16
BRANCH  12  31
HETATM   31  O   UNL     1      28.938  46.427  55.567  1.00  0.00    -0.356 OA
HETATM   32  C   UNL     1      27.649  46.996  55.762  1.00  0.00     0.210 C 
ENDBRANCH  12  31
TORSDOF 6
ENDMDL
MODEL 10
REMARK VINA RESULT:      -8.3      2.389      3.096
REMARK  6 active torsions:
REMARK  status: ('A' for Active; 'I' for Inactive)
REMARK    1  A    between atoms: C_3  and  C_4 
REMARK       I    between atoms: C_4  and  N_5 
REMARK    2  A    between atoms: N_5  and  C_6 
REMARK    3  A    between atoms: C_6  and  C_7 
REMARK    4  A    between atoms: C_7  and  C_8 
REMARK    5  A    between atoms: C_19  and  O_20 
REMARK    6  A    between atoms: C_29  and  O_30 
ROOT
HETATM    1  C   UNL     1      25.471  48.225  49.911  1.00  0.00     0.158 A 
HETATM    2  N   UNL     1      26.009  49.043  48.998  1.00  0.00    -0.111 NA
HETATM    3  O   UNL     1      24.895  49.581  48.354  1.00  0.00    -0.189 OA
HETATM    4  C   UNL     1      23.789  49.041  48.954  1.00  0.00     0.223 A 
HETATM    5  C   UNL     1      22.448  49.342  48.576  1.00  0.00     0.089 A 
HETATM    6  N   UNL     1      21.372  48.761  49.198  1.00  0.00    -0.352 N 
HETATM    7  H   UNL     1      21.443  48.091  49.953  1.00  0.00     0.166 HD
HETATM    8  C   UNL     1      20.196  49.216  48.648  1.00  0.00     0.045 A 
HETATM    9  C   UNL     1      20.538  50.116  47.640  1.00  0.00    -0.007 A 
HETATM   10  C   UNL     1      21.957  50.188  47.603  1.00  0.00     0.048 A 
HETATM   11  C   UNL     1      18.868  48.904  48.960  1.00  0.00     0.067 A 
HETATM   12  C   UNL     1      17.850  49.524  48.224  1.00  0.00     0.070 A 
HETATM   13  C   UNL     1      18.168  50.427  47.208  1.00  0.00     0.038 A 
HETATM   14  C   UNL     1      19.504  50.731  46.908  1.00  0.00     0.016 A 
HETATM   15  N   UNL     1      24.098  48.211  49.930  1.00  0.00    -0.203 NA
ENDROOT
BRANCH   1  16
HETATM   16  C   UNL     1      26.312  47.444  50.852  1.00  0.00     0.103 C 
BRANCH  16  17
HETATM   17  C   UNL     1      25.606  46.202  51.400  1.00  0.00     0.133 C 
BRANCH  17  18
HETATM   18  N   UNL     1      26.303  44.961  51.049  1.00  0.00    -0.352 N 
HETATM   19  C   UNL     1      25.973  43.803  51.753  1.00  0.00     0.254 C 
HETATM   20  O   UNL     1      25.056  43.751  52.569  1.00  0.00    -0.267 OA
HETATM   21  C   UNL     1      27.213  45.013  49.911  1.00  0.00     0.152 C 
BRANCH  19  22
HETATM   22  C   UNL     1      26.775  42.578  51.520  1.00  0.00     0.038 A 
HETATM   23  C   UNL     1      27.957  42.334  52.242  1.00  0.00    -0.044 A 
HETATM   24  C   UNL     1      28.471  43.308  53.266  1.00  0.00     0.049 C 
HETATM   25  C   UNL     1      28.683  41.159  51.971  1.00  0.00     0.044 A 
HETATM   26  C   UNL     1      28.240  40.247  51.008  1.00  0.00     0.068 A 
HETATM   27  C   UNL     1      27.077  40.521  50.286  1.00  0.00     0.038 A 
HETATM   28  C   UNL     1      26.347  41.684  50.532  1.00  0.00     0.020 A 
BRANCH  26  29
HETATM   29  O   UNL     1      28.852  39.070  50.673  1.00  0.00    -0.356 OA
HETATM   30  C   UNL     1      28.915  38.746  49.291  1.00  0.00     0.210 C 
ENDBRANCH  26  29
ENDBRANCH  19  22
ENDBRANCH  17  18
ENDBRANCH  16  17
ENDBRANCH   1  16
BRANCH  12  31
HETATM   31  O   UNL     1      16.585  49.157  48.600  1.00  0.00    -0.356 OA
HETATM   32  C   UNL     1      16.077  47.944  48.059  1.00  0.00     0.210 C 
ENDBRANCH  12  31
TORSDOF 6
ENDMDL
