MODEL 1
REMARK VINA RESULT:      -9.4      0.000      0.000
REMARK  3 active torsions:
REMARK  status: ('A' for Active; 'I' for Inactive)
REMARK    1  A    between atoms: C_3  and  C_4 
REMARK       I    between atoms: C_4  and  N_5 
REMARK    2  A    between atoms: N_5  and  C_6 
REMARK    3  A    between atoms: C_13  and  C_14 
REMARK       I    between atoms: C_14  and  N_15 
ROOT
HETATM    1  C   UNL     1      25.034  45.693  50.504  1.00  0.00     0.036 A 
HETATM    2  C   UNL     1      24.514  46.983  50.326  1.00  0.00     0.046 A 
HETATM    3  C   UNL     1      23.567  47.218  49.304  1.00  0.00     0.030 A 
HETATM    4  C   UNL     1      23.177  46.160  48.493  1.00  0.00     0.063 A 
HETATM    5  N   UNL     1      22.273  46.688  47.616  1.00  0.00    -0.277 N 
HETATM    6  H   UNL     1      21.779  46.201  46.876  1.00  0.00     0.189 HD
HETATM    7  N   UNL     1      22.035  47.998  47.782  1.00  0.00    -0.168 NA
HETATM    8  C   UNL     1      22.828  48.342  48.823  1.00  0.00     0.156 A 
HETATM    9  C   UNL     1      23.676  44.865  48.639  1.00  0.00     0.034 A 
HETATM   10  C   UNL     1      24.611  44.656  49.661  1.00  0.00     0.032 A 
ENDROOT
BRANCH   1  11
HETATM   11  N   UNL     1      25.984  45.352  51.493  1.00  0.00    -0.322 N 
HETATM   12  C   UNL     1      25.764  44.756  52.722  1.00  0.00     0.273 C 
HETATM   13  O   UNL     1      24.668  44.391  53.132  1.00  0.00    -0.266 OA
HETATM   14  H   UNL     1      26.947  45.526  51.251  1.00  0.00     0.169 HD
BRANCH  12  15
HETATM   15  C   UNL     1      26.980  44.571  53.513  1.00  0.00     0.104 A 
HETATM   16  N   UNL     1      27.490  45.509  54.402  1.00  0.00    -0.346 N 
HETATM   17  C   UNL     1      26.861  46.782  54.703  1.00  0.00     0.156 C 
HETATM   18  C   UNL     1      28.668  45.061  54.973  1.00  0.00     0.045 A 
HETATM   19  C   UNL     1      28.917  43.793  54.448  1.00  0.00    -0.007 A 
HETATM   20  C   UNL     1      29.541  45.656  55.900  1.00  0.00     0.030 A 
HETATM   21  C   UNL     1      27.868  43.502  53.540  1.00  0.00     0.049 A 
HETATM   22  C   UNL     1      30.068  43.090  54.859  1.00  0.00     0.014 A 
HETATM   23  C   UNL     1      30.938  43.674  55.784  1.00  0.00     0.001 A 
HETATM   24  C   UNL     1      30.676  44.940  56.295  1.00  0.00     0.002 A 
ENDBRANCH  12  15
ENDBRANCH   1  11
BRANCH   8  25
HETATM   25  C   UNL     1      22.860  49.721  49.330  1.00  0.00     0.270 C 
HETATM   26  N   UNL     1      21.711  50.109  49.966  1.00  0.00    -0.365 N 
HETATM   27  H   UNL     1      20.950  49.444  50.039  1.00  0.00     0.159 HD
HETATM   28  H   UNL     1      21.642  51.038  50.347  1.00  0.00     0.159 HD
HETATM   29  O   UNL     1      23.810  50.487  49.217  1.00  0.00    -0.266 OA
ENDBRANCH   8  25
TORSDOF 3
ENDMDL
MODEL 2
REMARK VINA RESULT:      -9.3      5.181      6.938
REMARK  3 active torsions:
REMARK  status: ('A' for Active; 'I' for Inactive)
REMARK    1  A    between atoms: C_3  and  C_4 
REMARK       I    between atoms: C_4  and  N_5 
REMARK    2  A    between atoms: N_5  and  C_6 
REMARK    3  A    between atoms: C_13  and  C_14 
REMARK       I    between atoms: C_14  and  N_15 
ROOT
HETATM    1  C   UNL     1      27.497  41.653  51.892  1.00  0.00     0.036 A 
HETATM    2  C   UNL     1      28.012  40.512  51.260  1.00  0.00     0.046 A 
HETATM    3  C   UNL     1      27.304  39.930  50.184  1.00  0.00     0.030 A 
HETATM    4  C   UNL     1      26.104  40.504  49.782  1.00  0.00     0.063 A 
HETATM    5  N   UNL     1      25.663  39.732  48.744  1.00  0.00    -0.277 N 
HETATM    6  H   UNL     1      24.813  39.857  48.205  1.00  0.00     0.189 HD
HETATM    7  N   UNL     1      26.469  38.706  48.431  1.00  0.00    -0.168 NA
HETATM    8  C   UNL     1      27.489  38.814  49.313  1.00  0.00     0.156 A 
HETATM    9  C   UNL     1      25.559  41.635  50.389  1.00  0.00     0.034 A 
HETATM   10  C   UNL     1      26.281  42.196  51.451  1.00  0.00     0.032 A 
ENDROOT
BRANCH   1  11
HETATM   11  N   UNL     1      28.124  42.310  52.974  1.00  0.00    -0.322 N 
HETATM   12  C   UNL     1      29.227  43.145  52.945  1.00  0.00     0.273 C 
HETATM   13  O   UNL     1      29.822  43.476  51.926  1.00  0.00    -0.266 OA
HETATM   14  H   UNL     1      27.683  42.189  53.873  1.00  0.00     0.169 HD
BRANCH  12  15
HETATM   15  C   UNL     1      29.629  43.635  54.264  1.00  0.00     0.104 A 
HETATM   16  N   UNL     1      29.055  44.725  54.904  1.00  0.00    -0.346 N 
HETATM   17  C   UNL     1      27.946  45.498  54.376  1.00  0.00     0.156 C 
HETATM   18  C   UNL     1      29.670  44.965  56.120  1.00  0.00     0.045 A 
HETATM   19  C   UNL     1      30.660  43.994  56.273  1.00  0.00    -0.007 A 
HETATM   20  C   UNL     1      29.451  45.949  57.099  1.00  0.00     0.030 A 
HETATM   21  C   UNL     1      30.629  43.179  55.113  1.00  0.00     0.049 A 
HETATM   22  C   UNL     1      31.455  43.997  57.437  1.00  0.00     0.014 A 
HETATM   23  C   UNL     1      31.239  44.971  58.416  1.00  0.00     0.001 A 
HETATM   24  C   UNL     1      30.251  45.934  58.247  1.00  0.00     0.002 A 
ENDBRANCH  12  15
ENDBRANCH   1  11
BRANCH   8  25
HETATM   25  C   UNL     1      28.607  37.860  49.301  1.00  0.00     0.270 C 
HETATM   26  N   UNL     1      28.602  36.981  50.351  1.00  0.00    -0.365 N 
HETATM   27  H   UNL     1      27.858  37.048  51.036  1.00  0.00     0.159 HD
HETATM   28  H   UNL     1      29.329  36.289  50.425  1.00  0.00     0.159 HD
HETATM   29  O   UNL     1      29.483  37.819  48.445  1.00  0.00    -0.266 OA
ENDBRANCH   8  25
TORSDOF 3
ENDMDL
MODEL 3
REMARK VINA RESULT:      -9.2      1.614      2.202
REMARK  3 active torsions:
REMARK  status: ('A' for Active; 'I' for Inactive)
REMARK    1  A    between atoms: C_3  and  C_4 
REMARK       I    between atoms: C_4  and  N_5 
REMARK    2  A    between atoms: N_5  and  C_6 
REMARK    3  A    between atoms: C_13  and  C_14 
REMARK       I    between atoms: C_14  and  N_15 
ROOT
HETATM    1  C   UNL     1      25.873  44.612  52.003  1.00  0.00     0.036 A 
HETATM    2  C   UNL     1      25.442  45.800  51.397  1.00  0.00     0.046 A 
HETATM    3  C   UNL     1      24.418  45.755  50.424  1.00  0.00     0.030 A 
HETATM    4  C   UNL     1      23.866  44.526  50.087  1.00  0.00     0.063 A 
HETATM    5  N   UNL     1      22.922  44.799  49.137  1.00  0.00    -0.277 N 
HETATM    6  H   UNL     1      22.319  44.137  48.662  1.00  0.00     0.189 HD
HETATM    7  N   UNL     1      22.807  46.099  48.825  1.00  0.00    -0.168 NA
HETATM    8  C   UNL     1      23.727  46.704  49.612  1.00  0.00     0.156 A 
HETATM    9  C   UNL     1      24.272  43.323  50.667  1.00  0.00     0.034 A 
HETATM   10  C   UNL     1      25.286  43.394  51.631  1.00  0.00     0.032 A 
ENDROOT
BRANCH   1  11
HETATM   11  N   UNL     1      26.888  44.546  52.984  1.00  0.00    -0.322 N 
HETATM   12  C   UNL     1      28.204  44.147  52.829  1.00  0.00     0.273 C 
HETATM   13  O   UNL     1      28.708  43.812  51.764  1.00  0.00    -0.266 OA
HETATM   14  H   UNL     1      26.630  44.875  53.902  1.00  0.00     0.169 HD
BRANCH  12  15
HETATM   15  C   UNL     1      28.978  44.176  54.070  1.00  0.00     0.104 A 
HETATM   16  N   UNL     1      28.900  45.186  55.020  1.00  0.00    -0.346 N 
HETATM   17  C   UNL     1      28.007  46.327  54.935  1.00  0.00     0.156 C 
HETATM   18  C   UNL     1      29.777  44.951  56.065  1.00  0.00     0.045 A 
HETATM   19  C   UNL     1      30.428  43.750  55.786  1.00  0.00    -0.007 A 
HETATM   20  C   UNL     1      30.061  45.688  57.227  1.00  0.00     0.030 A 
HETATM   21  C   UNL     1      29.929  43.281  54.545  1.00  0.00     0.049 A 
HETATM   22  C   UNL     1      31.389  43.260  56.693  1.00  0.00     0.014 A 
HETATM   23  C   UNL     1      31.673  43.985  57.854  1.00  0.00     0.001 A 
HETATM   24  C   UNL     1      31.018  45.183  58.115  1.00  0.00     0.002 A 
ENDBRANCH  12  15
ENDBRANCH   1  11
BRANCH   8  25
HETATM   25  C   UNL     1      23.919  48.161  49.572  1.00  0.00     0.270 C 
HETATM   26  N   UNL     1      22.754  48.879  49.621  1.00  0.00    -0.365 N 
HETATM   27  H   UNL     1      21.877  48.376  49.680  1.00  0.00     0.159 HD
HETATM   28  H   UNL     1      22.788  49.885  49.601  1.00  0.00     0.159 HD
HETATM   29  O   UNL     1      25.006  48.722  49.503  1.00  0.00    -0.266 OA
ENDBRANCH   8  25
TORSDOF 3
ENDMDL
MODEL 4
REMARK VINA RESULT:      -9.1      1.904      2.556
REMARK  3 active torsions:
REMARK  status: ('A' for Active; 'I' for Inactive)
REMARK    1  A    between atoms: C_3  and  C_4 
REMARK       I    between atoms: C_4  and  N_5 
REMARK    2  A    between atoms: N_5  and  C_6 
REMARK    3  A    between atoms: C_13  and  C_14 
REMARK       I    between atoms: C_14  and  N_15 
ROOT
HETATM    1  C   UNL     1      25.402  47.772  49.831  1.00  0.00     0.036 A 
HETATM    2  C   UNL     1      24.008  47.704  49.698  1.00  0.00     0.046 A 
HETATM    3  C   UNL     1      23.336  48.658  48.900  1.00  0.00     0.030 A 
HETATM    4  C   UNL     1      24.079  49.648  48.270  1.00  0.00     0.063 A 
HETATM    5  N   UNL     1      23.168  50.406  47.588  1.00  0.00    -0.277 N 
HETATM    6  H   UNL     1      23.355  51.220  47.014  1.00  0.00     0.189 HD
HETATM    7  N   UNL     1      21.897  49.998  47.716  1.00  0.00    -0.168 NA
HETATM    8  C   UNL     1      21.983  48.917  48.526  1.00  0.00     0.156 A 
HETATM    9  C   UNL     1      25.465  49.749  48.382  1.00  0.00     0.034 A 
HETATM   10  C   UNL     1      26.109  48.790  49.175  1.00  0.00     0.032 A 
ENDROOT
BRANCH   1  11
HETATM   11  N   UNL     1      26.168  46.870  50.602  1.00  0.00    -0.322 N 
HETATM   12  C   UNL     1      25.722  45.819  51.385  1.00  0.00     0.273 C 
HETATM   13  O   UNL     1      24.549  45.484  51.496  1.00  0.00    -0.266 OA
HETATM   14  H   UNL     1      27.168  46.981  50.539  1.00  0.00     0.169 HD
BRANCH  12  15
HETATM   15  C   UNL     1      26.795  45.102  52.075  1.00  0.00     0.104 A 
HETATM   16  N   UNL     1      27.176  45.337  53.390  1.00  0.00    -0.346 N 
HETATM   17  C   UNL     1      26.533  46.292  54.274  1.00  0.00     0.156 C 
HETATM   18  C   UNL     1      28.240  44.528  53.748  1.00  0.00     0.045 A 
HETATM   19  C   UNL     1      28.543  43.741  52.638  1.00  0.00    -0.007 A 
HETATM   20  C   UNL     1      28.967  44.419  54.946  1.00  0.00     0.030 A 
HETATM   21  C   UNL     1      27.645  44.110  51.605  1.00  0.00     0.049 A 
HETATM   22  C   UNL     1      29.600  42.812  52.719  1.00  0.00     0.014 A 
HETATM   23  C   UNL     1      30.324  42.695  53.909  1.00  0.00     0.001 A 
HETATM   24  C   UNL     1      30.011  43.489  55.006  1.00  0.00     0.002 A 
ENDBRANCH  12  15
ENDBRANCH   1  11
BRANCH   8  25
HETATM   25  C   UNL     1      20.783  48.164  48.915  1.00  0.00     0.270 C 
HETATM   26  N   UNL     1      20.132  48.675  50.006  1.00  0.00    -0.365 N 
HETATM   27  H   UNL     1      20.508  49.504  50.450  1.00  0.00     0.159 HD
HETATM   28  H   UNL     1      19.297  48.225  50.345  1.00  0.00     0.159 HD
HETATM   29  O   UNL     1      20.366  47.164  48.341  1.00  0.00    -0.266 OA
ENDBRANCH   8  25
TORSDOF 3
ENDMDL
MODEL 5
REMARK VINA RESULT:      -8.9      1.737      2.892
REMARK  3 active torsions:
REMARK  status: ('A' for Active; 'I' for Inactive)
REMARK    1  A    between atoms: C_3  and  C_4 
REMARK       I    between atoms: C_4  and  N_5 
REMARK    2  A    between atoms: N_5  and  C_6 
REMARK    3  A    between atoms: C_13  and  C_14 
REMARK       I    between atoms: C_14  and  N_15 
ROOT
HETATM    1  C   UNL     1      25.050  45.988  50.622  1.00  0.00     0.036 A 
HETATM    2  C   UNL     1      24.437  45.122  49.706  1.00  0.00     0.046 A 
HETATM    3  C   UNL     1      23.494  45.633  48.786  1.00  0.00     0.030 A 
HETATM    4  C   UNL     1      23.191  46.988  48.818  1.00  0.00     0.063 A 
HETATM    5  N   UNL     1      22.263  47.176  47.833  1.00  0.00    -0.277 N 
HETATM    6  H   UNL     1      21.815  48.047  47.570  1.00  0.00     0.189 HD
HETATM    7  N   UNL     1      21.934  46.064  47.158  1.00  0.00    -0.168 NA
HETATM    8  C   UNL     1      22.686  45.099  47.736  1.00  0.00     0.156 A 
HETATM    9  C   UNL     1      23.777  47.879  49.718  1.00  0.00     0.034 A 
HETATM   10  C   UNL     1      24.712  47.349  50.617  1.00  0.00     0.032 A 
ENDROOT
BRANCH   1  11
HETATM   11  N   UNL     1      26.003  45.581  51.581  1.00  0.00    -0.322 N 
HETATM   12  C   UNL     1      25.790  44.883  52.758  1.00  0.00     0.273 C 
HETATM   13  O   UNL     1      24.700  44.470  53.133  1.00  0.00    -0.266 OA
HETATM   14  H   UNL     1      26.965  45.786  51.357  1.00  0.00     0.169 HD
BRANCH  12  15
HETATM   15  C   UNL     1      27.009  44.650  53.533  1.00  0.00     0.104 A 
HETATM   16  N   UNL     1      27.542  45.550  54.446  1.00  0.00    -0.346 N 
HETATM   17  C   UNL     1      26.940  46.825  54.791  1.00  0.00     0.156 C 
HETATM   18  C   UNL     1      28.716  45.063  54.994  1.00  0.00     0.045 A 
HETATM   19  C   UNL     1      28.937  43.808  54.429  1.00  0.00    -0.007 A 
HETATM   20  C   UNL     1      29.606  45.612  55.932  1.00  0.00     0.030 A 
HETATM   21  C   UNL     1      27.876  43.564  53.520  1.00  0.00     0.049 A 
HETATM   22  C   UNL     1      30.076  43.071  54.809  1.00  0.00     0.014 A 
HETATM   23  C   UNL     1      30.964  43.609  55.745  1.00  0.00     0.001 A 
HETATM   24  C   UNL     1      30.731  44.864  56.297  1.00  0.00     0.002 A 
ENDBRANCH  12  15
ENDBRANCH   1  11
BRANCH   8  25
HETATM   25  C   UNL     1      22.619  43.706  47.274  1.00  0.00     0.270 C 
HETATM   26  N   UNL     1      23.642  43.344  46.440  1.00  0.00    -0.365 N 
HETATM   27  H   UNL     1      24.346  44.035  46.208  1.00  0.00     0.159 HD
HETATM   28  H   UNL     1      23.679  42.406  46.074  1.00  0.00     0.159 HD
HETATM   29  O   UNL     1      21.743  42.906  47.586  1.00  0.00    -0.266 OA
ENDBRANCH   8  25
TORSDOF 3
ENDMDL
MODEL 6
REMARK VINA RESULT:      -8.8      2.683      8.781
REMARK  3 active torsions:
REMARK  status: ('A' for Active; 'I' for Inactive)
REMARK    1  A    between atoms: C_3  and  C_4 
REMARK       I    between atoms: C_4  and  N_5 
REMARK    2  A    between atoms: N_5  and  C_6 
REMARK    3  A    between atoms: C_13  and  C_14 
REMARK       I    between atoms: C_14  and  N_15 
ROOT
HETATM    1  C   UNL     1      28.395  44.489  53.642  1.00  0.00     0.036 A 
HETATM    2  C   UNL     1      28.704  45.066  54.881  1.00  0.00     0.046 A 
HETATM    3  C   UNL     1      29.752  44.527  55.661  1.00  0.00     0.030 A 
HETATM    4  C   UNL     1      30.449  43.427  55.179  1.00  0.00     0.063 A 
HETATM    5  N   UNL     1      31.381  43.139  56.137  1.00  0.00    -0.277 N 
HETATM    6  H   UNL     1      32.067  42.393  56.120  1.00  0.00     0.189 HD
HETATM    7  N   UNL     1      31.355  43.955  57.201  1.00  0.00    -0.168 NA
HETATM    8  C   UNL     1      30.352  44.820  56.923  1.00  0.00     0.156 A 
HETATM    9  C   UNL     1      30.167  42.823  53.953  1.00  0.00     0.034 A 
HETATM   10  C   UNL     1      29.127  43.378  53.197  1.00  0.00     0.032 A 
ENDROOT
BRANCH   1  11
HETATM   11  N   UNL     1      27.369  44.949  52.788  1.00  0.00    -0.322 N 
HETATM   12  C   UNL     1      26.004  44.749  52.903  1.00  0.00     0.273 C 
HETATM   13  O   UNL     1      25.465  44.146  53.824  1.00  0.00    -0.266 OA
HETATM   14  H   UNL     1      27.667  45.534  52.023  1.00  0.00     0.169 HD
BRANCH  12  15
HETATM   15  C   UNL     1      25.227  45.348  51.819  1.00  0.00     0.104 A 
HETATM   16  N   UNL     1      24.508  44.625  50.875  1.00  0.00    -0.346 N 
HETATM   17  C   UNL     1      24.391  43.178  50.864  1.00  0.00     0.156 C 
HETATM   18  C   UNL     1      23.906  45.468  49.958  1.00  0.00     0.045 A 
HETATM   19  C   UNL     1      24.235  46.772  50.329  1.00  0.00    -0.007 A 
HETATM   20  C   UNL     1      23.106  45.205  48.833  1.00  0.00     0.030 A 
HETATM   21  C   UNL     1      25.059  46.685  51.480  1.00  0.00     0.049 A 
HETATM   22  C   UNL     1      23.751  47.850  49.561  1.00  0.00     0.014 A 
HETATM   23  C   UNL     1      22.951  47.596  48.444  1.00  0.00     0.001 A 
HETATM   24  C   UNL     1      22.635  46.290  48.086  1.00  0.00     0.002 A 
ENDBRANCH  12  15
ENDBRANCH   1  11
BRANCH   8  25
HETATM   25  C   UNL     1      29.997  45.895  57.859  1.00  0.00     0.270 C 
HETATM   26  N   UNL     1      31.056  46.386  58.574  1.00  0.00    -0.365 N 
HETATM   27  H   UNL     1      31.974  45.989  58.414  1.00  0.00     0.159 HD
HETATM   28  H   UNL     1      30.908  47.127  59.240  1.00  0.00     0.159 HD
HETATM   29  O   UNL     1      28.866  46.344  58.014  1.00  0.00    -0.266 OA
ENDBRANCH   8  25
TORSDOF 3
ENDMDL
MODEL 7
REMARK VINA RESULT:      -8.6      4.129      9.424
REMARK  3 active torsions:
REMARK  status: ('A' for Active; 'I' for Inactive)
REMARK    1  A    between atoms: C_3  and  C_4 
REMARK       I    between atoms: C_4  and  N_5 
REMARK    2  A    between atoms: N_5  and  C_6 
REMARK    3  A    between atoms: C_13  and  C_14 
REMARK       I    between atoms: C_14  and  N_15 
ROOT
HETATM    1  C   UNL     1      24.042  47.312  49.586  1.00  0.00     0.036 A 
HETATM    2  C   UNL     1      24.024  45.932  49.341  1.00  0.00     0.046 A 
HETATM    3  C   UNL     1      25.214  45.183  49.482  1.00  0.00     0.030 A 
HETATM    4  C   UNL     1      26.380  45.839  49.856  1.00  0.00     0.063 A 
HETATM    5  N   UNL     1      27.342  44.870  49.905  1.00  0.00    -0.277 N 
HETATM    6  H   UNL     1      28.320  44.988  50.144  1.00  0.00     0.189 HD
HETATM    7  N   UNL     1      26.908  43.638  49.599  1.00  0.00    -0.168 NA
HETATM    8  C   UNL     1      25.593  43.814  49.334  1.00  0.00     0.156 A 
HETATM    9  C   UNL     1      26.436  47.211  50.103  1.00  0.00     0.034 A 
HETATM   10  C   UNL     1      25.243  47.931  49.960  1.00  0.00     0.032 A 
ENDROOT
BRANCH   1  11
HETATM   11  N   UNL     1      22.911  48.151  49.473  1.00  0.00    -0.322 N 
HETATM   12  C   UNL     1      22.128  48.387  48.356  1.00  0.00     0.273 C 
HETATM   13  O   UNL     1      22.291  47.850  47.267  1.00  0.00    -0.266 OA
HETATM   14  H   UNL     1      22.612  48.599  50.325  1.00  0.00     0.169 HD
BRANCH  12  15
HETATM   15  C   UNL     1      21.044  49.341  48.588  1.00  0.00     0.104 A 
HETATM   16  N   UNL     1      19.784  48.997  49.063  1.00  0.00    -0.346 N 
HETATM   17  C   UNL     1      19.386  47.653  49.437  1.00  0.00     0.156 C 
HETATM   18  C   UNL     1      18.965  50.110  49.144  1.00  0.00     0.045 A 
HETATM   19  C   UNL     1      19.723  51.203  48.724  1.00  0.00    -0.007 A 
HETATM   20  C   UNL     1      17.627  50.256  49.545  1.00  0.00     0.030 A 
HETATM   21  C   UNL     1      21.007  50.714  48.376  1.00  0.00     0.049 A 
HETATM   22  C   UNL     1      19.134  52.483  48.705  1.00  0.00     0.014 A 
HETATM   23  C   UNL     1      17.804  52.636  49.107  1.00  0.00     0.001 A 
HETATM   24  C   UNL     1      17.062  51.536  49.520  1.00  0.00     0.002 A 
ENDBRANCH  12  15
ENDBRANCH   1  11
BRANCH   8  25
HETATM   25  C   UNL     1      24.737  42.681  48.952  1.00  0.00     0.270 C 
HETATM   26  N   UNL     1      24.996  42.182  47.704  1.00  0.00    -0.365 N 
HETATM   27  H   UNL     1      25.730  42.611  47.153  1.00  0.00     0.159 HD
HETATM   28  H   UNL     1      24.460  41.403  47.358  1.00  0.00     0.159 HD
HETATM   29  O   UNL     1      23.862  42.196  49.660  1.00  0.00    -0.266 OA
ENDBRANCH   8  25
TORSDOF 3
ENDMDL
MODEL 8
REMARK VINA RESULT:      -8.5      2.433      9.156
REMARK  3 active torsions:
REMARK  status: ('A' for Active; 'I' for Inactive)
REMARK    1  A    between atoms: C_3  and  C_4 
REMARK       I    between atoms: C_4  and  N_5 
REMARK    2  A    between atoms: N_5  and  C_6 
REMARK    3  A    between atoms: C_13  and  C_14 
REMARK       I    between atoms: C_14  and  N_15 
ROOT
HETATM    1  C   UNL     1      24.499  46.784  50.428  1.00  0.00     0.036 A 
HETATM    2  C   UNL     1      25.073  46.902  51.702  1.00  0.00     0.046 A 
HETATM    3  C   UNL     1      26.042  45.962  52.120  1.00  0.00     0.030 A 
HETATM    4  C   UNL     1      26.398  44.935  51.255  1.00  0.00     0.063 A 
HETATM    5  N   UNL     1      27.335  44.202  51.928  1.00  0.00    -0.277 N 
HETATM    6  H   UNL     1      27.817  43.373  51.599  1.00  0.00     0.189 HD
HETATM    7  N   UNL     1      27.624  44.659  53.155  1.00  0.00    -0.168 NA
HETATM    8  C   UNL     1      26.832  45.748  53.290  1.00  0.00     0.156 A 
HETATM    9  C   UNL     1      25.846  44.784  49.983  1.00  0.00     0.034 A 
HETATM   10  C   UNL     1      24.890  45.730  49.590  1.00  0.00     0.032 A 
ENDROOT
BRANCH   1  11
HETATM   11  N   UNL     1      23.524  47.668  49.915  1.00  0.00    -0.322 N 
HETATM   12  C   UNL     1      23.717  48.895  49.305  1.00  0.00     0.273 C 
HETATM   13  O   UNL     1      24.812  49.395  49.080  1.00  0.00    -0.266 OA
HETATM   14  H   UNL     1      22.571  47.341  49.960  1.00  0.00     0.169 HD
BRANCH  12  15
HETATM   15  C   UNL     1      22.474  49.561  48.915  1.00  0.00     0.104 A 
HETATM   16  N   UNL     1      21.544  49.032  48.029  1.00  0.00    -0.346 N 
HETATM   17  C   UNL     1      21.655  47.727  47.404  1.00  0.00     0.156 C 
HETATM   18  C   UNL     1      20.492  49.909  47.834  1.00  0.00     0.045 A 
HETATM   19  C   UNL     1      20.744  51.028  48.627  1.00  0.00    -0.007 A 
HETATM   20  C   UNL     1      19.343  49.824  47.029  1.00  0.00     0.030 A 
HETATM   21  C   UNL     1      21.978  50.804  49.288  1.00  0.00     0.049 A 
HETATM   22  C   UNL     1      19.823  52.096  48.626  1.00  0.00     0.014 A 
HETATM   23  C   UNL     1      18.676  52.016  47.831  1.00  0.00     0.001 A 
HETATM   24  C   UNL     1      18.442  50.894  47.044  1.00  0.00     0.002 A 
ENDBRANCH  12  15
ENDBRANCH   1  11
BRANCH   8  25
HETATM   25  C   UNL     1      26.850  46.552  54.521  1.00  0.00     0.270 C 
HETATM   26  N   UNL     1      28.064  46.577  55.153  1.00  0.00    -0.365 N 
HETATM   27  H   UNL     1      28.834  46.060  54.745  1.00  0.00     0.159 HD
HETATM   28  H   UNL     1      28.172  47.104  56.004  1.00  0.00     0.159 HD
HETATM   29  O   UNL     1      25.888  47.163  54.972  1.00  0.00    -0.266 OA
ENDBRANCH   8  25
TORSDOF 3
ENDMDL
MODEL 9
REMARK VINA RESULT:      -8.4      2.712      8.667
REMARK  3 active torsions:
REMARK  status: ('A' for Active; 'I' for Inactive)
REMARK    1  A    between atoms: C_3  and  C_4 
REMARK       I    between atoms: C_4  and  N_5 
REMARK    2  A    between atoms: N_5  and  C_6 
REMARK    3  A    between atoms: C_13  and  C_14 
REMARK       I    between atoms: C_14  and  N_15 
ROOT
HETATM    1  C   UNL     1      26.524  45.197  52.079  1.00  0.00     0.036 A 
HETATM    2  C   UNL     1      26.851  43.890  51.691  1.00  0.00     0.046 A 
HETATM    3  C   UNL     1      27.649  43.089  52.538  1.00  0.00     0.030 A 
HETATM    4  C   UNL     1      28.097  43.623  53.739  1.00  0.00     0.063 A 
HETATM    5  N   UNL     1      28.833  42.632  54.326  1.00  0.00    -0.277 N 
HETATM    6  H   UNL     1      29.314  42.670  55.217  1.00  0.00     0.189 HD
HETATM    7  N   UNL     1      28.903  41.496  53.615  1.00  0.00    -0.168 NA
HETATM    8  C   UNL     1      28.176  41.762  52.505  1.00  0.00     0.156 A 
HETATM    9  C   UNL     1      27.796  44.920  54.157  1.00  0.00     0.034 A 
HETATM   10  C   UNL     1      27.000  45.693  53.301  1.00  0.00     0.032 A 
ENDROOT
BRANCH   1  11
HETATM   11  N   UNL     1      25.735  46.078  51.307  1.00  0.00    -0.322 N 
HETATM   12  C   UNL     1      26.017  46.612  50.062  1.00  0.00     0.273 C 
HETATM   13  O   UNL     1      27.021  46.357  49.406  1.00  0.00    -0.266 OA
HETATM   14  H   UNL     1      24.834  46.311  51.694  1.00  0.00     0.169 HD
BRANCH  12  15
HETATM   15  C   UNL     1      24.983  47.518  49.561  1.00  0.00     0.104 A 
HETATM   16  N   UNL     1      25.234  48.766  49.006  1.00  0.00    -0.346 N 
HETATM   17  C   UNL     1      26.559  49.324  48.804  1.00  0.00     0.156 C 
HETATM   18  C   UNL     1      24.054  49.400  48.658  1.00  0.00     0.045 A 
HETATM   19  C   UNL     1      23.015  48.530  48.985  1.00  0.00    -0.007 A 
HETATM   20  C   UNL     1      23.805  50.660  48.089  1.00  0.00     0.030 A 
HETATM   21  C   UNL     1      23.602  47.369  49.550  1.00  0.00     0.049 A 
HETATM   22  C   UNL     1      21.684  48.921  48.737  1.00  0.00     0.014 A 
HETATM   23  C   UNL     1      21.429  50.172  48.167  1.00  0.00     0.001 A 
HETATM   24  C   UNL     1      22.476  51.029  47.850  1.00  0.00     0.002 A 
ENDBRANCH  12  15
ENDBRANCH   1  11
BRANCH   8  25
HETATM   25  C   UNL     1      28.001  40.752  51.452  1.00  0.00     0.270 C 
HETATM   26  N   UNL     1      29.028  39.851  51.368  1.00  0.00    -0.365 N 
HETATM   27  H   UNL     1      29.805  39.939  52.011  1.00  0.00     0.159 HD
HETATM   28  H   UNL     1      28.994  39.120  50.675  1.00  0.00     0.159 HD
HETATM   29  O   UNL     1      27.037  40.686  50.698  1.00  0.00    -0.266 OA
ENDBRANCH   8  25
TORSDOF 3
ENDMDL
MODEL 10
REMARK VINA RESULT:      -8.4      4.717      8.134
REMARK  3 active torsions:
REMARK  status: ('A' for Active; 'I' for Inactive)
REMARK    1  A    between atoms: C_3  and  C_4 
REMARK       I    between atoms: C_4  and  N_5 
REMARK    2  A    between atoms: N_5  and  C_6 
REMARK    3  A    between atoms: C_13  and  C_14 
REMARK       I    between atoms: C_14  and  N_15 
ROOT
HETATM    1  C   UNL     1      29.281  43.026  53.186  1.00  0.00     0.036 A 
HETATM    2  C   UNL     1      28.434  44.091  53.524  1.00  0.00     0.046 A 
HETATM    3  C   UNL     1      28.718  44.872  54.667  1.00  0.00     0.030 A 
HETATM    4  C   UNL     1      29.832  44.558  55.435  1.00  0.00     0.063 A 
HETATM    5  N   UNL     1      29.841  45.470  56.453  1.00  0.00    -0.277 N 
HETATM    6  H   UNL     1      30.514  45.542  57.207  1.00  0.00     0.189 HD
HETATM    7  N   UNL     1      28.831  46.353  56.417  1.00  0.00    -0.168 NA
HETATM    8  C   UNL     1      28.126  45.996  55.319  1.00  0.00     0.156 A 
HETATM    9  C   UNL     1      30.695  43.505  55.131  1.00  0.00     0.034 A 
HETATM   10  C   UNL     1      30.395  42.747  53.991  1.00  0.00     0.032 A 
ENDROOT
BRANCH   1  11
HETATM   11  N   UNL     1      29.088  42.186  52.067  1.00  0.00    -0.322 N 
HETATM   12  C   UNL     1      28.115  41.218  51.881  1.00  0.00     0.273 C 
HETATM   13  O   UNL     1      27.222  40.968  52.681  1.00  0.00    -0.266 OA
HETATM   14  H   UNL     1      29.711  42.342  51.290  1.00  0.00     0.169 HD
BRANCH  12  15
HETATM   15  C   UNL     1      28.226  40.510  50.606  1.00  0.00     0.104 A 
HETATM   16  N   UNL     1      27.700  40.969  49.405  1.00  0.00    -0.346 N 
HETATM   17  C   UNL     1      27.010  42.236  49.241  1.00  0.00     0.156 C 
HETATM   18  C   UNL     1      27.935  40.065  48.384  1.00  0.00     0.045 A 
HETATM   19  C   UNL     1      28.645  39.001  48.939  1.00  0.00    -0.007 A 
HETATM   20  C   UNL     1      27.586  40.083  47.023  1.00  0.00     0.030 A 
HETATM   21  C   UNL     1      28.814  39.285  50.318  1.00  0.00     0.049 A 
HETATM   22  C   UNL     1      29.024  37.921  48.117  1.00  0.00     0.014 A 
HETATM   23  C   UNL     1      28.683  37.934  46.762  1.00  0.00     0.001 A 
HETATM   24  C   UNL     1      27.973  39.001  46.224  1.00  0.00     0.002 A 
ENDBRANCH  12  15
ENDBRANCH   1  11
BRANCH   8  25
HETATM   25  C   UNL     1      26.919  46.733  54.920  1.00  0.00     0.270 C 
HETATM   26  N   UNL     1      26.983  48.080  55.155  1.00  0.00    -0.365 N 
HETATM   27  H   UNL     1      27.825  48.460  55.571  1.00  0.00     0.159 HD
HETATM   28  H   UNL     1      26.201  48.667  54.912  1.00  0.00     0.159 HD
HETATM   29  O   UNL     1      25.923  46.225  54.416  1.00  0.00    -0.266 OA
ENDBRANCH   8  25
TORSDOF 3
ENDMDL
