MODEL 1
REMARK VINA RESULT:      -9.6      0.000      0.000
REMARK  6 active torsions:
REMARK  status: ('A' for Active; 'I' for Inactive)
REMARK    1  A    between atoms: C_4  and  N_5 
REMARK       I    between atoms: N_5  and  C_6 
REMARK       I    between atoms: C_6  and  N_7 
REMARK    2  A    between atoms: N_7  and  C_8 
REMARK    3  A    between atoms: C_11  and  C_12 
REMARK    4  A    between atoms: C_12  and  C_13 
REMARK       I    between atoms: C_13  and  N_14 
REMARK    5  A    between atoms: N_14  and  C_15 
REMARK    6  A    between atoms: C_17  and  C_18 
ROOT
HETATM    1  C   UNL     1      27.359  42.741  51.740  1.00  0.00     0.174 A 
HETATM    2  S   UNL     1      27.391  41.125  51.196  1.00  0.00    -0.062 SA
HETATM    3  C   UNL     1      25.802  41.325  50.572  1.00  0.00     0.081 A 
HETATM    4  C   UNL     1      25.361  42.614  50.812  1.00  0.00     0.052 A 
HETATM    5  N   UNL     1      26.269  43.415  51.488  1.00  0.00    -0.228 NA
ENDROOT
BRANCH   4   6
HETATM    6  C   UNL     1      24.054  43.221  50.420  1.00  0.00     0.163 C 
BRANCH   6   7
HETATM    7  C   UNL     1      24.210  44.487  49.589  1.00  0.00     0.227 C 
HETATM    8  N   UNL     1      24.683  45.578  50.298  1.00  0.00    -0.327 N 
HETATM    9  H   UNL     1      24.749  45.454  51.314  1.00  0.00     0.169 HD
HETATM   10  O   UNL     1      23.969  44.462  48.384  1.00  0.00    -0.273 OA
BRANCH   8  11
HETATM   11  C   UNL     1      24.975  46.865  49.810  1.00  0.00     0.035 A 
HETATM   12  C   UNL     1      24.004  47.803  49.448  1.00  0.00     0.048 A 
HETATM   13  C   UNL     1      24.372  49.070  48.959  1.00  0.00     0.088 A 
HETATM   14  C   UNL     1      25.723  49.384  48.859  1.00  0.00     0.131 A 
HETATM   15  F   UNL     1      26.101  50.589  48.413  1.00  0.00    -0.205 F 
HETATM   16  C   UNL     1      26.702  48.463  49.211  1.00  0.00     0.045 A 
HETATM   17  C   UNL     1      26.329  47.201  49.676  1.00  0.00     0.032 A 
BRANCH  13  18
HETATM   18  C   UNL     1      23.352  50.088  48.550  1.00  0.00     0.420 C 
HETATM   19  F   UNL     1      23.403  51.234  49.288  1.00  0.00    -0.166 F 
HETATM   20  F   UNL     1      23.492  50.483  47.254  1.00  0.00    -0.166 F 
HETATM   21  F   UNL     1      22.072  49.639  48.673  1.00  0.00    -0.166 F 
ENDBRANCH  13  18
ENDBRANCH   8  11
ENDBRANCH   6   7
ENDBRANCH   4   6
BRANCH   1  22
HETATM   22  N   UNL     1      28.504  43.166  52.352  1.00  0.00    -0.287 N 
HETATM   23  C   UNL     1      28.628  43.172  53.728  1.00  0.00     0.326 C 
HETATM   24  N   UNL     1      29.760  43.882  54.107  1.00  0.00    -0.309 N 
HETATM   25  O   UNL     1      27.844  42.630  54.497  1.00  0.00    -0.247 OA
HETATM   26  H   UNL     1      30.231  44.390  53.376  1.00  0.00     0.170 HD
HETATM   27  H   UNL     1      29.294  43.358  51.761  1.00  0.00     0.172 HD
BRANCH  24  28
HETATM   28  C   UNL     1      30.224  44.129  55.417  1.00  0.00     0.036 A 
HETATM   29  C   UNL     1      31.076  43.278  56.121  1.00  0.00     0.029 A 
HETATM   30  C   UNL     1      31.474  43.592  57.425  1.00  0.00     0.002 A 
HETATM   31  C   UNL     1      31.026  44.760  58.035  1.00  0.00     0.000 A 
HETATM   32  C   UNL     1      30.182  45.621  57.340  1.00  0.00     0.002 A 
HETATM   33  C   UNL     1      29.785  45.308  56.036  1.00  0.00     0.029 A 
ENDBRANCH  24  28
ENDBRANCH   1  22
TORSDOF 6
ENDMDL
MODEL 2
REMARK VINA RESULT:      -9.5      4.761      9.390
REMARK  6 active torsions:
REMARK  status: ('A' for Active; 'I' for Inactive)
REMARK    1  A    between atoms: C_4  and  N_5 
REMARK       I    between atoms: N_5  and  C_6 
REMARK       I    between atoms: C_6  and  N_7 
REMARK    2  A    between atoms: N_7  and  C_8 
REMARK    3  A    between atoms: C_11  and  C_12 
REMARK    4  A    between atoms: C_12  and  C_13 
REMARK       I    between atoms: C_13  and  N_14 
REMARK    5  A    between atoms: N_14  and  C_15 
REMARK    6  A    between atoms: C_17  and  C_18 
ROOT
HETATM    1  C   UNL     1      24.944  44.071  50.892  1.00  0.00     0.174 A 
HETATM    2  S   UNL     1      24.004  42.763  50.332  1.00  0.00    -0.062 SA
HETATM    3  C   UNL     1      25.356  41.724  50.548  1.00  0.00     0.081 A 
HETATM    4  C   UNL     1      26.428  42.445  51.044  1.00  0.00     0.052 A 
HETATM    5  N   UNL     1      26.174  43.794  51.233  1.00  0.00    -0.228 NA
ENDROOT
BRANCH   4   6
HETATM    6  C   UNL     1      27.786  41.935  51.399  1.00  0.00     0.163 C 
BRANCH   6   7
HETATM    7  C   UNL     1      28.184  42.249  52.835  1.00  0.00     0.227 C 
HETATM    8  N   UNL     1      28.734  43.507  53.011  1.00  0.00    -0.327 N 
HETATM    9  H   UNL     1      28.931  44.031  52.152  1.00  0.00     0.169 HD
HETATM   10  O   UNL     1      27.962  41.430  53.725  1.00  0.00    -0.273 OA
BRANCH   8  11
HETATM   11  C   UNL     1      29.154  44.106  54.213  1.00  0.00     0.035 A 
HETATM   12  C   UNL     1      30.110  43.552  55.069  1.00  0.00     0.048 A 
HETATM   13  C   UNL     1      30.476  44.205  56.260  1.00  0.00     0.088 A 
HETATM   14  C   UNL     1      29.881  45.425  56.566  1.00  0.00     0.131 A 
HETATM   15  F   UNL     1      30.224  46.077  57.685  1.00  0.00    -0.205 F 
HETATM   16  C   UNL     1      28.926  45.988  55.729  1.00  0.00     0.045 A 
HETATM   17  C   UNL     1      28.555  45.325  54.559  1.00  0.00     0.032 A 
BRANCH  13  18
HETATM   18  C   UNL     1      31.486  43.628  57.203  1.00  0.00     0.420 C 
HETATM   19  F   UNL     1      31.648  44.361  58.342  1.00  0.00    -0.166 F 
HETATM   20  F   UNL     1      31.161  42.373  57.622  1.00  0.00    -0.166 F 
HETATM   21  F   UNL     1      32.731  43.535  56.657  1.00  0.00    -0.166 F 
ENDBRANCH  13  18
ENDBRANCH   8  11
ENDBRANCH   6   7
ENDBRANCH   4   6
BRANCH   1  22
HETATM   22  N   UNL     1      24.286  45.266  50.959  1.00  0.00    -0.287 N 
HETATM   23  C   UNL     1      24.100  46.051  49.837  1.00  0.00     0.326 C 
HETATM   24  N   UNL     1      23.648  47.313  50.201  1.00  0.00    -0.309 N 
HETATM   25  O   UNL     1      24.310  45.680  48.688  1.00  0.00    -0.247 OA
HETATM   26  H   UNL     1      23.656  47.520  51.186  1.00  0.00     0.170 HD
HETATM   27  H   UNL     1      23.838  45.494  51.829  1.00  0.00     0.172 HD
BRANCH  24  28
HETATM   28  C   UNL     1      23.357  48.402  49.351  1.00  0.00     0.036 A 
HETATM   29  C   UNL     1      22.068  48.772  48.965  1.00  0.00     0.029 A 
HETATM   30  C   UNL     1      21.870  49.858  48.104  1.00  0.00     0.002 A 
HETATM   31  C   UNL     1      22.957  50.583  47.625  1.00  0.00     0.000 A 
HETATM   32  C   UNL     1      24.246  50.228  48.011  1.00  0.00     0.002 A 
HETATM   33  C   UNL     1      24.445  49.145  48.871  1.00  0.00     0.029 A 
ENDBRANCH  24  28
ENDBRANCH   1  22
TORSDOF 6
ENDMDL
MODEL 3
REMARK VINA RESULT:      -9.1      2.431      3.548
REMARK  6 active torsions:
REMARK  status: ('A' for Active; 'I' for Inactive)
REMARK    1  A    between atoms: C_4  and  N_5 
REMARK       I    between atoms: N_5  and  C_6 
REMARK       I    between atoms: C_6  and  N_7 
REMARK    2  A    between atoms: N_7  and  C_8 
REMARK    3  A    between atoms: C_11  and  C_12 
REMARK    4  A    between atoms: C_12  and  C_13 
REMARK       I    between atoms: C_13  and  N_14 
REMARK    5  A    between atoms: N_14  and  C_15 
REMARK    6  A    between atoms: C_17  and  C_18 
ROOT
HETATM    1  C   UNL     1      26.866  44.446  52.045  1.00  0.00     0.174 A 
HETATM    2  S   UNL     1      25.409  43.754  52.597  1.00  0.00    -0.062 SA
HETATM    3  C   UNL     1      24.566  44.584  51.350  1.00  0.00     0.081 A 
HETATM    4  C   UNL     1      25.456  45.323  50.592  1.00  0.00     0.052 A 
HETATM    5  N   UNL     1      26.776  45.234  51.007  1.00  0.00    -0.228 NA
ENDROOT
BRANCH   4   6
HETATM    6  C   UNL     1      25.157  46.170  49.399  1.00  0.00     0.163 C 
BRANCH   6   7
HETATM    7  C   UNL     1      24.363  47.424  49.741  1.00  0.00     0.227 C 
HETATM    8  N   UNL     1      23.425  47.781  48.788  1.00  0.00    -0.327 N 
HETATM    9  H   UNL     1      23.457  47.251  47.911  1.00  0.00     0.169 HD
HETATM   10  O   UNL     1      24.551  47.994  50.814  1.00  0.00    -0.273 OA
BRANCH   8  11
HETATM   11  C   UNL     1      22.512  48.851  48.833  1.00  0.00     0.035 A 
HETATM   12  C   UNL     1      21.162  48.712  49.166  1.00  0.00     0.048 A 
HETATM   13  C   UNL     1      20.305  49.827  49.184  1.00  0.00     0.088 A 
HETATM   14  C   UNL     1      20.828  51.080  48.880  1.00  0.00     0.131 A 
HETATM   15  F   UNL     1      20.038  52.161  48.906  1.00  0.00    -0.205 F 
HETATM   16  C   UNL     1      22.167  51.236  48.542  1.00  0.00     0.045 A 
HETATM   17  C   UNL     1      23.006  50.122  48.509  1.00  0.00     0.032 A 
BRANCH  13  18
HETATM   18  C   UNL     1      18.851  49.705  49.522  1.00  0.00     0.420 C 
HETATM   19  F   UNL     1      18.025  50.193  48.553  1.00  0.00    -0.166 F 
HETATM   20  F   UNL     1      18.461  48.414  49.716  1.00  0.00    -0.166 F 
HETATM   21  F   UNL     1      18.510  50.379  50.657  1.00  0.00    -0.166 F 
ENDBRANCH  13  18
ENDBRANCH   8  11
ENDBRANCH   6   7
ENDBRANCH   4   6
BRANCH   1  22
HETATM   22  N   UNL     1      27.982  44.065  52.734  1.00  0.00    -0.287 N 
HETATM   23  C   UNL     1      28.180  44.435  54.050  1.00  0.00     0.326 C 
HETATM   24  N   UNL     1      29.484  44.155  54.439  1.00  0.00    -0.309 N 
HETATM   25  O   UNL     1      27.324  44.942  54.764  1.00  0.00    -0.247 OA
HETATM   26  H   UNL     1      30.114  43.871  53.707  1.00  0.00     0.170 HD
HETATM   27  H   UNL     1      28.593  43.404  52.286  1.00  0.00     0.172 HD
BRANCH  24  28
HETATM   28  C   UNL     1      30.079  44.399  55.696  1.00  0.00     0.036 A 
HETATM   29  C   UNL     1      29.823  45.525  56.480  1.00  0.00     0.029 A 
HETATM   30  C   UNL     1      30.472  45.696  57.708  1.00  0.00     0.002 A 
HETATM   31  C   UNL     1      31.379  44.743  58.163  1.00  0.00     0.000 A 
HETATM   32  C   UNL     1      31.636  43.613  57.393  1.00  0.00     0.002 A 
HETATM   33  C   UNL     1      30.987  43.440  56.168  1.00  0.00     0.029 A 
ENDBRANCH  24  28
ENDBRANCH   1  22
TORSDOF 6
ENDMDL
MODEL 4
REMARK VINA RESULT:      -9.0      5.111     10.253
REMARK  6 active torsions:
REMARK  status: ('A' for Active; 'I' for Inactive)
REMARK    1  A    between atoms: C_4  and  N_5 
REMARK       I    between atoms: N_5  and  C_6 
REMARK       I    between atoms: C_6  and  N_7 
REMARK    2  A    between atoms: N_7  and  C_8 
REMARK    3  A    between atoms: C_11  and  C_12 
REMARK    4  A    between atoms: C_12  and  C_13 
REMARK       I    between atoms: C_13  and  N_14 
REMARK    5  A    between atoms: N_14  and  C_15 
REMARK    6  A    between atoms: C_17  and  C_18 
ROOT
HETATM    1  C   UNL     1      24.158  47.261  49.635  1.00  0.00     0.174 A 
HETATM    2  S   UNL     1      25.633  48.107  49.511  1.00  0.00    -0.062 SA
HETATM    3  C   UNL     1      26.380  46.907  50.489  1.00  0.00     0.081 A 
HETATM    4  C   UNL     1      25.456  45.938  50.833  1.00  0.00     0.052 A 
HETATM    5  N   UNL     1      24.180  46.158  50.335  1.00  0.00    -0.228 NA
ENDROOT
BRANCH   4   6
HETATM    6  C   UNL     1      25.682  44.707  51.649  1.00  0.00     0.163 C 
BRANCH   6   7
HETATM    7  C   UNL     1      26.533  44.959  52.886  1.00  0.00     0.227 C 
HETATM    8  N   UNL     1      27.637  44.130  52.995  1.00  0.00    -0.327 N 
HETATM    9  H   UNL     1      27.687  43.364  52.316  1.00  0.00     0.169 HD
HETATM   10  O   UNL     1      26.240  45.872  53.655  1.00  0.00    -0.273 OA
BRANCH   8  11
HETATM   11  C   UNL     1      28.633  44.145  53.989  1.00  0.00     0.035 A 
HETATM   12  C   UNL     1      28.608  44.984  55.107  1.00  0.00     0.048 A 
HETATM   13  C   UNL     1      29.645  44.948  56.057  1.00  0.00     0.088 A 
HETATM   14  C   UNL     1      30.691  44.049  55.877  1.00  0.00     0.131 A 
HETATM   15  F   UNL     1      31.681  43.982  56.775  1.00  0.00    -0.205 F 
HETATM   16  C   UNL     1      30.733  43.210  54.769  1.00  0.00     0.045 A 
HETATM   17  C   UNL     1      29.710  43.265  53.821  1.00  0.00     0.032 A 
BRANCH  13  18
HETATM   18  C   UNL     1      29.652  45.846  57.256  1.00  0.00     0.420 C 
HETATM   19  F   UNL     1      28.586  46.696  57.305  1.00  0.00    -0.166 F 
HETATM   20  F   UNL     1      29.624  45.158  58.431  1.00  0.00    -0.166 F 
HETATM   21  F   UNL     1      30.753  46.648  57.313  1.00  0.00    -0.166 F 
ENDBRANCH  13  18
ENDBRANCH   8  11
ENDBRANCH   6   7
ENDBRANCH   4   6
BRANCH   1  22
HETATM   22  N   UNL     1      23.116  47.817  48.950  1.00  0.00    -0.287 N 
HETATM   23  C   UNL     1      22.469  48.947  49.411  1.00  0.00     0.326 C 
HETATM   24  N   UNL     1      21.298  49.159  48.694  1.00  0.00    -0.309 N 
HETATM   25  O   UNL     1      22.874  49.654  50.325  1.00  0.00    -0.247 OA
HETATM   26  H   UNL     1      21.021  48.421  48.068  1.00  0.00     0.170 HD
HETATM   27  H   UNL     1      22.917  47.444  48.037  1.00  0.00     0.172 HD
BRANCH  24  28
HETATM   28  C   UNL     1      20.355  50.194  48.870  1.00  0.00     0.036 A 
HETATM   29  C   UNL     1      20.401  51.420  48.204  1.00  0.00     0.029 A 
HETATM   30  C   UNL     1      19.432  52.399  48.452  1.00  0.00     0.002 A 
HETATM   31  C   UNL     1      18.409  52.161  49.365  1.00  0.00     0.000 A 
HETATM   32  C   UNL     1      18.348  50.939  50.029  1.00  0.00     0.002 A 
HETATM   33  C   UNL     1      19.314  49.960  49.781  1.00  0.00     0.029 A 
ENDBRANCH  24  28
ENDBRANCH   1  22
TORSDOF 6
ENDMDL
MODEL 5
REMARK VINA RESULT:      -9.0      4.451      9.111
REMARK  6 active torsions:
REMARK  status: ('A' for Active; 'I' for Inactive)
REMARK    1  A    between atoms: C_4  and  N_5 
REMARK       I    between atoms: N_5  and  C_6 
REMARK       I    between atoms: C_6  and  N_7 
REMARK    2  A    between atoms: N_7  and  C_8 
REMARK    3  A    between atoms: C_11  and  C_12 
REMARK    4  A    between atoms: C_12  and  C_13 
REMARK       I    between atoms: C_13  and  N_14 
REMARK    5  A    between atoms: N_14  and  C_15 
REMARK    6  A    between atoms: C_17  and  C_18 
ROOT
HETATM    1  C   UNL     1      22.740  44.674  48.751  1.00  0.00     0.174 A 
HETATM    2  S   UNL     1      22.381  43.521  47.546  1.00  0.00    -0.062 SA
HETATM    3  C   UNL     1      23.927  42.812  47.792  1.00  0.00     0.081 A 
HETATM    4  C   UNL     1      24.606  43.496  48.784  1.00  0.00     0.052 A 
HETATM    5  N   UNL     1      23.909  44.567  49.323  1.00  0.00    -0.228 NA
ENDROOT
BRANCH   4   6
HETATM    6  C   UNL     1      25.965  43.204  49.330  1.00  0.00     0.163 C 
BRANCH   6   7
HETATM    7  C   UNL     1      26.523  44.338  50.180  1.00  0.00     0.227 C 
HETATM    8  N   UNL     1      26.077  44.338  51.491  1.00  0.00    -0.327 N 
HETATM    9  H   UNL     1      25.332  43.668  51.708  1.00  0.00     0.169 HD
HETATM   10  O   UNL     1      27.338  45.121  49.697  1.00  0.00    -0.273 OA
BRANCH   8  11
HETATM   11  C   UNL     1      26.442  45.217  52.527  1.00  0.00     0.035 A 
HETATM   12  C   UNL     1      27.431  44.939  53.475  1.00  0.00     0.048 A 
HETATM   13  C   UNL     1      27.738  45.864  54.489  1.00  0.00     0.088 A 
HETATM   14  C   UNL     1      27.051  47.074  54.524  1.00  0.00     0.131 A 
HETATM   15  F   UNL     1      27.336  47.980  55.469  1.00  0.00    -0.205 F 
HETATM   16  C   UNL     1      26.062  47.365  53.593  1.00  0.00     0.045 A 
HETATM   17  C   UNL     1      25.751  46.433  52.601  1.00  0.00     0.032 A 
BRANCH  13  18
HETATM   18  C   UNL     1      28.782  45.586  55.526  1.00  0.00     0.420 C 
HETATM   19  F   UNL     1      28.308  45.647  56.804  1.00  0.00    -0.166 F 
HETATM   20  F   UNL     1      29.334  44.348  55.401  1.00  0.00    -0.166 F 
HETATM   21  F   UNL     1      29.820  46.469  55.487  1.00  0.00    -0.166 F 
ENDBRANCH  13  18
ENDBRANCH   8  11
ENDBRANCH   6   7
ENDBRANCH   4   6
BRANCH   1  22
HETATM   22  N   UNL     1      21.739  45.565  49.012  1.00  0.00    -0.287 N 
HETATM   23  C   UNL     1      21.720  46.819  48.432  1.00  0.00     0.326 C 
HETATM   24  N   UNL     1      20.766  47.620  49.046  1.00  0.00    -0.309 N 
HETATM   25  O   UNL     1      22.447  47.169  47.510  1.00  0.00    -0.247 OA
HETATM   26  H   UNL     1      20.342  47.247  49.880  1.00  0.00     0.170 HD
HETATM   27  H   UNL     1      20.955  45.231  49.544  1.00  0.00     0.172 HD
BRANCH  24  28
HETATM   28  C   UNL     1      20.452  48.966  48.754  1.00  0.00     0.036 A 
HETATM   29  C   UNL     1      19.595  49.366  47.728  1.00  0.00     0.029 A 
HETATM   30  C   UNL     1      19.353  50.725  47.497  1.00  0.00     0.002 A 
HETATM   31  C   UNL     1      19.962  51.693  48.290  1.00  0.00     0.000 A 
HETATM   32  C   UNL     1      20.811  51.305  49.321  1.00  0.00     0.002 A 
HETATM   33  C   UNL     1      21.053  49.948  49.554  1.00  0.00     0.029 A 
ENDBRANCH  24  28
ENDBRANCH   1  22
TORSDOF 6
ENDMDL
MODEL 6
REMARK VINA RESULT:      -9.0      2.027      3.007
REMARK  6 active torsions:
REMARK  status: ('A' for Active; 'I' for Inactive)
REMARK    1  A    between atoms: C_4  and  N_5 
REMARK       I    between atoms: N_5  and  C_6 
REMARK       I    between atoms: C_6  and  N_7 
REMARK    2  A    between atoms: N_7  and  C_8 
REMARK    3  A    between atoms: C_11  and  C_12 
REMARK    4  A    between atoms: C_12  and  C_13 
REMARK       I    between atoms: C_13  and  N_14 
REMARK    5  A    between atoms: N_14  and  C_15 
REMARK    6  A    between atoms: C_17  and  C_18 
ROOT
HETATM    1  C   UNL     1      24.747  43.110  50.908  1.00  0.00     0.174 A 
HETATM    2  S   UNL     1      25.783  42.585  49.660  1.00  0.00    -0.062 SA
HETATM    3  C   UNL     1      24.563  42.971  48.512  1.00  0.00     0.081 A 
HETATM    4  C   UNL     1      23.454  43.485  49.159  1.00  0.00     0.052 A 
HETATM    5  N   UNL     1      23.576  43.555  50.538  1.00  0.00    -0.228 NA
ENDROOT
BRANCH   4   6
HETATM    6  C   UNL     1      22.182  43.971  48.546  1.00  0.00     0.163 C 
BRANCH   6   7
HETATM    7  C   UNL     1      22.259  45.419  48.080  1.00  0.00     0.227 C 
HETATM    8  N   UNL     1      22.327  46.345  49.107  1.00  0.00    -0.327 N 
HETATM    9  H   UNL     1      22.188  45.973  50.052  1.00  0.00     0.169 HD
HETATM   10  O   UNL     1      22.307  45.673  46.878  1.00  0.00    -0.273 OA
BRANCH   8  11
HETATM   11  C   UNL     1      22.454  47.742  49.004  1.00  0.00     0.035 A 
HETATM   12  C   UNL     1      21.387  48.635  49.141  1.00  0.00     0.048 A 
HETATM   13  C   UNL     1      21.588  50.022  49.017  1.00  0.00     0.088 A 
HETATM   14  C   UNL     1      22.873  50.495  48.773  1.00  0.00     0.131 A 
HETATM   15  F   UNL     1      23.095  51.812  48.668  1.00  0.00    -0.205 F 
HETATM   16  C   UNL     1      23.945  49.621  48.629  1.00  0.00     0.045 A 
HETATM   17  C   UNL     1      23.733  48.246  48.735  1.00  0.00     0.032 A 
BRANCH  13  18
HETATM   18  C   UNL     1      20.461  51.001  49.145  1.00  0.00     0.420 C 
HETATM   19  F   UNL     1      20.525  52.023  48.243  1.00  0.00    -0.166 F 
HETATM   20  F   UNL     1      19.240  50.427  48.958  1.00  0.00    -0.166 F 
HETATM   21  F   UNL     1      20.414  51.602  50.366  1.00  0.00    -0.166 F 
ENDBRANCH  13  18
ENDBRANCH   8  11
ENDBRANCH   6   7
ENDBRANCH   4   6
BRANCH   1  22
HETATM   22  N   UNL     1      25.277  43.040  52.165  1.00  0.00    -0.287 N 
HETATM   23  C   UNL     1      26.427  43.728  52.502  1.00  0.00     0.326 C 
HETATM   24  N   UNL     1      26.905  43.296  53.732  1.00  0.00    -0.309 N 
HETATM   25  O   UNL     1      26.948  44.593  51.807  1.00  0.00    -0.247 OA
HETATM   26  H   UNL     1      26.455  42.483  54.123  1.00  0.00     0.170 HD
HETATM   27  H   UNL     1      24.733  42.569  52.866  1.00  0.00     0.172 HD
BRANCH  24  28
HETATM   28  C   UNL     1      28.059  43.739  54.413  1.00  0.00     0.036 A 
HETATM   29  C   UNL     1      28.169  44.978  55.047  1.00  0.00     0.029 A 
HETATM   30  C   UNL     1      29.358  45.345  55.685  1.00  0.00     0.002 A 
HETATM   31  C   UNL     1      30.447  44.477  55.698  1.00  0.00     0.000 A 
HETATM   32  C   UNL     1      30.346  43.236  55.077  1.00  0.00     0.002 A 
HETATM   33  C   UNL     1      29.157  42.868  54.440  1.00  0.00     0.029 A 
ENDBRANCH  24  28
ENDBRANCH   1  22
TORSDOF 6
ENDMDL
MODEL 7
REMARK VINA RESULT:      -8.9      3.516      8.129
REMARK  6 active torsions:
REMARK  status: ('A' for Active; 'I' for Inactive)
REMARK    1  A    between atoms: C_4  and  N_5 
REMARK       I    between atoms: N_5  and  C_6 
REMARK       I    between atoms: C_6  and  N_7 
REMARK    2  A    between atoms: N_7  and  C_8 
REMARK    3  A    between atoms: C_11  and  C_12 
REMARK    4  A    between atoms: C_12  and  C_13 
REMARK       I    between atoms: C_13  and  N_14 
REMARK    5  A    between atoms: N_14  and  C_15 
REMARK    6  A    between atoms: C_17  and  C_18 
ROOT
HETATM    1  C   UNL     1      25.221  42.818  50.431  1.00  0.00     0.174 A 
HETATM    2  S   UNL     1      24.642  41.634  49.349  1.00  0.00    -0.062 SA
HETATM    3  C   UNL     1      25.981  40.636  49.755  1.00  0.00     0.081 A 
HETATM    4  C   UNL     1      26.771  41.271  50.696  1.00  0.00     0.052 A 
HETATM    5  N   UNL     1      26.321  42.527  51.072  1.00  0.00    -0.228 NA
ENDROOT
BRANCH   4   6
HETATM    6  C   UNL     1      28.015  40.755  51.343  1.00  0.00     0.163 C 
BRANCH   6   7
HETATM    7  C   UNL     1      28.286  41.384  52.702  1.00  0.00     0.227 C 
HETATM    8  N   UNL     1      28.841  42.651  52.643  1.00  0.00    -0.327 N 
HETATM    9  H   UNL     1      29.126  42.969  51.711  1.00  0.00     0.169 HD
HETATM   10  O   UNL     1      27.967  40.786  53.728  1.00  0.00    -0.273 OA
BRANCH   8  11
HETATM   11  C   UNL     1      29.160  43.506  53.714  1.00  0.00     0.035 A 
HETATM   12  C   UNL     1      28.413  44.636  54.061  1.00  0.00     0.048 A 
HETATM   13  C   UNL     1      28.797  45.449  55.143  1.00  0.00     0.088 A 
HETATM   14  C   UNL     1      29.927  45.101  55.876  1.00  0.00     0.131 A 
HETATM   15  F   UNL     1      30.305  45.848  56.921  1.00  0.00    -0.205 F 
HETATM   16  C   UNL     1      30.683  43.984  55.543  1.00  0.00     0.045 A 
HETATM   17  C   UNL     1      30.306  43.193  54.457  1.00  0.00     0.032 A 
BRANCH  13  18
HETATM   18  C   UNL     1      28.025  46.673  55.527  1.00  0.00     0.420 C 
HETATM   19  F   UNL     1      28.000  46.899  56.873  1.00  0.00    -0.166 F 
HETATM   20  F   UNL     1      28.531  47.812  54.977  1.00  0.00    -0.166 F 
HETATM   21  F   UNL     1      26.717  46.618  55.149  1.00  0.00    -0.166 F 
ENDBRANCH  13  18
ENDBRANCH   8  11
ENDBRANCH   6   7
ENDBRANCH   4   6
BRANCH   1  22
HETATM   22  N   UNL     1      24.440  43.934  50.535  1.00  0.00    -0.287 N 
HETATM   23  C   UNL     1      24.498  44.945  49.595  1.00  0.00     0.326 C 
HETATM   24  N   UNL     1      23.820  46.068  50.052  1.00  0.00    -0.309 N 
HETATM   25  O   UNL     1      25.071  44.857  48.515  1.00  0.00    -0.247 OA
HETATM   26  H   UNL     1      23.520  46.045  51.013  1.00  0.00     0.170 HD
HETATM   27  H   UNL     1      23.737  43.936  51.253  1.00  0.00     0.172 HD
BRANCH  24  28
HETATM   28  C   UNL     1      23.664  47.308  49.395  1.00  0.00     0.036 A 
HETATM   29  C   UNL     1      22.519  47.683  48.692  1.00  0.00     0.029 A 
HETATM   30  C   UNL     1      22.454  48.927  48.054  1.00  0.00     0.002 A 
HETATM   31  C   UNL     1      23.532  49.807  48.117  1.00  0.00     0.000 A 
HETATM   32  C   UNL     1      24.675  49.446  48.823  1.00  0.00     0.002 A 
HETATM   33  C   UNL     1      24.740  48.204  49.461  1.00  0.00     0.029 A 
ENDBRANCH  24  28
ENDBRANCH   1  22
TORSDOF 6
ENDMDL
MODEL 8
REMARK VINA RESULT:      -8.7      4.170      9.055
REMARK  6 active torsions:
REMARK  status: ('A' for Active; 'I' for Inactive)
REMARK    1  A    between atoms: C_4  and  N_5 
REMARK       I    between atoms: N_5  and  C_6 
REMARK       I    between atoms: C_6  and  N_7 
REMARK    2  A    between atoms: N_7  and  C_8 
REMARK    3  A    between atoms: C_11  and  C_12 
REMARK    4  A    between atoms: C_12  and  C_13 
REMARK       I    between atoms: C_13  and  N_14 
REMARK    5  A    between atoms: N_14  and  C_15 
REMARK    6  A    between atoms: C_17  and  C_18 
ROOT
HETATM    1  C   UNL     1      22.027  44.553  48.971  1.00  0.00     0.174 A 
HETATM    2  S   UNL     1      22.332  43.818  47.462  1.00  0.00    -0.062 SA
HETATM    3  C   UNL     1      23.525  42.830  48.207  1.00  0.00     0.081 A 
HETATM    4  C   UNL     1      23.600  43.120  49.557  1.00  0.00     0.052 A 
HETATM    5  N   UNL     1      22.733  44.116  49.979  1.00  0.00    -0.228 NA
ENDROOT
BRANCH   4   6
HETATM    6  C   UNL     1      24.481  42.483  50.582  1.00  0.00     0.163 C 
BRANCH   6   7
HETATM    7  C   UNL     1      25.541  43.430  51.129  1.00  0.00     0.227 C 
HETATM    8  N   UNL     1      25.798  43.275  52.480  1.00  0.00    -0.327 N 
HETATM    9  H   UNL     1      25.167  42.644  52.985  1.00  0.00     0.169 HD
HETATM   10  O   UNL     1      26.118  44.206  50.371  1.00  0.00    -0.273 OA
BRANCH   8  11
HETATM   11  C   UNL     1      26.747  43.959  53.263  1.00  0.00     0.035 A 
HETATM   12  C   UNL     1      26.572  45.262  53.740  1.00  0.00     0.048 A 
HETATM   13  C   UNL     1      27.568  45.886  54.512  1.00  0.00     0.088 A 
HETATM   14  C   UNL     1      28.729  45.178  54.810  1.00  0.00     0.131 A 
HETATM   15  F   UNL     1      29.686  45.743  55.558  1.00  0.00    -0.205 F 
HETATM   16  C   UNL     1      28.921  43.884  54.340  1.00  0.00     0.045 A 
HETATM   17  C   UNL     1      27.935  43.280  53.559  1.00  0.00     0.032 A 
BRANCH  13  18
HETATM   18  C   UNL     1      27.414  47.285  55.024  1.00  0.00     0.420 C 
HETATM   19  F   UNL     1      27.504  47.379  56.382  1.00  0.00    -0.166 F 
HETATM   20  F   UNL     1      28.362  48.133  54.537  1.00  0.00    -0.166 F 
HETATM   21  F   UNL     1      26.211  47.839  54.705  1.00  0.00    -0.166 F 
ENDBRANCH  13  18
ENDBRANCH   8  11
ENDBRANCH   6   7
ENDBRANCH   4   6
BRANCH   1  22
HETATM   22  N   UNL     1      21.042  45.498  48.962  1.00  0.00    -0.287 N 
HETATM   23  C   UNL     1      21.321  46.829  48.716  1.00  0.00     0.326 C 
HETATM   24  N   UNL     1      20.217  47.617  49.019  1.00  0.00    -0.309 N 
HETATM   25  O   UNL     1      22.393  47.247  48.296  1.00  0.00    -0.247 OA
HETATM   26  H   UNL     1      19.456  47.153  49.487  1.00  0.00     0.170 HD
HETATM   27  H   UNL     1      20.093  45.171  49.021  1.00  0.00     0.172 HD
BRANCH  24  28
HETATM   28  C   UNL     1      20.107  49.021  48.919  1.00  0.00     0.036 A 
HETATM   29  C   UNL     1      20.232  49.896  49.998  1.00  0.00     0.029 A 
HETATM   30  C   UNL     1      20.091  51.276  49.813  1.00  0.00     0.002 A 
HETATM   31  C   UNL     1      19.826  51.792  48.548  1.00  0.00     0.000 A 
HETATM   32  C   UNL     1      19.708  50.929  47.462  1.00  0.00     0.002 A 
HETATM   33  C   UNL     1      19.850  49.551  47.646  1.00  0.00     0.029 A 
ENDBRANCH  24  28
ENDBRANCH   1  22
TORSDOF 6
ENDMDL
MODEL 9
REMARK VINA RESULT:      -8.7      4.963      9.795
REMARK  6 active torsions:
REMARK  status: ('A' for Active; 'I' for Inactive)
REMARK    1  A    between atoms: C_4  and  N_5 
REMARK       I    between atoms: N_5  and  C_6 
REMARK       I    between atoms: C_6  and  N_7 
REMARK    2  A    between atoms: N_7  and  C_8 
REMARK    3  A    between atoms: C_11  and  C_12 
REMARK    4  A    between atoms: C_12  and  C_13 
REMARK       I    between atoms: C_13  and  N_14 
REMARK    5  A    between atoms: N_14  and  C_15 
REMARK    6  A    between atoms: C_17  and  C_18 
ROOT
HETATM    1  C   UNL     1      23.246  46.513  48.901  1.00  0.00     0.174 A 
HETATM    2  S   UNL     1      22.397  45.907  47.552  1.00  0.00    -0.062 SA
HETATM    3  C   UNL     1      23.277  44.436  47.684  1.00  0.00     0.081 A 
HETATM    4  C   UNL     1      24.149  44.505  48.755  1.00  0.00     0.052 A 
HETATM    5  N   UNL     1      24.120  45.708  49.443  1.00  0.00    -0.228 NA
ENDROOT
BRANCH   4   6
HETATM    6  C   UNL     1      25.082  43.445  49.244  1.00  0.00     0.163 C 
BRANCH   6   7
HETATM    7  C   UNL     1      26.214  43.996  50.101  1.00  0.00     0.227 C 
HETATM    8  N   UNL     1      25.991  43.904  51.464  1.00  0.00    -0.327 N 
HETATM    9  H   UNL     1      25.052  43.603  51.743  1.00  0.00     0.169 HD
HETATM   10  O   UNL     1      27.234  44.423  49.566  1.00  0.00    -0.273 OA
BRANCH   8  11
HETATM   11  C   UNL     1      26.858  44.277  52.508  1.00  0.00     0.035 A 
HETATM   12  C   UNL     1      28.000  43.556  52.871  1.00  0.00     0.048 A 
HETATM   13  C   UNL     1      28.817  43.987  53.932  1.00  0.00     0.088 A 
HETATM   14  C   UNL     1      28.481  45.157  54.606  1.00  0.00     0.131 A 
HETATM   15  F   UNL     1      29.251  45.599  55.608  1.00  0.00    -0.205 F 
HETATM   16  C   UNL     1      27.348  45.884  54.261  1.00  0.00     0.045 A 
HETATM   17  C   UNL     1      26.532  45.439  53.219  1.00  0.00     0.032 A 
BRANCH  13  18
HETATM   18  C   UNL     1      30.036  43.226  54.352  1.00  0.00     0.420 C 
HETATM   19  F   UNL     1      31.038  44.024  54.823  1.00  0.00    -0.166 F 
HETATM   20  F   UNL     1      29.784  42.332  55.348  1.00  0.00    -0.166 F 
HETATM   21  F   UNL     1      30.595  42.512  53.335  1.00  0.00    -0.166 F 
ENDBRANCH  13  18
ENDBRANCH   8  11
ENDBRANCH   6   7
ENDBRANCH   4   6
BRANCH   1  22
HETATM   22  N   UNL     1      22.885  47.771  49.291  1.00  0.00    -0.287 N 
HETATM   23  C   UNL     1      21.576  48.205  49.208  1.00  0.00     0.326 C 
HETATM   24  N   UNL     1      21.509  49.578  49.410  1.00  0.00    -0.309 N 
HETATM   25  O   UNL     1      20.616  47.477  48.984  1.00  0.00    -0.247 OA
HETATM   26  H   UNL     1      22.390  50.065  49.442  1.00  0.00     0.170 HD
HETATM   27  H   UNL     1      23.585  48.325  49.754  1.00  0.00     0.172 HD
BRANCH  24  28
HETATM   28  C   UNL     1      20.360  50.397  49.388  1.00  0.00     0.036 A 
HETATM   29  C   UNL     1      19.203  50.146  50.126  1.00  0.00     0.029 A 
HETATM   30  C   UNL     1      18.101  51.003  50.032  1.00  0.00     0.002 A 
HETATM   31  C   UNL     1      18.147  52.119  49.201  1.00  0.00     0.000 A 
HETATM   32  C   UNL     1      19.299  52.385  48.467  1.00  0.00     0.002 A 
HETATM   33  C   UNL     1      20.401  51.530  48.562  1.00  0.00     0.029 A 
ENDBRANCH  24  28
ENDBRANCH   1  22
TORSDOF 6
ENDMDL
MODEL 10
REMARK VINA RESULT:      -8.5      2.284      3.583
REMARK  6 active torsions:
REMARK  status: ('A' for Active; 'I' for Inactive)
REMARK    1  A    between atoms: C_4  and  N_5 
REMARK       I    between atoms: N_5  and  C_6 
REMARK       I    between atoms: C_6  and  N_7 
REMARK    2  A    between atoms: N_7  and  C_8 
REMARK    3  A    between atoms: C_11  and  C_12 
REMARK    4  A    between atoms: C_12  and  C_13 
REMARK       I    between atoms: C_13  and  N_14 
REMARK    5  A    between atoms: N_14  and  C_15 
REMARK    6  A    between atoms: C_17  and  C_18 
ROOT
HETATM    1  C   UNL     1      24.365  43.000  50.496  1.00  0.00     0.174 A 
HETATM    2  S   UNL     1      25.424  42.341  49.333  1.00  0.00    -0.062 SA
HETATM    3  C   UNL     1      24.265  42.687  48.111  1.00  0.00     0.081 A 
HETATM    4  C   UNL     1      23.155  43.291  48.674  1.00  0.00     0.052 A 
HETATM    5  N   UNL     1      23.228  43.462  50.048  1.00  0.00    -0.228 NA
ENDROOT
BRANCH   4   6
HETATM    6  C   UNL     1      21.928  43.779  47.976  1.00  0.00     0.163 C 
BRANCH   6   7
HETATM    7  C   UNL     1      21.969  45.269  47.668  1.00  0.00     0.227 C 
HETATM    8  N   UNL     1      21.426  46.070  48.658  1.00  0.00    -0.327 N 
HETATM    9  H   UNL     1      20.946  45.576  49.417  1.00  0.00     0.169 HD
HETATM   10  O   UNL     1      22.500  45.667  46.633  1.00  0.00    -0.273 OA
BRANCH   8  11
HETATM   11  C   UNL     1      21.359  47.475  48.693  1.00  0.00     0.035 A 
HETATM   12  C   UNL     1      22.479  48.311  48.724  1.00  0.00     0.048 A 
HETATM   13  C   UNL     1      22.334  49.709  48.765  1.00  0.00     0.088 A 
HETATM   14  C   UNL     1      21.053  50.252  48.756  1.00  0.00     0.131 A 
HETATM   15  F   UNL     1      20.887  51.581  48.778  1.00  0.00    -0.205 F 
HETATM   16  C   UNL     1      19.928  49.436  48.730  1.00  0.00     0.045 A 
HETATM   17  C   UNL     1      20.081  48.049  48.708  1.00  0.00     0.032 A 
BRANCH  13  18
HETATM   18  C   UNL     1      23.517  50.627  48.814  1.00  0.00     0.420 C 
HETATM   19  F   UNL     1      23.442  51.556  49.811  1.00  0.00    -0.166 F 
HETATM   20  F   UNL     1      24.690  49.967  49.019  1.00  0.00    -0.166 F 
HETATM   21  F   UNL     1      23.681  51.345  47.667  1.00  0.00    -0.166 F 
ENDBRANCH  13  18
ENDBRANCH   8  11
ENDBRANCH   6   7
ENDBRANCH   4   6
BRANCH   1  22
HETATM   22  N   UNL     1      24.844  43.006  51.775  1.00  0.00    -0.287 N 
HETATM   23  C   UNL     1      26.055  43.594  52.089  1.00  0.00     0.326 C 
HETATM   24  N   UNL     1      26.441  43.244  53.376  1.00  0.00    -0.309 N 
HETATM   25  O   UNL     1      26.693  44.315  51.332  1.00  0.00    -0.247 OA
HETATM   26  H   UNL     1      25.889  42.532  53.828  1.00  0.00     0.170 HD
HETATM   27  H   UNL     1      24.228  42.675  52.497  1.00  0.00     0.172 HD
BRANCH  24  28
HETATM   28  C   UNL     1      27.617  43.625  54.057  1.00  0.00     0.036 A 
HETATM   29  C   UNL     1      27.772  44.832  54.741  1.00  0.00     0.029 A 
HETATM   30  C   UNL     1      28.980  45.139  55.376  1.00  0.00     0.002 A 
HETATM   31  C   UNL     1      30.043  44.241  55.335  1.00  0.00     0.000 A 
HETATM   32  C   UNL     1      29.898  43.031  54.663  1.00  0.00     0.002 A 
HETATM   33  C   UNL     1      28.691  42.723  54.030  1.00  0.00     0.029 A 
ENDBRANCH  24  28
ENDBRANCH   1  22
TORSDOF 6
ENDMDL
