MODEL 1
REMARK VINA RESULT:     -10.3      0.000      0.000
REMARK  5 active torsions:
REMARK  status: ('A' for Active; 'I' for Inactive)
REMARK    1  A    between atoms: C_2  and  C_3 
REMARK    2  A    between atoms: C_6  and  C_7 
REMARK    3  A    between atoms: C_7  and  C_8 
REMARK       I    between atoms: C_8  and  N_9 
REMARK    4  A    between atoms: N_9  and  C_10 
REMARK    5  A    between atoms: C_12  and  C_13 
ROOT
HETATM    1  C   UNL     1      25.828  46.792  52.185  1.00  0.00     0.226 C 
HETATM    2  N   UNL     1      26.192  46.818  50.844  1.00  0.00    -0.327 N 
HETATM    3  O   UNL     1      25.354  47.726  52.824  1.00  0.00    -0.273 OA
HETATM    4  H   UNL     1      26.653  45.992  50.486  1.00  0.00     0.169 HD
ENDROOT
BRANCH   1   5
HETATM    5  C   UNL     1      26.045  45.423  52.818  1.00  0.00     0.144 C 
BRANCH   5   6
HETATM    6  C   UNL     1      27.161  45.390  53.813  1.00  0.00    -0.021 A 
HETATM    7  C   UNL     1      28.295  44.510  53.838  1.00  0.00    -0.001 A 
HETATM    8  C   UNL     1      29.017  44.785  55.003  1.00  0.00     0.049 A 
HETATM    9  C   UNL     1      28.768  43.491  52.988  1.00  0.00     0.014 A 
HETATM   10  C   UNL     1      30.179  44.082  55.383  1.00  0.00    -0.031 A 
HETATM   11  N   UNL     1      28.370  45.823  55.635  1.00  0.00    -0.364 N 
HETATM   12  C   UNL     1      30.620  43.083  54.497  1.00  0.00     0.009 A 
HETATM   13  C   UNL     1      29.932  42.793  53.322  1.00  0.00     0.002 A 
HETATM   14  C   UNL     1      27.254  46.187  54.937  1.00  0.00     0.097 A 
HETATM   15  H   UNL     1      28.679  46.245  56.499  1.00  0.00     0.165 HD
BRANCH  10  16
HETATM   16  C   UNL     1      30.947  44.358  56.652  1.00  0.00     0.036 C 
HETATM   17  C   UNL     1      31.711  43.135  57.134  1.00  0.00     0.010 C 
ENDBRANCH  10  16
ENDBRANCH   5   6
ENDBRANCH   1   5
BRANCH   2  18
HETATM   18  C   UNL     1      26.035  47.876  49.927  1.00  0.00     0.035 A 
HETATM   19  C   UNL     1      24.720  48.232  49.584  1.00  0.00     0.042 A 
HETATM   20  C   UNL     1      24.459  49.287  48.695  1.00  0.00    -0.021 A 
HETATM   21  C   UNL     1      25.537  49.994  48.153  1.00  0.00     0.012 A 
HETATM   22  C   UNL     1      26.847  49.647  48.489  1.00  0.00     0.003 A 
HETATM   23  C   UNL     1      27.094  48.591  49.369  1.00  0.00     0.029 A 
BRANCH  20  24
HETATM   24  C   UNL     1      23.088  49.617  48.343  1.00  0.00     0.010 A 
HETATM   25  C   UNL     1      22.040  48.805  47.848  1.00  0.00     0.152 A 
HETATM   26  N   UNL     1      20.904  49.483  47.663  1.00  0.00    -0.187 NA
HETATM   27  N   UNL     1      21.220  50.734  48.035  1.00  0.00    -0.289 N 
HETATM   28  H   UNL     1      20.502  51.448  47.981  1.00  0.00     0.188 HD
HETATM   29  C   UNL     1      22.514  50.865  48.452  1.00  0.00     0.123 A 
ENDBRANCH  20  24
ENDBRANCH   2  18
TORSDOF 5
ENDMDL
MODEL 2
REMARK VINA RESULT:      -9.6      4.257      6.432
REMARK  5 active torsions:
REMARK  status: ('A' for Active; 'I' for Inactive)
REMARK    1  A    between atoms: C_2  and  C_3 
REMARK    2  A    between atoms: C_6  and  C_7 
REMARK    3  A    between atoms: C_7  and  C_8 
REMARK       I    between atoms: C_8  and  N_9 
REMARK    4  A    between atoms: N_9  and  C_10 
REMARK    5  A    between atoms: C_12  and  C_13 
ROOT
HETATM    1  C   UNL     1      25.570  45.129  53.076  1.00  0.00     0.226 C 
HETATM    2  N   UNL     1      25.881  44.864  51.748  1.00  0.00    -0.327 N 
HETATM    3  O   UNL     1      24.868  44.436  53.807  1.00  0.00    -0.273 OA
HETATM    4  H   UNL     1      26.398  45.580  51.255  1.00  0.00     0.169 HD
ENDROOT
BRANCH   1   5
HETATM    5  C   UNL     1      26.239  46.400  53.586  1.00  0.00     0.144 C 
BRANCH   5   6
HETATM    6  C   UNL     1      27.382  46.147  54.516  1.00  0.00    -0.021 A 
HETATM    7  C   UNL     1      28.363  45.101  54.445  1.00  0.00    -0.001 A 
HETATM    8  C   UNL     1      29.176  45.208  55.578  1.00  0.00     0.049 A 
HETATM    9  C   UNL     1      28.627  44.061  53.533  1.00  0.00     0.014 A 
HETATM   10  C   UNL     1      30.229  44.316  55.866  1.00  0.00    -0.031 A 
HETATM   11  N   UNL     1      28.733  46.304  56.283  1.00  0.00    -0.364 N 
HETATM   12  C   UNL     1      30.462  43.301  54.921  1.00  0.00     0.009 A 
HETATM   13  C   UNL     1      29.681  43.175  53.776  1.00  0.00     0.002 A 
HETATM   14  C   UNL     1      27.655  46.869  55.662  1.00  0.00     0.097 A 
HETATM   15  H   UNL     1      29.146  46.633  57.143  1.00  0.00     0.165 HD
BRANCH  10  16
HETATM   16  C   UNL     1      31.092  44.410  57.100  1.00  0.00     0.036 C 
HETATM   17  C   UNL     1      32.081  43.259  57.195  1.00  0.00     0.010 C 
ENDBRANCH  10  16
ENDBRANCH   5   6
ENDBRANCH   1   5
BRANCH   2  18
HETATM   18  C   UNL     1      25.525  43.732  50.988  1.00  0.00     0.035 A 
HETATM   19  C   UNL     1      26.434  42.662  50.975  1.00  0.00     0.042 A 
HETATM   20  C   UNL     1      26.161  41.482  50.264  1.00  0.00    -0.021 A 
HETATM   21  C   UNL     1      24.954  41.381  49.565  1.00  0.00     0.012 A 
HETATM   22  C   UNL     1      24.045  42.440  49.573  1.00  0.00     0.003 A 
HETATM   23  C   UNL     1      24.331  43.611  50.278  1.00  0.00     0.029 A 
BRANCH  20  24
HETATM   24  C   UNL     1      27.131  40.400  50.252  1.00  0.00     0.010 A 
HETATM   25  C   UNL     1      27.152  39.185  49.527  1.00  0.00     0.152 A 
HETATM   26  N   UNL     1      28.239  38.451  49.778  1.00  0.00    -0.187 NA
HETATM   27  N   UNL     1      28.918  39.191  50.669  1.00  0.00    -0.289 N 
HETATM   28  H   UNL     1      29.801  38.833  51.018  1.00  0.00     0.188 HD
HETATM   29  C   UNL     1      28.299  40.367  50.983  1.00  0.00     0.123 A 
ENDBRANCH  20  24
ENDBRANCH   2  18
TORSDOF 5
ENDMDL
MODEL 3
REMARK VINA RESULT:      -9.6      1.540      2.218
REMARK  5 active torsions:
REMARK  status: ('A' for Active; 'I' for Inactive)
REMARK    1  A    between atoms: C_2  and  C_3 
REMARK    2  A    between atoms: C_6  and  C_7 
REMARK    3  A    between atoms: C_7  and  C_8 
REMARK       I    between atoms: C_8  and  N_9 
REMARK    4  A    between atoms: N_9  and  C_10 
REMARK    5  A    between atoms: C_12  and  C_13 
ROOT
HETATM    1  C   UNL     1      26.617  45.022  50.638  1.00  0.00     0.226 C 
HETATM    2  N   UNL     1      25.752  46.108  50.697  1.00  0.00    -0.327 N 
HETATM    3  O   UNL     1      27.574  44.900  49.879  1.00  0.00    -0.273 OA
HETATM    4  H   UNL     1      24.956  46.017  51.316  1.00  0.00     0.169 HD
ENDROOT
BRANCH   1   5
HETATM    5  C   UNL     1      26.282  43.955  51.673  1.00  0.00     0.144 C 
BRANCH   5   6
HETATM    6  C   UNL     1      27.436  43.581  52.548  1.00  0.00    -0.021 A 
HETATM    7  C   UNL     1      27.978  44.315  53.656  1.00  0.00    -0.001 A 
HETATM    8  C   UNL     1      29.107  43.625  54.107  1.00  0.00     0.049 A 
HETATM    9  C   UNL     1      27.624  45.512  54.310  1.00  0.00     0.014 A 
HETATM   10  C   UNL     1      29.924  44.076  55.165  1.00  0.00    -0.031 A 
HETATM   11  N   UNL     1      29.218  42.494  53.331  1.00  0.00    -0.364 N 
HETATM   12  C   UNL     1      29.524  45.268  55.794  1.00  0.00     0.009 A 
HETATM   13  C   UNL     1      28.397  45.972  55.380  1.00  0.00     0.002 A 
HETATM   14  C   UNL     1      28.229  42.461  52.389  1.00  0.00     0.097 A 
HETATM   15  H   UNL     1      29.938  41.794  53.442  1.00  0.00     0.165 HD
BRANCH  10  16
HETATM   16  C   UNL     1      31.158  43.350  55.637  1.00  0.00     0.036 C 
HETATM   17  C   UNL     1      31.435  43.595  57.112  1.00  0.00     0.010 C 
ENDBRANCH  10  16
ENDBRANCH   5   6
ENDBRANCH   1   5
BRANCH   2  18
HETATM   18  C   UNL     1      25.824  47.310  49.965  1.00  0.00     0.035 A 
HETATM   19  C   UNL     1      24.607  47.924  49.628  1.00  0.00     0.042 A 
HETATM   20  C   UNL     1      24.574  49.135  48.919  1.00  0.00    -0.021 A 
HETATM   21  C   UNL     1      25.783  49.736  48.554  1.00  0.00     0.012 A 
HETATM   22  C   UNL     1      26.997  49.132  48.885  1.00  0.00     0.003 A 
HETATM   23  C   UNL     1      27.017  47.923  49.585  1.00  0.00     0.029 A 
BRANCH  20  24
HETATM   24  C   UNL     1      23.298  49.735  48.566  1.00  0.00     0.010 A 
HETATM   25  C   UNL     1      22.796  51.039  48.792  1.00  0.00     0.152 A 
HETATM   26  N   UNL     1      21.569  51.215  48.293  1.00  0.00    -0.187 NA
HETATM   27  N   UNL     1      21.278  50.023  47.748  1.00  0.00    -0.289 N 
HETATM   28  H   UNL     1      20.377  49.907  47.297  1.00  0.00     0.188 HD
HETATM   29  C   UNL     1      22.280  49.105  47.882  1.00  0.00     0.123 A 
ENDBRANCH  20  24
ENDBRANCH   2  18
TORSDOF 5
ENDMDL
MODEL 4
REMARK VINA RESULT:      -9.1      1.636      2.254
REMARK  5 active torsions:
REMARK  status: ('A' for Active; 'I' for Inactive)
REMARK    1  A    between atoms: C_2  and  C_3 
REMARK    2  A    between atoms: C_6  and  C_7 
REMARK    3  A    between atoms: C_7  and  C_8 
REMARK       I    between atoms: C_8  and  N_9 
REMARK    4  A    between atoms: N_9  and  C_10 
REMARK    5  A    between atoms: C_12  and  C_13 
ROOT
HETATM    1  C   UNL     1      25.157  47.128  50.994  1.00  0.00     0.226 C 
HETATM    2  N   UNL     1      23.973  47.415  50.326  1.00  0.00    -0.327 N 
HETATM    3  O   UNL     1      26.192  47.787  50.948  1.00  0.00    -0.273 OA
HETATM    4  H   UNL     1      23.237  46.724  50.396  1.00  0.00     0.169 HD
ENDROOT
BRANCH   1   5
HETATM    5  C   UNL     1      25.045  45.882  51.864  1.00  0.00     0.144 C 
BRANCH   5   6
HETATM    6  C   UNL     1      26.147  45.746  52.866  1.00  0.00    -0.021 A 
HETATM    7  C   UNL     1      27.260  44.839  52.837  1.00  0.00    -0.001 A 
HETATM    8  C   UNL     1      27.973  45.008  54.027  1.00  0.00     0.049 A 
HETATM    9  C   UNL     1      27.719  43.876  51.917  1.00  0.00     0.014 A 
HETATM   10  C   UNL     1      29.113  44.250  54.366  1.00  0.00    -0.031 A 
HETATM   11  N   UNL     1      27.343  46.011  54.729  1.00  0.00    -0.364 N 
HETATM   12  C   UNL     1      29.541  43.310  53.412  1.00  0.00     0.009 A 
HETATM   13  C   UNL     1      28.862  43.126  52.211  1.00  0.00     0.002 A 
HETATM   14  C   UNL     1      26.245  46.455  54.048  1.00  0.00     0.097 A 
HETATM   15  H   UNL     1      27.650  46.360  55.625  1.00  0.00     0.165 HD
BRANCH  10  16
HETATM   16  C   UNL     1      29.870  44.410  55.660  1.00  0.00     0.036 C 
HETATM   17  C   UNL     1      30.872  43.287  55.878  1.00  0.00     0.010 C 
ENDBRANCH  10  16
ENDBRANCH   5   6
ENDBRANCH   1   5
BRANCH   2  18
HETATM   18  C   UNL     1      23.685  48.537  49.523  1.00  0.00     0.035 A 
HETATM   19  C   UNL     1      22.385  49.062  49.606  1.00  0.00     0.042 A 
HETATM   20  C   UNL     1      22.006  50.191  48.861  1.00  0.00    -0.021 A 
HETATM   21  C   UNL     1      22.953  50.799  48.030  1.00  0.00     0.012 A 
HETATM   22  C   UNL     1      24.247  50.283  47.943  1.00  0.00     0.003 A 
HETATM   23  C   UNL     1      24.610  49.156  48.683  1.00  0.00     0.029 A 
BRANCH  20  24
HETATM   24  C   UNL     1      20.647  50.698  48.951  1.00  0.00     0.010 A 
HETATM   25  C   UNL     1      20.091  51.930  48.533  1.00  0.00     0.152 A 
HETATM   26  N   UNL     1      18.781  52.016  48.777  1.00  0.00    -0.187 NA
HETATM   27  N   UNL     1      18.492  50.840  49.358  1.00  0.00    -0.289 N 
HETATM   28  H   UNL     1      17.534  50.666  49.641  1.00  0.00     0.188 HD
HETATM   29  C   UNL     1      19.574  50.016  49.482  1.00  0.00     0.123 A 
ENDBRANCH  20  24
ENDBRANCH   2  18
TORSDOF 5
ENDMDL
MODEL 5
REMARK VINA RESULT:      -9.0      1.972      2.692
REMARK  5 active torsions:
REMARK  status: ('A' for Active; 'I' for Inactive)
REMARK    1  A    between atoms: C_2  and  C_3 
REMARK    2  A    between atoms: C_6  and  C_7 
REMARK    3  A    between atoms: C_7  and  C_8 
REMARK       I    between atoms: C_8  and  N_9 
REMARK    4  A    between atoms: N_9  and  C_10 
REMARK    5  A    between atoms: C_12  and  C_13 
ROOT
HETATM    1  C   UNL     1      25.587  44.184  51.571  1.00  0.00     0.226 C 
HETATM    2  N   UNL     1      25.531  44.992  50.442  1.00  0.00    -0.327 N 
HETATM    3  O   UNL     1      24.625  43.774  52.215  1.00  0.00    -0.273 OA
HETATM    4  H   UNL     1      26.417  45.319  50.078  1.00  0.00     0.169 HD
ENDROOT
BRANCH   1   5
HETATM    5  C   UNL     1      27.014  43.800  51.941  1.00  0.00     0.144 C 
BRANCH   5   6
HETATM    6  C   UNL     1      27.543  44.526  53.135  1.00  0.00    -0.021 A 
HETATM    7  C   UNL     1      28.697  44.202  53.926  1.00  0.00    -0.001 A 
HETATM    8  C   UNL     1      28.745  45.105  54.993  1.00  0.00     0.049 A 
HETATM    9  C   UNL     1      29.698  43.213  53.846  1.00  0.00     0.014 A 
HETATM   10  C   UNL     1      29.727  45.063  56.004  1.00  0.00    -0.031 A 
HETATM   11  N   UNL     1      27.687  45.970  54.828  1.00  0.00    -0.364 N 
HETATM   12  C   UNL     1      30.711  44.068  55.874  1.00  0.00     0.009 A 
HETATM   13  C   UNL     1      30.701  43.162  54.818  1.00  0.00     0.002 A 
HETATM   14  C   UNL     1      26.956  45.629  53.725  1.00  0.00     0.097 A 
HETATM   15  H   UNL     1      27.481  46.742  55.446  1.00  0.00     0.165 HD
BRANCH  10  16
HETATM   16  C   UNL     1      29.767  46.018  57.171  1.00  0.00     0.036 C 
HETATM   17  C   UNL     1      30.359  45.374  58.415  1.00  0.00     0.010 C 
ENDBRANCH  10  16
ENDBRANCH   5   6
ENDBRANCH   1   5
BRANCH   2  18
HETATM   18  C   UNL     1      24.384  45.450  49.762  1.00  0.00     0.035 A 
HETATM   19  C   UNL     1      24.193  46.839  49.701  1.00  0.00     0.042 A 
HETATM   20  C   UNL     1      23.092  47.394  49.028  1.00  0.00    -0.021 A 
HETATM   21  C   UNL     1      22.180  46.535  48.406  1.00  0.00     0.012 A 
HETATM   22  C   UNL     1      22.364  45.153  48.462  1.00  0.00     0.003 A 
HETATM   23  C   UNL     1      23.459  44.613  49.140  1.00  0.00     0.029 A 
BRANCH  20  24
HETATM   24  C   UNL     1      22.909  48.835  49.001  1.00  0.00     0.010 A 
HETATM   25  C   UNL     1      23.836  49.880  48.775  1.00  0.00     0.152 A 
HETATM   26  N   UNL     1      23.271  51.090  48.811  1.00  0.00    -0.187 NA
HETATM   27  N   UNL     1      21.980  50.826  49.065  1.00  0.00    -0.289 N 
HETATM   28  H   UNL     1      21.335  51.605  49.140  1.00  0.00     0.188 HD
HETATM   29  C   UNL     1      21.711  49.492  49.184  1.00  0.00     0.123 A 
ENDBRANCH  20  24
ENDBRANCH   2  18
TORSDOF 5
ENDMDL
MODEL 6
REMARK VINA RESULT:      -8.8      2.520      3.183
REMARK  5 active torsions:
REMARK  status: ('A' for Active; 'I' for Inactive)
REMARK    1  A    between atoms: C_2  and  C_3 
REMARK    2  A    between atoms: C_6  and  C_7 
REMARK    3  A    between atoms: C_7  and  C_8 
REMARK       I    between atoms: C_8  and  N_9 
REMARK    4  A    between atoms: N_9  and  C_10 
REMARK    5  A    between atoms: C_12  and  C_13 
ROOT
HETATM    1  C   UNL     1      25.328  44.638  51.847  1.00  0.00     0.226 C 
HETATM    2  N   UNL     1      25.542  45.503  50.782  1.00  0.00    -0.327 N 
HETATM    3  O   UNL     1      24.248  44.404  52.384  1.00  0.00    -0.273 OA
HETATM    4  H   UNL     1      26.505  45.655  50.511  1.00  0.00     0.169 HD
ENDROOT
BRANCH   1   5
HETATM    5  C   UNL     1      26.605  43.939  52.294  1.00  0.00     0.144 C 
BRANCH   5   6
HETATM    6  C   UNL     1      27.301  44.622  53.427  1.00  0.00    -0.021 A 
HETATM    7  C   UNL     1      28.532  44.245  54.064  1.00  0.00    -0.001 A 
HETATM    8  C   UNL     1      28.740  45.122  55.132  1.00  0.00     0.049 A 
HETATM    9  C   UNL     1      29.482  43.229  53.842  1.00  0.00     0.014 A 
HETATM   10  C   UNL     1      29.837  45.029  56.014  1.00  0.00    -0.031 A 
HETATM   11  N   UNL     1      27.699  46.023  55.116  1.00  0.00    -0.364 N 
HETATM   12  C   UNL     1      30.765  44.007  55.745  1.00  0.00     0.009 A 
HETATM   13  C   UNL     1      30.595  43.125  54.681  1.00  0.00     0.002 A 
HETATM   14  C   UNL     1      26.828  45.729  54.105  1.00  0.00     0.097 A 
HETATM   15  H   UNL     1      27.596  46.787  55.768  1.00  0.00     0.165 HD
BRANCH  10  16
HETATM   16  C   UNL     1      30.052  45.955  57.184  1.00  0.00     0.036 C 
HETATM   17  C   UNL     1      30.659  45.235  58.378  1.00  0.00     0.010 C 
ENDBRANCH  10  16
ENDBRANCH   5   6
ENDBRANCH   1   5
BRANCH   2  18
HETATM   18  C   UNL     1      24.580  46.232  50.054  1.00  0.00     0.035 A 
HETATM   19  C   UNL     1      23.578  45.493  49.404  1.00  0.00     0.042 A 
HETATM   20  C   UNL     1      22.563  46.128  48.671  1.00  0.00    -0.021 A 
HETATM   21  C   UNL     1      22.556  47.525  48.601  1.00  0.00     0.012 A 
HETATM   22  C   UNL     1      23.548  48.267  49.244  1.00  0.00     0.003 A 
HETATM   23  C   UNL     1      24.557  47.623  49.965  1.00  0.00     0.029 A 
BRANCH  20  24
HETATM   24  C   UNL     1      21.553  45.335  47.992  1.00  0.00     0.010 A 
HETATM   25  C   UNL     1      20.193  45.104  48.307  1.00  0.00     0.152 A 
HETATM   26  N   UNL     1      19.580  44.321  47.415  1.00  0.00    -0.187 NA
HETATM   27  N   UNL     1      20.547  44.043  46.526  1.00  0.00    -0.289 N 
HETATM   28  H   UNL     1      20.318  43.449  45.736  1.00  0.00     0.188 HD
HETATM   29  C   UNL     1      21.744  44.627  46.824  1.00  0.00     0.123 A 
ENDBRANCH  20  24
ENDBRANCH   2  18
TORSDOF 5
ENDMDL
MODEL 7
REMARK VINA RESULT:      -8.8      4.822      8.345
REMARK  5 active torsions:
REMARK  status: ('A' for Active; 'I' for Inactive)
REMARK    1  A    between atoms: C_2  and  C_3 
REMARK    2  A    between atoms: C_6  and  C_7 
REMARK    3  A    between atoms: C_7  and  C_8 
REMARK       I    between atoms: C_8  and  N_9 
REMARK    4  A    between atoms: N_9  and  C_10 
REMARK    5  A    between atoms: C_12  and  C_13 
ROOT
HETATM    1  C   UNL     1      26.206  44.262  51.839  1.00  0.00     0.226 C 
HETATM    2  N   UNL     1      26.208  44.445  53.217  1.00  0.00    -0.327 N 
HETATM    3  O   UNL     1      26.930  44.839  51.033  1.00  0.00    -0.273 OA
HETATM    4  H   UNL     1      25.487  43.960  53.736  1.00  0.00     0.169 HD
ENDROOT
BRANCH   1   5
HETATM    5  C   UNL     1      25.204  43.205  51.395  1.00  0.00     0.144 C 
BRANCH   5   6
HETATM    6  C   UNL     1      25.835  42.004  50.766  1.00  0.00    -0.021 A 
HETATM    7  C   UNL     1      26.992  41.279  51.211  1.00  0.00    -0.001 A 
HETATM    8  C   UNL     1      27.264  40.293  50.258  1.00  0.00     0.049 A 
HETATM    9  C   UNL     1      27.845  41.379  52.328  1.00  0.00     0.014 A 
HETATM   10  C   UNL     1      28.360  39.410  50.344  1.00  0.00    -0.031 A 
HETATM   11  N   UNL     1      26.284  40.388  49.297  1.00  0.00    -0.364 N 
HETATM   12  C   UNL     1      29.176  39.539  51.482  1.00  0.00     0.009 A 
HETATM   13  C   UNL     1      28.925  40.501  52.456  1.00  0.00     0.002 A 
HETATM   14  C   UNL     1      25.428  41.413  49.585  1.00  0.00     0.097 A 
HETATM   15  H   UNL     1      26.218  39.786  48.489  1.00  0.00     0.165 HD
BRANCH  10  16
HETATM   16  C   UNL     1      28.675  38.362  49.305  1.00  0.00     0.036 C 
HETATM   17  C   UNL     1      30.172  38.170  49.123  1.00  0.00     0.010 C 
ENDBRANCH  10  16
ENDBRANCH   5   6
ENDBRANCH   1   5
BRANCH   2  18
HETATM   18  C   UNL     1      27.068  45.260  53.979  1.00  0.00     0.035 A 
HETATM   19  C   UNL     1      28.112  44.618  54.664  1.00  0.00     0.042 A 
HETATM   20  C   UNL     1      29.035  45.345  55.434  1.00  0.00    -0.021 A 
HETATM   21  C   UNL     1      28.905  46.736  55.505  1.00  0.00     0.012 A 
HETATM   22  C   UNL     1      27.870  47.382  54.826  1.00  0.00     0.003 A 
HETATM   23  C   UNL     1      26.954  46.646  54.070  1.00  0.00     0.029 A 
BRANCH  20  24
HETATM   24  C   UNL     1      30.092  44.650  56.149  1.00  0.00     0.010 A 
HETATM   25  C   UNL     1      30.679  44.909  57.410  1.00  0.00     0.152 A 
HETATM   26  N   UNL     1      31.622  44.021  57.734  1.00  0.00    -0.187 NA
HETATM   27  N   UNL     1      31.646  43.190  56.680  1.00  0.00    -0.289 N 
HETATM   28  H   UNL     1      32.300  42.414  56.693  1.00  0.00     0.188 HD
HETATM   29  C   UNL     1      30.748  43.522  55.706  1.00  0.00     0.123 A 
ENDBRANCH  20  24
ENDBRANCH   2  18
TORSDOF 5
ENDMDL
MODEL 8
REMARK VINA RESULT:      -8.5      2.335      9.365
REMARK  5 active torsions:
REMARK  status: ('A' for Active; 'I' for Inactive)
REMARK    1  A    between atoms: C_2  and  C_3 
REMARK    2  A    between atoms: C_6  and  C_7 
REMARK    3  A    between atoms: C_7  and  C_8 
REMARK       I    between atoms: C_8  and  N_9 
REMARK    4  A    between atoms: N_9  and  C_10 
REMARK    5  A    between atoms: C_12  and  C_13 
ROOT
HETATM    1  C   UNL     1      26.141  44.064  50.274  1.00  0.00     0.226 C 
HETATM    2  N   UNL     1      26.213  43.474  51.529  1.00  0.00    -0.327 N 
HETATM    3  O   UNL     1      27.095  44.381  49.568  1.00  0.00    -0.273 OA
HETATM    4  H   UNL     1      25.337  43.356  52.023  1.00  0.00     0.169 HD
ENDROOT
BRANCH   1   5
HETATM    5  C   UNL     1      24.705  44.261  49.806  1.00  0.00     0.144 C 
BRANCH   5   6
HETATM    6  C   UNL     1      24.260  45.688  49.809  1.00  0.00    -0.021 A 
HETATM    7  C   UNL     1      23.261  46.304  48.983  1.00  0.00    -0.001 A 
HETATM    8  C   UNL     1      23.255  47.671  49.275  1.00  0.00     0.049 A 
HETATM    9  C   UNL     1      22.370  45.830  47.999  1.00  0.00     0.014 A 
HETATM   10  C   UNL     1      22.423  48.603  48.621  1.00  0.00    -0.031 A 
HETATM   11  N   UNL     1      24.184  47.868  50.272  1.00  0.00    -0.364 N 
HETATM   12  C   UNL     1      21.543  48.082  47.657  1.00  0.00     0.009 A 
HETATM   13  C   UNL     1      21.513  46.724  47.352  1.00  0.00     0.002 A 
HETATM   14  C   UNL     1      24.797  46.691  50.594  1.00  0.00     0.097 A 
HETATM   15  H   UNL     1      24.384  48.763  50.695  1.00  0.00     0.165 HD
BRANCH  10  16
HETATM   16  C   UNL     1      22.432  50.083  48.913  1.00  0.00     0.036 C 
HETATM   17  C   UNL     1      23.419  50.833  48.032  1.00  0.00     0.010 C 
ENDBRANCH  10  16
ENDBRANCH   5   6
ENDBRANCH   1   5
BRANCH   2  18
HETATM   18  C   UNL     1      27.367  43.055  52.223  1.00  0.00     0.035 A 
HETATM   19  C   UNL     1      27.821  43.883  53.261  1.00  0.00     0.042 A 
HETATM   20  C   UNL     1      28.949  43.542  54.025  1.00  0.00    -0.021 A 
HETATM   21  C   UNL     1      29.620  42.348  53.740  1.00  0.00     0.012 A 
HETATM   22  C   UNL     1      29.174  41.519  52.709  1.00  0.00     0.003 A 
HETATM   23  C   UNL     1      28.055  41.873  51.952  1.00  0.00     0.029 A 
BRANCH  20  24
HETATM   24  C   UNL     1      29.408  44.430  55.079  1.00  0.00     0.010 A 
HETATM   25  C   UNL     1      30.523  44.337  55.946  1.00  0.00     0.152 A 
HETATM   26  N   UNL     1      30.618  45.377  56.780  1.00  0.00    -0.187 NA
HETATM   27  N   UNL     1      29.562  46.138  56.454  1.00  0.00    -0.289 N 
HETATM   28  H   UNL     1      29.418  47.004  56.963  1.00  0.00     0.188 HD
HETATM   29  C   UNL     1      28.808  45.618  55.441  1.00  0.00     0.123 A 
ENDBRANCH  20  24
ENDBRANCH   2  18
TORSDOF 5
ENDMDL
MODEL 9
REMARK VINA RESULT:      -8.4      5.262      7.603
REMARK  5 active torsions:
REMARK  status: ('A' for Active; 'I' for Inactive)
REMARK    1  A    between atoms: C_2  and  C_3 
REMARK    2  A    between atoms: C_6  and  C_7 
REMARK    3  A    between atoms: C_7  and  C_8 
REMARK       I    between atoms: C_8  and  N_9 
REMARK    4  A    between atoms: N_9  and  C_10 
REMARK    5  A    between atoms: C_12  and  C_13 
ROOT
HETATM    1  C   UNL     1      26.543  43.468  50.793  1.00  0.00     0.226 C 
HETATM    2  N   UNL     1      25.668  42.392  50.723  1.00  0.00    -0.327 N 
HETATM    3  O   UNL     1      27.256  43.881  49.883  1.00  0.00    -0.273 OA
HETATM    4  H   UNL     1      25.216  42.121  51.587  1.00  0.00     0.169 HD
ENDROOT
BRANCH   1   5
HETATM    5  C   UNL     1      26.514  44.153  52.154  1.00  0.00     0.144 C 
BRANCH   5   6
HETATM    6  C   UNL     1      27.613  43.720  53.070  1.00  0.00    -0.021 A 
HETATM    7  C   UNL     1      28.267  44.490  54.091  1.00  0.00    -0.001 A 
HETATM    8  C   UNL     1      29.293  43.702  54.621  1.00  0.00     0.049 A 
HETATM    9  C   UNL     1      28.093  45.790  54.603  1.00  0.00     0.014 A 
HETATM   10  C   UNL     1      30.177  44.149  55.624  1.00  0.00    -0.031 A 
HETATM   11  N   UNL     1      29.234  42.487  53.978  1.00  0.00    -0.364 N 
HETATM   12  C   UNL     1      29.957  45.449  56.114  1.00  0.00     0.009 A 
HETATM   13  C   UNL     1      28.936  46.254  55.617  1.00  0.00     0.002 A 
HETATM   14  C   UNL     1      28.239  42.488  53.042  1.00  0.00     0.097 A 
HETATM   15  H   UNL     1      29.849  41.709  54.170  1.00  0.00     0.165 HD
BRANCH  10  16
HETATM   16  C   UNL     1      31.303  43.313  56.181  1.00  0.00     0.036 C 
HETATM   17  C   UNL     1      31.718  43.768  57.571  1.00  0.00     0.010 C 
ENDBRANCH  10  16
ENDBRANCH   5   6
ENDBRANCH   1   5
BRANCH   2  18
HETATM   18  C   UNL     1      25.362  41.599  49.598  1.00  0.00     0.035 A 
HETATM   19  C   UNL     1      26.259  40.566  49.284  1.00  0.00     0.042 A 
HETATM   20  C   UNL     1      26.031  39.708  48.196  1.00  0.00    -0.021 A 
HETATM   21  C   UNL     1      24.881  39.892  47.422  1.00  0.00     0.012 A 
HETATM   22  C   UNL     1      23.984  40.917  47.728  1.00  0.00     0.003 A 
HETATM   23  C   UNL     1      24.225  41.768  48.809  1.00  0.00     0.029 A 
BRANCH  20  24
HETATM   24  C   UNL     1      26.989  38.662  47.883  1.00  0.00     0.010 A 
HETATM   25  C   UNL     1      28.155  38.685  47.081  1.00  0.00     0.152 A 
HETATM   26  N   UNL     1      28.790  37.511  47.055  1.00  0.00    -0.187 NA
HETATM   27  N   UNL     1      28.031  36.727  47.838  1.00  0.00    -0.289 N 
HETATM   28  H   UNL     1      28.318  35.763  47.975  1.00  0.00     0.188 HD
HETATM   29  C   UNL     1      26.945  37.369  48.359  1.00  0.00     0.123 A 
ENDBRANCH  20  24
ENDBRANCH   2  18
TORSDOF 5
ENDMDL
MODEL 10
REMARK VINA RESULT:      -8.4      3.233      9.654
REMARK  5 active torsions:
REMARK  status: ('A' for Active; 'I' for Inactive)
REMARK    1  A    between atoms: C_2  and  C_3 
REMARK    2  A    between atoms: C_6  and  C_7 
REMARK    3  A    between atoms: C_7  and  C_8 
REMARK       I    between atoms: C_8  and  N_9 
REMARK    4  A    between atoms: N_9  and  C_10 
REMARK    5  A    between atoms: C_12  and  C_13 
ROOT
HETATM    1  C   UNL     1      26.449  45.039  51.978  1.00  0.00     0.226 C 
HETATM    2  N   UNL     1      26.947  44.726  53.237  1.00  0.00    -0.327 N 
HETATM    3  O   UNL     1      27.052  44.934  50.915  1.00  0.00    -0.273 OA
HETATM    4  H   UNL     1      26.356  44.955  54.026  1.00  0.00     0.169 HD
ENDROOT
BRANCH   1   5
HETATM    5  C   UNL     1      25.002  45.514  52.029  1.00  0.00     0.144 C 
BRANCH   5   6
HETATM    6  C   UNL     1      24.340  45.572  50.689  1.00  0.00    -0.021 A 
HETATM    7  C   UNL     1      23.809  44.483  49.919  1.00  0.00    -0.001 A 
HETATM    8  C   UNL     1      23.377  45.003  48.695  1.00  0.00     0.049 A 
HETATM    9  C   UNL     1      23.671  43.098  50.139  1.00  0.00     0.014 A 
HETATM   10  C   UNL     1      22.832  44.212  47.662  1.00  0.00    -0.031 A 
HETATM   11  N   UNL     1      23.596  46.361  48.741  1.00  0.00    -0.364 N 
HETATM   12  C   UNL     1      22.702  42.838  47.934  1.00  0.00     0.009 A 
HETATM   13  C   UNL     1      23.110  42.290  49.146  1.00  0.00     0.002 A 
HETATM   14  C   UNL     1      24.179  46.712  49.925  1.00  0.00     0.097 A 
HETATM   15  H   UNL     1      23.363  47.001  47.996  1.00  0.00     0.165 HD
BRANCH  10  16
HETATM   16  C   UNL     1      22.389  44.764  46.330  1.00  0.00     0.036 C 
HETATM   17  C   UNL     1      22.041  43.661  45.343  1.00  0.00     0.010 C 
ENDBRANCH  10  16
ENDBRANCH   5   6
ENDBRANCH   1   5
BRANCH   2  18
HETATM   18  C   UNL     1      28.201  44.166  53.555  1.00  0.00     0.035 A 
HETATM   19  C   UNL     1      28.757  44.513  54.796  1.00  0.00     0.042 A 
HETATM   20  C   UNL     1      29.992  43.990  55.213  1.00  0.00    -0.021 A 
HETATM   21  C   UNL     1      30.667  43.102  54.370  1.00  0.00     0.012 A 
HETATM   22  C   UNL     1      30.120  42.752  53.134  1.00  0.00     0.003 A 
HETATM   23  C   UNL     1      28.895  43.284  52.727  1.00  0.00     0.029 A 
BRANCH  20  24
HETATM   24  C   UNL     1      30.553  44.385  56.494  1.00  0.00     0.010 A 
HETATM   25  C   UNL     1      31.529  43.762  57.307  1.00  0.00     0.152 A 
HETATM   26  N   UNL     1      31.795  44.454  58.419  1.00  0.00    -0.187 NA
HETATM   27  N   UNL     1      30.986  45.521  58.325  1.00  0.00    -0.289 N 
HETATM   28  H   UNL     1      31.008  46.209  59.071  1.00  0.00     0.188 HD
HETATM   29  C   UNL     1      30.225  45.528  57.192  1.00  0.00     0.123 A 
ENDBRANCH  20  24
ENDBRANCH   2  18
TORSDOF 5
ENDMDL
