MODEL 1
REMARK VINA RESULT:      -8.7      0.000      0.000
REMARK  8 active torsions:
REMARK  status: ('A' for Active; 'I' for Inactive)
REMARK    1  A    between atoms: C_2  and  N_3 
REMARK       I    between atoms: N_3  and  C_4 
REMARK    2  A    between atoms: C_4  and  C_5 
REMARK    3  A    between atoms: C_5  and  O_6 
REMARK    4  A    between atoms: O_6  and  C_7 
REMARK    5  A    between atoms: C_11  and  C_12 
REMARK    6  A    between atoms: C_12  and  N_13 
REMARK    7  A    between atoms: N_13  and  C_14 
REMARK    8  A    between atoms: C_25  and  O_26 
ROOT
HETATM    1  C   UNL     1      24.577  48.588  48.807  1.00  0.00     0.124 A 
HETATM    2  C   UNL     1      25.933  48.604  49.158  1.00  0.00     0.070 A 
HETATM    3 CL   UNL     1      26.980  49.867  48.611  1.00  0.00    -0.081 Cl
HETATM    4  C   UNL     1      26.471  47.605  49.977  1.00  0.00     0.035 A 
HETATM    5  C   UNL     1      25.667  46.555  50.443  1.00  0.00    -0.041 A 
HETATM    6  C   UNL     1      24.309  46.539  50.094  1.00  0.00     0.048 A 
HETATM    7  C   UNL     1      23.779  47.530  49.261  1.00  0.00     0.103 A 
ENDROOT
BRANCH   5   8
HETATM    8  C   UNL     1      26.247  45.479  51.331  1.00  0.00     0.131 C 
BRANCH   8   9
HETATM    9  N   UNL     1      25.927  45.779  52.718  1.00  0.00    -0.289 NA
HETATM   10  H   UNL     1      25.084  45.303  53.033  1.00  0.00     0.128 HD
BRANCH   9  11
HETATM   11  C   UNL     1      26.946  45.730  53.681  1.00  0.00     0.010 A 
HETATM   12  C   UNL     1      27.825  44.642  53.813  1.00  0.00     0.055 A 
HETATM   13  C   UNL     1      28.841  44.746  54.739  1.00  0.00     0.065 A 
HETATM   14  C   UNL     1      29.029  45.885  55.516  1.00  0.00     0.063 A 
HETATM   15  N   UNL     1      29.833  43.831  55.074  1.00  0.00    -0.306 N 
HETATM   16  N   UNL     1      30.133  45.671  56.332  1.00  0.00    -0.307 N 
HETATM   17  C   UNL     1      28.218  46.983  55.399  1.00  0.00     0.034 A 
HETATM   18  C   UNL     1      30.649  44.394  56.066  1.00  0.00     0.325 A 
HETATM   19  H   UNL     1      30.533  46.309  57.000  1.00  0.00     0.170 HD
HETATM   20  O   UNL     1      31.617  43.877  56.592  1.00  0.00    -0.247 OA
HETATM   21  C   UNL     1      27.182  46.899  54.459  1.00  0.00     0.026 A 
HETATM   22  H   UNL     1      29.981  42.915  54.682  1.00  0.00     0.170 HD
ENDBRANCH   9  11
ENDBRANCH   8   9
ENDBRANCH   5   8
BRANCH   7  23
HETATM   23  O   UNL     1      22.448  47.449  48.947  1.00  0.00    -0.353 OA
HETATM   24  C   UNL     1      22.154  46.175  48.372  1.00  0.00     0.210 C 
ENDBRANCH   7  23
BRANCH   1  25
HETATM   25  O   UNL     1      24.126  49.573  47.964  1.00  0.00    -0.337 OA
BRANCH  25  26
HETATM   26  C   UNL     1      23.833  50.813  48.612  1.00  0.00     0.278 C 
BRANCH  26  27
HETATM   27  C   UNL     1      22.383  50.833  49.102  1.00  0.00     0.242 C 
HETATM   28  N   UNL     1      21.446  50.771  48.092  1.00  0.00    -0.351 N 
HETATM   29  H   UNL     1      21.818  50.551  47.171  1.00  0.00     0.163 HD
HETATM   30  O   UNL     1      22.110  50.937  50.294  1.00  0.00    -0.271 OA
BRANCH  28  31
HETATM   31  C   UNL     1      19.991  50.720  48.281  1.00  0.00     0.022 C 
HETATM   32  C   UNL     1      19.453  52.054  48.822  1.00  0.00     0.037 C 
HETATM   33  C   UNL     1      19.607  49.574  49.229  1.00  0.00     0.037 C 
HETATM   34  C   UNL     1      19.341  50.461  46.909  1.00  0.00     0.037 C 
ENDBRANCH  28  31
ENDBRANCH  26  27
ENDBRANCH  25  26
ENDBRANCH   1  25
TORSDOF 8
ENDMDL
MODEL 2
REMARK VINA RESULT:      -8.6      2.155      3.217
REMARK  8 active torsions:
REMARK  status: ('A' for Active; 'I' for Inactive)
REMARK    1  A    between atoms: C_2  and  N_3 
REMARK       I    between atoms: N_3  and  C_4 
REMARK    2  A    between atoms: C_4  and  C_5 
REMARK    3  A    between atoms: C_5  and  O_6 
REMARK    4  A    between atoms: O_6  and  C_7 
REMARK    5  A    between atoms: C_11  and  C_12 
REMARK    6  A    between atoms: C_12  and  N_13 
REMARK    7  A    between atoms: N_13  and  C_14 
REMARK    8  A    between atoms: C_25  and  O_26 
ROOT
HETATM    1  C   UNL     1      24.002  45.820  49.579  1.00  0.00     0.124 A 
HETATM    2  C   UNL     1      23.860  44.456  49.867  1.00  0.00     0.070 A 
HETATM    3 CL   UNL     1      22.950  43.416  48.828  1.00  0.00    -0.081 Cl
HETATM    4  C   UNL     1      24.467  43.898  50.997  1.00  0.00     0.035 A 
HETATM    5  C   UNL     1      25.212  44.698  51.876  1.00  0.00    -0.041 A 
HETATM    6  C   UNL     1      25.356  46.063  51.588  1.00  0.00     0.048 A 
HETATM    7  C   UNL     1      24.733  46.620  50.467  1.00  0.00     0.103 A 
ENDROOT
BRANCH   5   8
HETATM    8  C   UNL     1      25.871  44.093  53.094  1.00  0.00     0.131 C 
BRANCH   8   9
HETATM    9  N   UNL     1      27.269  43.822  52.796  1.00  0.00    -0.289 NA
HETATM   10  H   UNL     1      27.543  44.163  51.877  1.00  0.00     0.128 HD
BRANCH   9  11
HETATM   11  C   UNL     1      28.241  44.100  53.769  1.00  0.00     0.010 A 
HETATM   12  C   UNL     1      28.099  45.118  54.727  1.00  0.00     0.055 A 
HETATM   13  C   UNL     1      29.082  45.239  55.685  1.00  0.00     0.065 A 
HETATM   14  C   UNL     1      30.178  44.384  55.743  1.00  0.00     0.063 A 
HETATM   15  N   UNL     1      29.194  46.149  56.732  1.00  0.00    -0.306 N 
HETATM   16  N   UNL     1      30.967  44.768  56.820  1.00  0.00    -0.307 N 
HETATM   17  C   UNL     1      30.342  43.356  54.852  1.00  0.00     0.034 A 
HETATM   18  C   UNL     1      30.365  45.867  57.450  1.00  0.00     0.325 A 
HETATM   19  H   UNL     1      31.823  44.342  57.134  1.00  0.00     0.170 HD
HETATM   20  O   UNL     1      30.776  46.458  58.431  1.00  0.00    -0.247 OA
HETATM   21  C   UNL     1      29.351  43.213  53.871  1.00  0.00     0.026 A 
HETATM   22  H   UNL     1      28.555  46.889  56.972  1.00  0.00     0.170 HD
ENDBRANCH   9  11
ENDBRANCH   8   9
ENDBRANCH   5   8
BRANCH   7  23
HETATM   23  O   UNL     1      24.903  47.962  50.248  1.00  0.00    -0.353 OA
HETATM   24  C   UNL     1      26.149  48.199  49.591  1.00  0.00     0.210 C 
ENDBRANCH   7  23
BRANCH   1  25
HETATM   25  O   UNL     1      23.343  46.310  48.480  1.00  0.00    -0.337 OA
BRANCH  25  26
HETATM   26  C   UNL     1      22.018  46.773  48.746  1.00  0.00     0.278 C 
BRANCH  26  27
HETATM   27  C   UNL     1      21.946  48.297  48.613  1.00  0.00     0.242 C 
HETATM   28  N   UNL     1      20.940  48.880  49.357  1.00  0.00    -0.351 N 
HETATM   29  H   UNL     1      20.484  48.263  50.025  1.00  0.00     0.163 HD
HETATM   30  O   UNL     1      22.703  48.914  47.870  1.00  0.00    -0.271 OA
BRANCH  28  31
HETATM   31  C   UNL     1      20.680  50.322  49.457  1.00  0.00     0.022 C 
HETATM   32  C   UNL     1      20.411  50.936  48.074  1.00  0.00     0.037 C 
HETATM   33  C   UNL     1      21.859  51.040  50.131  1.00  0.00     0.037 C 
HETATM   34  C   UNL     1      19.424  50.520  50.324  1.00  0.00     0.037 C 
ENDBRANCH  28  31
ENDBRANCH  26  27
ENDBRANCH  25  26
ENDBRANCH   1  25
TORSDOF 8
ENDMDL
MODEL 3
REMARK VINA RESULT:      -8.5      1.997      3.072
REMARK  8 active torsions:
REMARK  status: ('A' for Active; 'I' for Inactive)
REMARK    1  A    between atoms: C_2  and  N_3 
REMARK       I    between atoms: N_3  and  C_4 
REMARK    2  A    between atoms: C_4  and  C_5 
REMARK    3  A    between atoms: C_5  and  O_6 
REMARK    4  A    between atoms: O_6  and  C_7 
REMARK    5  A    between atoms: C_11  and  C_12 
REMARK    6  A    between atoms: C_12  and  N_13 
REMARK    7  A    between atoms: N_13  and  C_14 
REMARK    8  A    between atoms: C_25  and  O_26 
ROOT
HETATM    1  C   UNL     1      23.719  45.440  49.534  1.00  0.00     0.124 A 
HETATM    2  C   UNL     1      24.753  46.172  50.132  1.00  0.00     0.070 A 
HETATM    3 CL   UNL     1      25.157  47.760  49.578  1.00  0.00    -0.081 Cl
HETATM    4  C   UNL     1      25.475  45.641  51.207  1.00  0.00     0.035 A 
HETATM    5  C   UNL     1      25.193  44.356  51.691  1.00  0.00    -0.041 A 
HETATM    6  C   UNL     1      24.157  43.623  51.094  1.00  0.00     0.048 A 
HETATM    7  C   UNL     1      23.449  44.151  50.009  1.00  0.00     0.103 A 
ENDROOT
BRANCH   5   8
HETATM    8  C   UNL     1      25.969  43.785  52.854  1.00  0.00     0.131 C 
BRANCH   8   9
HETATM    9  N   UNL     1      27.387  43.783  52.528  1.00  0.00    -0.289 NA
HETATM   10  H   UNL     1      27.590  44.304  51.678  1.00  0.00     0.128 HD
BRANCH   9  11
HETATM   11  C   UNL     1      28.322  44.049  53.540  1.00  0.00     0.010 A 
HETATM   12  C   UNL     1      28.145  45.058  54.502  1.00  0.00     0.055 A 
HETATM   13  C   UNL     1      29.091  45.167  55.498  1.00  0.00     0.065 A 
HETATM   14  C   UNL     1      30.182  44.310  55.590  1.00  0.00     0.063 A 
HETATM   15  N   UNL     1      29.164  46.066  56.558  1.00  0.00    -0.306 N 
HETATM   16  N   UNL     1      30.930  44.681  56.700  1.00  0.00    -0.307 N 
HETATM   17  C   UNL     1      30.379  43.290  54.695  1.00  0.00     0.034 A 
HETATM   18  C   UNL     1      30.306  45.774  57.318  1.00  0.00     0.325 A 
HETATM   19  H   UNL     1      31.773  44.250  57.042  1.00  0.00     0.170 HD
HETATM   20  O   UNL     1      30.680  46.356  58.320  1.00  0.00    -0.247 OA
HETATM   21  C   UNL     1      29.425  43.159  53.676  1.00  0.00     0.026 A 
HETATM   22  H   UNL     1      28.517  46.805  56.781  1.00  0.00     0.170 HD
ENDBRANCH   9  11
ENDBRANCH   8   9
ENDBRANCH   5   8
BRANCH   7  23
HETATM   23  O   UNL     1      22.458  43.378  49.463  1.00  0.00    -0.353 OA
HETATM   24  C   UNL     1      23.027  42.334  48.672  1.00  0.00     0.210 C 
ENDBRANCH   7  23
BRANCH   1  25
HETATM   25  O   UNL     1      23.083  46.002  48.456  1.00  0.00    -0.337 OA
BRANCH  25  26
HETATM   26  C   UNL     1      21.856  46.662  48.775  1.00  0.00     0.278 C 
BRANCH  26  27
HETATM   27  C   UNL     1      21.922  48.139  48.378  1.00  0.00     0.242 C 
HETATM   28  N   UNL     1      21.707  49.014  49.423  1.00  0.00    -0.351 N 
HETATM   29  H   UNL     1      21.700  48.589  50.347  1.00  0.00     0.163 HD
HETATM   30  O   UNL     1      22.110  48.484  47.215  1.00  0.00    -0.271 OA
BRANCH  28  31
HETATM   31  C   UNL     1      21.767  50.478  49.335  1.00  0.00     0.022 C 
HETATM   32  C   UNL     1      20.748  51.017  48.318  1.00  0.00     0.037 C 
HETATM   33  C   UNL     1      23.182  50.942  48.958  1.00  0.00     0.037 C 
HETATM   34  C   UNL     1      21.414  51.053  50.719  1.00  0.00     0.037 C 
ENDBRANCH  28  31
ENDBRANCH  26  27
ENDBRANCH  25  26
ENDBRANCH   1  25
TORSDOF 8
ENDMDL
MODEL 4
REMARK VINA RESULT:      -8.3      2.038      2.814
REMARK  8 active torsions:
REMARK  status: ('A' for Active; 'I' for Inactive)
REMARK    1  A    between atoms: C_2  and  N_3 
REMARK       I    between atoms: N_3  and  C_4 
REMARK    2  A    between atoms: C_4  and  C_5 
REMARK    3  A    between atoms: C_5  and  O_6 
REMARK    4  A    between atoms: O_6  and  C_7 
REMARK    5  A    between atoms: C_11  and  C_12 
REMARK    6  A    between atoms: C_12  and  N_13 
REMARK    7  A    between atoms: N_13  and  C_14 
REMARK    8  A    between atoms: C_25  and  O_26 
ROOT
HETATM    1  C   UNL     1      23.815  47.131  49.157  1.00  0.00     0.124 A 
HETATM    2  C   UNL     1      23.096  45.931  49.086  1.00  0.00     0.070 A 
HETATM    3 CL   UNL     1      21.699  45.788  48.077  1.00  0.00    -0.081 Cl
HETATM    4  C   UNL     1      23.502  44.810  49.818  1.00  0.00     0.035 A 
HETATM    5  C   UNL     1      24.625  44.873  50.656  1.00  0.00    -0.041 A 
HETATM    6  C   UNL     1      25.346  46.074  50.727  1.00  0.00     0.048 A 
HETATM    7  C   UNL     1      24.926  47.197  50.007  1.00  0.00     0.103 A 
ENDROOT
BRANCH   5   8
HETATM    8  C   UNL     1      25.066  43.662  51.443  1.00  0.00     0.131 C 
BRANCH   8   9
HETATM    9  N   UNL     1      24.901  43.927  52.864  1.00  0.00    -0.289 NA
HETATM   10  H   UNL     1      24.317  43.231  53.323  1.00  0.00     0.128 HD
BRANCH   9  11
HETATM   11  C   UNL     1      26.027  44.255  53.633  1.00  0.00     0.010 A 
HETATM   12  C   UNL     1      27.137  43.405  53.770  1.00  0.00     0.055 A 
HETATM   13  C   UNL     1      28.220  43.873  54.482  1.00  0.00     0.065 A 
HETATM   14  C   UNL     1      28.254  45.148  55.039  1.00  0.00     0.063 A 
HETATM   15  N   UNL     1      29.429  43.248  54.773  1.00  0.00    -0.306 N 
HETATM   16  N   UNL     1      29.478  45.307  55.675  1.00  0.00    -0.307 N 
HETATM   17  C   UNL     1      27.209  46.025  54.903  1.00  0.00     0.034 A 
HETATM   18  C   UNL     1      30.225  44.132  55.516  1.00  0.00     0.325 A 
HETATM   19  H   UNL     1      29.812  46.122  56.163  1.00  0.00     0.170 HD
HETATM   20  O   UNL     1      31.347  43.919  55.937  1.00  0.00    -0.247 OA
HETATM   21  C   UNL     1      26.099  45.569  54.179  1.00  0.00     0.026 A 
HETATM   22  H   UNL     1      29.722  42.325  54.500  1.00  0.00     0.170 HD
ENDBRANCH   9  11
ENDBRANCH   8   9
ENDBRANCH   5   8
BRANCH   7  23
HETATM   23  O   UNL     1      25.668  48.343  50.130  1.00  0.00    -0.353 OA
HETATM   24  C   UNL     1      26.890  48.218  49.400  1.00  0.00     0.210 C 
ENDBRANCH   7  23
BRANCH   1  25
HETATM   25  O   UNL     1      23.335  48.203  48.448  1.00  0.00    -0.337 OA
BRANCH  25  26
HETATM   26  C   UNL     1      22.667  49.184  49.244  1.00  0.00     0.278 C 
BRANCH  26  27
HETATM   27  C   UNL     1      21.164  49.178  48.953  1.00  0.00     0.242 C 
HETATM   28  N   UNL     1      20.379  48.879  50.048  1.00  0.00    -0.351 N 
HETATM   29  H   UNL     1      20.869  48.866  50.940  1.00  0.00     0.163 HD
HETATM   30  O   UNL     1      20.727  49.384  47.825  1.00  0.00    -0.271 OA
BRANCH  28  31
HETATM   31  C   UNL     1      18.911  48.857  50.065  1.00  0.00     0.022 C 
HETATM   32  C   UNL     1      18.360  47.793  49.102  1.00  0.00     0.037 C 
HETATM   33  C   UNL     1      18.344  50.238  49.704  1.00  0.00     0.037 C 
HETATM   34  C   UNL     1      18.456  48.496  51.491  1.00  0.00     0.037 C 
ENDBRANCH  28  31
ENDBRANCH  26  27
ENDBRANCH  25  26
ENDBRANCH   1  25
TORSDOF 8
ENDMDL
MODEL 5
REMARK VINA RESULT:      -8.2      1.613      2.301
REMARK  8 active torsions:
REMARK  status: ('A' for Active; 'I' for Inactive)
REMARK    1  A    between atoms: C_2  and  N_3 
REMARK       I    between atoms: N_3  and  C_4 
REMARK    2  A    between atoms: C_4  and  C_5 
REMARK    3  A    between atoms: C_5  and  O_6 
REMARK    4  A    between atoms: O_6  and  C_7 
REMARK    5  A    between atoms: C_11  and  C_12 
REMARK    6  A    between atoms: C_12  and  N_13 
REMARK    7  A    between atoms: N_13  and  C_14 
REMARK    8  A    between atoms: C_25  and  O_26 
ROOT
HETATM    1  C   UNL     1      25.398  47.911  49.574  1.00  0.00     0.124 A 
HETATM    2  C   UNL     1      26.776  47.660  49.542  1.00  0.00     0.070 A 
HETATM    3 CL   UNL     1      27.915  48.956  49.431  1.00  0.00    -0.081 Cl
HETATM    4  C   UNL     1      27.266  46.351  49.617  1.00  0.00     0.035 A 
HETATM    5  C   UNL     1      26.386  45.263  49.702  1.00  0.00    -0.041 A 
HETATM    6  C   UNL     1      25.006  45.513  49.736  1.00  0.00     0.048 A 
HETATM    7  C   UNL     1      24.520  46.821  49.643  1.00  0.00     0.103 A 
ENDROOT
BRANCH   5   8
HETATM    8  C   UNL     1      26.916  43.851  49.788  1.00  0.00     0.131 C 
BRANCH   8   9
HETATM    9  N   UNL     1      26.685  43.333  51.127  1.00  0.00    -0.289 NA
HETATM   10  H   UNL     1      26.296  42.393  51.118  1.00  0.00     0.128 HD
BRANCH   9  11
HETATM   11  C   UNL     1      27.690  43.474  52.097  1.00  0.00     0.010 A 
HETATM   12  C   UNL     1      27.644  44.443  53.113  1.00  0.00     0.055 A 
HETATM   13  C   UNL     1      28.646  44.428  54.059  1.00  0.00     0.065 A 
HETATM   14  C   UNL     1      29.669  43.485  54.049  1.00  0.00     0.063 A 
HETATM   15  N   UNL     1      28.846  45.263  55.154  1.00  0.00    -0.306 N 
HETATM   16  N   UNL     1      30.501  43.740  55.132  1.00  0.00    -0.307 N 
HETATM   17  C   UNL     1      29.737  42.500  53.098  1.00  0.00     0.034 A 
HETATM   18  C   UNL     1      29.999  44.845  55.834  1.00  0.00     0.325 A 
HETATM   19  H   UNL     1      31.323  43.228  55.406  1.00  0.00     0.170 HD
HETATM   20  O   UNL     1      30.470  45.344  56.840  1.00  0.00    -0.247 OA
HETATM   21  C   UNL     1      28.724  42.495  52.129  1.00  0.00     0.026 A 
HETATM   22  H   UNL     1      28.273  46.037  55.447  1.00  0.00     0.170 HD
ENDBRANCH   9  11
ENDBRANCH   8   9
ENDBRANCH   5   8
BRANCH   7  23
HETATM   23  O   UNL     1      23.162  46.996  49.669  1.00  0.00    -0.353 OA
HETATM   24  C   UNL     1      22.542  46.182  48.673  1.00  0.00     0.210 C 
ENDBRANCH   7  23
BRANCH   1  25
HETATM   25  O   UNL     1      24.986  49.213  49.451  1.00  0.00    -0.337 OA
BRANCH  25  26
HETATM   26  C   UNL     1      24.379  49.523  48.195  1.00  0.00     0.278 C 
BRANCH  26  27
HETATM   27  C   UNL     1      23.086  50.315  48.405  1.00  0.00     0.242 C 
HETATM   28  N   UNL     1      22.007  49.544  48.785  1.00  0.00    -0.351 N 
HETATM   29  H   UNL     1      22.232  48.586  49.042  1.00  0.00     0.163 HD
HETATM   30  O   UNL     1      23.034  51.525  48.204  1.00  0.00    -0.271 OA
BRANCH  28  31
HETATM   31  C   UNL     1      20.667  50.050  49.103  1.00  0.00     0.022 C 
HETATM   32  C   UNL     1      19.714  48.905  49.482  1.00  0.00     0.037 C 
HETATM   33  C   UNL     1      20.092  50.844  47.920  1.00  0.00     0.037 C 
HETATM   34  C   UNL     1      20.790  50.994  50.314  1.00  0.00     0.037 C 
ENDBRANCH  28  31
ENDBRANCH  26  27
ENDBRANCH  25  26
ENDBRANCH   1  25
TORSDOF 8
ENDMDL
MODEL 6
REMARK VINA RESULT:      -7.8      3.615     10.334
REMARK  8 active torsions:
REMARK  status: ('A' for Active; 'I' for Inactive)
REMARK    1  A    between atoms: C_2  and  N_3 
REMARK       I    between atoms: N_3  and  C_4 
REMARK    2  A    between atoms: C_4  and  C_5 
REMARK    3  A    between atoms: C_5  and  O_6 
REMARK    4  A    between atoms: O_6  and  C_7 
REMARK    5  A    between atoms: C_11  and  C_12 
REMARK    6  A    between atoms: C_12  and  N_13 
REMARK    7  A    between atoms: N_13  and  C_14 
REMARK    8  A    between atoms: C_25  and  O_26 
ROOT
HETATM    1  C   UNL     1      24.454  43.811  50.060  1.00  0.00     0.124 A 
HETATM    2  C   UNL     1      23.439  43.671  49.105  1.00  0.00     0.070 A 
HETATM    3 CL   UNL     1      22.937  42.108  48.562  1.00  0.00    -0.081 Cl
HETATM    4  C   UNL     1      22.792  44.795  48.580  1.00  0.00     0.035 A 
HETATM    5  C   UNL     1      23.164  46.086  48.982  1.00  0.00    -0.041 A 
HETATM    6  C   UNL     1      24.180  46.227  49.939  1.00  0.00     0.048 A 
HETATM    7  C   UNL     1      24.836  45.102  50.448  1.00  0.00     0.103 A 
ENDROOT
BRANCH   5   8
HETATM    8  C   UNL     1      22.462  47.298  48.417  1.00  0.00     0.131 C 
BRANCH   8   9
HETATM    9  N   UNL     1      22.233  48.259  49.485  1.00  0.00    -0.289 NA
HETATM   10  H   UNL     1      23.101  48.612  49.883  1.00  0.00     0.128 HD
BRANCH   9  11
HETATM   11  C   UNL     1      21.292  49.282  49.294  1.00  0.00     0.010 A 
HETATM   12  C   UNL     1      20.017  49.272  49.886  1.00  0.00     0.055 A 
HETATM   13  C   UNL     1      19.212  50.373  49.694  1.00  0.00     0.065 A 
HETATM   14  C   UNL     1      19.626  51.483  48.963  1.00  0.00     0.063 A 
HETATM   15  N   UNL     1      17.922  50.621  50.153  1.00  0.00    -0.306 N 
HETATM   16  N   UNL     1      18.592  52.411  48.968  1.00  0.00    -0.307 N 
HETATM   17  C   UNL     1      20.871  51.553  48.396  1.00  0.00     0.034 A 
HETATM   18  C   UNL     1      17.522  51.890  49.710  1.00  0.00     0.325 A 
HETATM   19  H   UNL     1      18.585  53.321  48.537  1.00  0.00     0.170 HD
HETATM   20  O   UNL     1      16.455  52.434  49.929  1.00  0.00    -0.247 OA
HETATM   21  C   UNL     1      21.708  50.444  48.583  1.00  0.00     0.026 A 
HETATM   22  H   UNL     1      17.348  50.021  50.722  1.00  0.00     0.170 HD
ENDBRANCH   9  11
ENDBRANCH   8   9
ENDBRANCH   5   8
BRANCH   7  23
HETATM   23  O   UNL     1      25.827  45.310  51.371  1.00  0.00    -0.353 OA
HETATM   24  C   UNL     1      25.558  46.494  52.124  1.00  0.00     0.210 C 
ENDBRANCH   7  23
BRANCH   1  25
HETATM   25  O   UNL     1      25.077  42.670  50.499  1.00  0.00    -0.337 OA
BRANCH  25  26
HETATM   26  C   UNL     1      26.289  42.358  49.810  1.00  0.00     0.278 C 
BRANCH  26  27
HETATM   27  C   UNL     1      27.391  41.987  50.806  1.00  0.00     0.242 C 
HETATM   28  N   UNL     1      27.384  42.740  51.962  1.00  0.00    -0.351 N 
HETATM   29  H   UNL     1      26.562  43.325  52.090  1.00  0.00     0.163 HD
HETATM   30  O   UNL     1      28.221  41.117  50.552  1.00  0.00    -0.271 OA
BRANCH  28  31
HETATM   31  C   UNL     1      28.291  42.560  53.103  1.00  0.00     0.022 C 
HETATM   32  C   UNL     1      29.710  43.045  52.767  1.00  0.00     0.037 C 
HETATM   33  C   UNL     1      28.327  41.088  53.541  1.00  0.00     0.037 C 
HETATM   34  C   UNL     1      27.758  43.408  54.273  1.00  0.00     0.037 C 
ENDBRANCH  28  31
ENDBRANCH  26  27
ENDBRANCH  25  26
ENDBRANCH   1  25
TORSDOF 8
ENDMDL
MODEL 7
REMARK VINA RESULT:      -7.7      2.382      3.551
REMARK  8 active torsions:
REMARK  status: ('A' for Active; 'I' for Inactive)
REMARK    1  A    between atoms: C_2  and  N_3 
REMARK       I    between atoms: N_3  and  C_4 
REMARK    2  A    between atoms: C_4  and  C_5 
REMARK    3  A    between atoms: C_5  and  O_6 
REMARK    4  A    between atoms: O_6  and  C_7 
REMARK    5  A    between atoms: C_11  and  C_12 
REMARK    6  A    between atoms: C_12  and  N_13 
REMARK    7  A    between atoms: N_13  and  C_14 
REMARK    8  A    between atoms: C_25  and  O_26 
ROOT
HETATM    1  C   UNL     1      21.489  47.714  48.340  1.00  0.00     0.124 A 
HETATM    2  C   UNL     1      22.061  46.442  48.465  1.00  0.00     0.070 A 
HETATM    3 CL   UNL     1      21.270  45.043  47.826  1.00  0.00    -0.081 Cl
HETATM    4  C   UNL     1      23.299  46.274  49.096  1.00  0.00     0.035 A 
HETATM    5  C   UNL     1      23.980  47.374  49.637  1.00  0.00    -0.041 A 
HETATM    6  C   UNL     1      23.408  48.649  49.511  1.00  0.00     0.048 A 
HETATM    7  C   UNL     1      22.163  48.810  48.895  1.00  0.00     0.103 A 
ENDROOT
BRANCH   5   8
HETATM    8  C   UNL     1      25.318  47.193  50.313  1.00  0.00     0.131 C 
BRANCH   8   9
HETATM    9  N   UNL     1      25.157  47.371  51.748  1.00  0.00    -0.289 NA
HETATM   10  H   UNL     1      24.197  47.225  52.052  1.00  0.00     0.128 HD
BRANCH   9  11
HETATM   11  C   UNL     1      26.078  46.771  52.619  1.00  0.00     0.010 A 
HETATM   12  C   UNL     1      26.541  47.391  53.792  1.00  0.00     0.055 A 
HETATM   13  C   UNL     1      27.379  46.668  54.612  1.00  0.00     0.065 A 
HETATM   14  C   UNL     1      27.755  45.359  54.329  1.00  0.00     0.063 A 
HETATM   15  N   UNL     1      27.980  47.034  55.813  1.00  0.00    -0.306 N 
HETATM   16  N   UNL     1      28.589  44.920  55.350  1.00  0.00    -0.307 N 
HETATM   17  C   UNL     1      27.303  44.701  53.215  1.00  0.00     0.034 A 
HETATM   18  C   UNL     1      28.737  45.953  56.286  1.00  0.00     0.325 A 
HETATM   19  H   UNL     1      29.019  44.014  55.442  1.00  0.00     0.170 HD
HETATM   20  O   UNL     1      29.392  45.918  57.312  1.00  0.00    -0.247 OA
HETATM   21  C   UNL     1      26.446  45.418  52.369  1.00  0.00     0.026 A 
HETATM   22  H   UNL     1      27.896  47.913  56.298  1.00  0.00     0.170 HD
ENDBRANCH   9  11
ENDBRANCH   8   9
ENDBRANCH   5   8
BRANCH   7  23
HETATM   23  O   UNL     1      21.654  50.080  48.816  1.00  0.00    -0.353 OA
HETATM   24  C   UNL     1      21.991  50.818  49.992  1.00  0.00     0.210 C 
ENDBRANCH   7  23
BRANCH   1  25
HETATM   25  O   UNL     1      20.253  47.801  47.751  1.00  0.00    -0.337 OA
BRANCH  25  26
HETATM   26  C   UNL     1      19.157  47.635  48.653  1.00  0.00     0.278 C 
BRANCH  26  27
HETATM   27  C   UNL     1      18.178  48.805  48.529  1.00  0.00     0.242 C 
HETATM   28  N   UNL     1      18.779  50.047  48.552  1.00  0.00    -0.351 N 
HETATM   29  H   UNL     1      19.793  50.037  48.477  1.00  0.00     0.163 HD
HETATM   30  O   UNL     1      16.966  48.625  48.459  1.00  0.00    -0.271 OA
BRANCH  28  31
HETATM   31  C   UNL     1      18.086  51.333  48.398  1.00  0.00     0.022 C 
HETATM   32  C   UNL     1      17.213  51.346  47.134  1.00  0.00     0.037 C 
HETATM   33  C   UNL     1      19.094  52.491  48.354  1.00  0.00     0.037 C 
HETATM   34  C   UNL     1      17.167  51.527  49.619  1.00  0.00     0.037 C 
ENDBRANCH  28  31
ENDBRANCH  26  27
ENDBRANCH  25  26
ENDBRANCH   1  25
TORSDOF 8
ENDMDL
MODEL 8
REMARK VINA RESULT:      -7.7      2.741      3.870
REMARK  8 active torsions:
REMARK  status: ('A' for Active; 'I' for Inactive)
REMARK    1  A    between atoms: C_2  and  N_3 
REMARK       I    between atoms: N_3  and  C_4 
REMARK    2  A    between atoms: C_4  and  C_5 
REMARK    3  A    between atoms: C_5  and  O_6 
REMARK    4  A    between atoms: O_6  and  C_7 
REMARK    5  A    between atoms: C_11  and  C_12 
REMARK    6  A    between atoms: C_12  and  N_13 
REMARK    7  A    between atoms: N_13  and  C_14 
REMARK    8  A    between atoms: C_25  and  O_26 
ROOT
HETATM    1  C   UNL     1      24.347  44.796  49.184  1.00  0.00     0.124 A 
HETATM    2  C   UNL     1      25.002  43.575  48.981  1.00  0.00     0.070 A 
HETATM    3 CL   UNL     1      24.381  42.404  47.869  1.00  0.00    -0.081 Cl
HETATM    4  C   UNL     1      26.189  43.278  49.661  1.00  0.00     0.035 A 
HETATM    5  C   UNL     1      26.733  44.190  50.577  1.00  0.00    -0.041 A 
HETATM    6  C   UNL     1      26.078  45.413  50.781  1.00  0.00     0.048 A 
HETATM    7  C   UNL     1      24.883  45.698  50.112  1.00  0.00     0.103 A 
ENDROOT
BRANCH   5   8
HETATM    8  C   UNL     1      28.016  43.871  51.308  1.00  0.00     0.131 C 
BRANCH   8   9
HETATM    9  N   UNL     1      27.698  43.277  52.597  1.00  0.00    -0.289 NA
HETATM   10  H   UNL     1      27.661  42.261  52.558  1.00  0.00     0.128 HD
BRANCH   9  11
HETATM   11  C   UNL     1      28.368  43.732  53.743  1.00  0.00     0.010 A 
HETATM   12  C   UNL     1      29.385  43.000  54.378  1.00  0.00     0.055 A 
HETATM   13  C   UNL     1      30.028  43.588  55.445  1.00  0.00     0.065 A 
HETATM   14  C   UNL     1      29.721  44.870  55.889  1.00  0.00     0.063 A 
HETATM   15  N   UNL     1      31.052  43.093  56.248  1.00  0.00    -0.306 N 
HETATM   16  N   UNL     1      30.549  45.164  56.964  1.00  0.00    -0.307 N 
HETATM   17  C   UNL     1      28.760  45.636  55.280  1.00  0.00     0.034 A 
HETATM   18  C   UNL     1      31.389  44.066  57.200  1.00  0.00     0.325 A 
HETATM   19  H   UNL     1      30.580  46.018  57.497  1.00  0.00     0.170 HD
HETATM   20  O   UNL     1      32.245  43.976  58.060  1.00  0.00    -0.247 OA
HETATM   21  C   UNL     1      28.097  45.057  54.189  1.00  0.00     0.026 A 
HETATM   22  H   UNL     1      31.508  42.198  56.177  1.00  0.00     0.170 HD
ENDBRANCH   9  11
ENDBRANCH   8   9
ENDBRANCH   5   8
BRANCH   7  23
HETATM   23  O   UNL     1      24.287  46.905  50.365  1.00  0.00    -0.353 OA
HETATM   24  C   UNL     1      24.890  47.927  49.568  1.00  0.00     0.210 C 
ENDBRANCH   7  23
BRANCH   1  25
HETATM   25  O   UNL     1      23.165  45.002  48.519  1.00  0.00    -0.337 OA
BRANCH  25  26
HETATM   26  C   UNL     1      22.009  44.521  49.208  1.00  0.00     0.278 C 
BRANCH  26  27
HETATM   27  C   UNL     1      20.734  45.088  48.579  1.00  0.00     0.242 C 
HETATM   28  N   UNL     1      20.369  46.328  49.064  1.00  0.00    -0.351 N 
HETATM   29  H   UNL     1      21.067  46.786  49.645  1.00  0.00     0.163 HD
HETATM   30  O   UNL     1      20.091  44.455  47.747  1.00  0.00    -0.271 OA
BRANCH  28  31
HETATM   31  C   UNL     1      19.225  47.122  48.599  1.00  0.00     0.022 C 
HETATM   32  C   UNL     1      17.985  46.239  48.384  1.00  0.00     0.037 C 
HETATM   33  C   UNL     1      19.573  47.867  47.301  1.00  0.00     0.037 C 
HETATM   34  C   UNL     1      18.893  48.160  49.687  1.00  0.00     0.037 C 
ENDBRANCH  28  31
ENDBRANCH  26  27
ENDBRANCH  25  26
ENDBRANCH   1  25
TORSDOF 8
ENDMDL
MODEL 9
REMARK VINA RESULT:      -7.5      3.625     11.282
REMARK  8 active torsions:
REMARK  status: ('A' for Active; 'I' for Inactive)
REMARK    1  A    between atoms: C_2  and  N_3 
REMARK       I    between atoms: N_3  and  C_4 
REMARK    2  A    between atoms: C_4  and  C_5 
REMARK    3  A    between atoms: C_5  and  O_6 
REMARK    4  A    between atoms: O_6  and  C_7 
REMARK    5  A    between atoms: C_11  and  C_12 
REMARK    6  A    between atoms: C_12  and  N_13 
REMARK    7  A    between atoms: N_13  and  C_14 
REMARK    8  A    between atoms: C_25  and  O_26 
ROOT
HETATM    1  C   UNL     1      22.445  48.692  48.504  1.00  0.00     0.124 A 
HETATM    2  C   UNL     1      22.948  49.984  48.305  1.00  0.00     0.070 A 
HETATM    3 CL   UNL     1      24.635  50.251  48.035  1.00  0.00    -0.081 Cl
HETATM    4  C   UNL     1      22.092  51.092  48.301  1.00  0.00     0.035 A 
HETATM    5  C   UNL     1      20.717  50.932  48.521  1.00  0.00    -0.041 A 
HETATM    6  C   UNL     1      20.212  49.638  48.719  1.00  0.00     0.048 A 
HETATM    7  C   UNL     1      21.072  48.536  48.739  1.00  0.00     0.103 A 
ENDROOT
BRANCH   5   8
HETATM    8  C   UNL     1      19.794  52.127  48.512  1.00  0.00     0.131 C 
BRANCH   8   9
HETATM    9  N   UNL     1      18.555  51.771  47.838  1.00  0.00    -0.289 NA
HETATM   10  H   UNL     1      18.522  50.787  47.582  1.00  0.00     0.128 HD
BRANCH   9  11
HETATM   11  C   UNL     1      17.335  52.215  48.369  1.00  0.00     0.010 A 
HETATM   12  C   UNL     1      17.216  52.780  49.650  1.00  0.00     0.055 A 
HETATM   13  C   UNL     1      15.981  53.258  50.029  1.00  0.00     0.065 A 
HETATM   14  C   UNL     1      14.874  53.218  49.187  1.00  0.00     0.063 A 
HETATM   15  N   UNL     1      15.587  53.852  51.224  1.00  0.00    -0.306 N 
HETATM   16  N   UNL     1      13.799  53.781  49.862  1.00  0.00    -0.307 N 
HETATM   17  C   UNL     1      14.948  52.707  47.917  1.00  0.00     0.034 A 
HETATM   18  C   UNL     1      14.227  54.186  51.134  1.00  0.00     0.325 A 
HETATM   19  H   UNL     1      12.860  53.909  49.520  1.00  0.00     0.170 HD
HETATM   20  O   UNL     1      13.553  54.724  51.993  1.00  0.00    -0.247 OA
HETATM   21  C   UNL     1      16.198  52.219  47.511  1.00  0.00     0.026 A 
HETATM   22  H   UNL     1      16.157  54.040  52.032  1.00  0.00     0.170 HD
ENDBRANCH   9  11
ENDBRANCH   8   9
ENDBRANCH   5   8
BRANCH   7  23
HETATM   23  O   UNL     1      20.517  47.302  48.950  1.00  0.00    -0.353 OA
HETATM   24  C   UNL     1      19.111  47.427  49.171  1.00  0.00     0.210 C 
ENDBRANCH   7  23
BRANCH   1  25
HETATM   25  O   UNL     1      23.344  47.657  48.540  1.00  0.00    -0.337 OA
BRANCH  25  26
HETATM   26  C   UNL     1      23.970  47.465  49.811  1.00  0.00     0.278 C 
BRANCH  26  27
HETATM   27  C   UNL     1      24.603  46.073  49.892  1.00  0.00     0.242 C 
HETATM   28  N   UNL     1      25.421  45.890  50.988  1.00  0.00    -0.351 N 
HETATM   29  H   UNL     1      25.375  46.625  51.689  1.00  0.00     0.163 HD
HETATM   30  O   UNL     1      24.413  45.229  49.021  1.00  0.00    -0.271 OA
BRANCH  28  31
HETATM   31  C   UNL     1      26.109  44.640  51.338  1.00  0.00     0.022 C 
HETATM   32  C   UNL     1      27.119  44.237  50.252  1.00  0.00     0.037 C 
HETATM   33  C   UNL     1      25.095  43.508  51.562  1.00  0.00     0.037 C 
HETATM   34  C   UNL     1      26.881  44.874  52.650  1.00  0.00     0.037 C 
ENDBRANCH  28  31
ENDBRANCH  26  27
ENDBRANCH  25  26
ENDBRANCH   1  25
TORSDOF 8
ENDMDL
MODEL 10
REMARK VINA RESULT:      -7.4      9.116     13.437
REMARK  8 active torsions:
REMARK  status: ('A' for Active; 'I' for Inactive)
REMARK    1  A    between atoms: C_2  and  N_3 
REMARK       I    between atoms: N_3  and  C_4 
REMARK    2  A    between atoms: C_4  and  C_5 
REMARK    3  A    between atoms: C_5  and  O_6 
REMARK    4  A    between atoms: O_6  and  C_7 
REMARK    5  A    between atoms: C_11  and  C_12 
REMARK    6  A    between atoms: C_12  and  N_13 
REMARK    7  A    between atoms: N_13  and  C_14 
REMARK    8  A    between atoms: C_25  and  O_26 
ROOT
HETATM    1  C   UNL     1      15.554  52.628  47.988  1.00  0.00     0.124 A 
HETATM    2  C   UNL     1      14.569  53.532  47.570  1.00  0.00     0.070 A 
HETATM    3 CL   UNL     1      14.205  53.739  45.892  1.00  0.00    -0.081 Cl
HETATM    4  C   UNL     1      13.842  54.279  48.503  1.00  0.00     0.035 A 
HETATM    5  C   UNL     1      14.101  54.153  49.875  1.00  0.00    -0.041 A 
HETATM    6  C   UNL     1      15.085  53.247  50.295  1.00  0.00     0.048 A 
HETATM    7  C   UNL     1      15.822  52.516  49.358  1.00  0.00     0.103 A 
ENDROOT
BRANCH   5   8
HETATM    8  C   UNL     1      13.312  54.956  50.882  1.00  0.00     0.131 C 
BRANCH   8   9
HETATM    9  N   UNL     1      13.754  54.609  52.224  1.00  0.00    -0.289 NA
HETATM   10  H   UNL     1      14.456  53.873  52.223  1.00  0.00     0.128 HD
BRANCH   9  11
HETATM   11  C   UNL     1      14.073  55.636  53.125  1.00  0.00     0.010 A 
HETATM   12  C   UNL     1      15.377  56.132  53.292  1.00  0.00     0.055 A 
HETATM   13  C   UNL     1      15.553  57.199  54.145  1.00  0.00     0.065 A 
HETATM   14  C   UNL     1      14.494  57.803  54.815  1.00  0.00     0.063 A 
HETATM   15  N   UNL     1      16.719  57.874  54.494  1.00  0.00    -0.306 N 
HETATM   16  N   UNL     1      15.005  58.845  55.579  1.00  0.00    -0.307 N 
HETATM   17  C   UNL     1      13.201  57.377  54.658  1.00  0.00     0.034 A 
HETATM   18  C   UNL     1      16.393  58.905  55.387  1.00  0.00     0.325 A 
HETATM   19  H   UNL     1      14.493  59.480  56.168  1.00  0.00     0.170 HD
HETATM   20  O   UNL     1      17.164  59.698  55.894  1.00  0.00    -0.247 OA
HETATM   21  C   UNL     1      13.000  56.293  53.791  1.00  0.00     0.026 A 
HETATM   22  H   UNL     1      17.654  57.691  54.169  1.00  0.00     0.170 HD
ENDBRANCH   9  11
ENDBRANCH   8   9
ENDBRANCH   5   8
BRANCH   7  23
HETATM   23  O   UNL     1      16.778  51.657  49.834  1.00  0.00    -0.353 OA
HETATM   24  C   UNL     1      18.035  52.328  49.935  1.00  0.00     0.210 C 
ENDBRANCH   7  23
BRANCH   1  25
HETATM   25  O   UNL     1      16.260  51.962  47.018  1.00  0.00    -0.337 OA
BRANCH  25  26
HETATM   26  C   UNL     1      15.752  50.662  46.708  1.00  0.00     0.278 C 
BRANCH  26  27
HETATM   27  C   UNL     1      16.759  49.582  47.113  1.00  0.00     0.242 C 
HETATM   28  N   UNL     1      18.036  50.057  47.331  1.00  0.00    -0.351 N 
HETATM   29  H   UNL     1      18.121  51.070  47.365  1.00  0.00     0.163 HD
HETATM   30  O   UNL     1      16.438  48.400  47.188  1.00  0.00    -0.271 OA
BRANCH  28  31
HETATM   31  C   UNL     1      19.180  49.252  47.779  1.00  0.00     0.022 C 
HETATM   32  C   UNL     1      20.461  50.097  47.854  1.00  0.00     0.037 C 
HETATM   33  C   UNL     1      19.396  48.050  46.847  1.00  0.00     0.037 C 
HETATM   34  C   UNL     1      18.868  48.726  49.192  1.00  0.00     0.037 C 
ENDBRANCH  28  31
ENDBRANCH  26  27
ENDBRANCH  25  26
ENDBRANCH   1  25
TORSDOF 8
ENDMDL
