MODEL 1
REMARK VINA RESULT:     -10.5      0.000      0.000
REMARK  7 active torsions:
REMARK  status: ('A' for Active; 'I' for Inactive)
REMARK    1  A    between atoms: C_2  and  O_3 
REMARK    2  A    between atoms: O_3  and  C_4 
REMARK    3  A    between atoms: C_5  and  O_6 
REMARK    4  A    between atoms: C_7  and  C_8 
REMARK    5  A    between atoms: N_9  and  N_10 
REMARK       I    between atoms: N_10  and  C_11 
REMARK    6  A    between atoms: C_11  and  C_12 
REMARK    7  A    between atoms: C_16  and  C_17 
ROOT
HETATM    1  C   UNL     1      24.627  46.849  50.426  1.00  0.00     0.121 A 
HETATM    2  N   UNL     1      24.034  45.630  50.608  1.00  0.00    -0.272 N 
HETATM    3  H   UNL     1      23.092  45.368  50.332  1.00  0.00     0.189 HD
HETATM    4  N   UNL     1      24.797  44.738  51.255  1.00  0.00    -0.174 NA
HETATM    5  C   UNL     1      25.953  45.377  51.484  1.00  0.00     0.090 A 
HETATM    6  C   UNL     1      25.893  46.702  50.956  1.00  0.00     0.071 A 
ENDROOT
BRANCH   1   7
HETATM    7  C   UNL     1      23.908  47.941  49.819  1.00  0.00     0.289 C 
HETATM    8  N   UNL     1      22.564  47.693  49.589  1.00  0.00    -0.242 N 
HETATM    9  H   UNL     1      22.159  46.800  49.840  1.00  0.00     0.192 HD
HETATM   10  O   UNL     1      24.484  48.981  49.509  1.00  0.00    -0.264 OA
BRANCH   8  11
HETATM   11  N   UNL     1      21.826  48.561  48.837  1.00  0.00    -0.183 NA
HETATM   12  C   UNL     1      20.950  49.256  49.491  1.00  0.00     0.153 C 
BRANCH  12  13
HETATM   13  C   UNL     1      20.027  50.181  48.805  1.00  0.00     0.019 A 
HETATM   14  C   UNL     1      19.029  49.681  47.967  1.00  0.00     0.110 A 
HETATM   15  C   UNL     1      18.180  50.548  47.263  1.00  0.00     0.102 A 
HETATM   16  C   UNL     1      18.326  51.927  47.424  1.00  0.00     0.040 A 
HETATM   17  C   UNL     1      19.319  52.432  48.270  1.00  0.00     0.004 A 
HETATM   18  C   UNL     1      20.170  51.563  48.957  1.00  0.00     0.016 A 
BRANCH  14  19
HETATM   19  O   UNL     1      18.869  48.328  47.804  1.00  0.00    -0.357 OA
HETATM   20  H   UNL     1      19.713  48.018  47.418  1.00  0.00     0.218 HD
ENDBRANCH  14  19
BRANCH  15  21
HETATM   21  O   UNL     1      17.258  49.925  46.461  1.00  0.00    -0.349 OA
BRANCH  21  22
HETATM   22  C   UNL     1      15.882  50.183  46.748  1.00  0.00     0.171 C 
HETATM   23  C   UNL     1      15.301  48.940  47.398  1.00  0.00     0.034 C 
ENDBRANCH  21  22
ENDBRANCH  15  21
ENDBRANCH  12  13
ENDBRANCH   8  11
ENDBRANCH   1   7
BRANCH   5  24
HETATM   24  C   UNL     1      27.060  44.769  52.234  1.00  0.00     0.005 A 
HETATM   25  C   UNL     1      27.522  45.283  53.484  1.00  0.00    -0.012 A 
HETATM   26  C   UNL     1      28.585  44.622  54.051  1.00  0.00    -0.012 A 
HETATM   27  C   UNL     1      27.039  46.383  54.241  1.00  0.00     0.013 A 
HETATM   28  C   UNL     1      29.180  44.975  55.248  1.00  0.00    -0.046 A 
HETATM   29  C   UNL     1      29.204  43.517  53.496  1.00  0.00    -0.046 A 
HETATM   30  C   UNL     1      28.726  46.055  55.991  1.00  0.00     0.008 A 
HETATM   31  C   UNL     1      30.310  44.058  55.560  1.00  0.00     0.044 A 
HETATM   32  C   UNL     1      27.635  46.756  55.463  1.00  0.00     0.001 A 
HETATM   33  C   UNL     1      30.320  43.054  54.366  1.00  0.00     0.044 A 
HETATM   34  C   UNL     1      28.782  42.984  52.290  1.00  0.00     0.009 A 
HETATM   35  C   UNL     1      27.702  43.632  51.669  1.00  0.00     0.015 A 
ENDBRANCH   5  24
TORSDOF 7
ENDMDL
MODEL 2
REMARK VINA RESULT:     -10.4      1.012      2.180
REMARK  7 active torsions:
REMARK  status: ('A' for Active; 'I' for Inactive)
REMARK    1  A    between atoms: C_2  and  O_3 
REMARK    2  A    between atoms: O_3  and  C_4 
REMARK    3  A    between atoms: C_5  and  O_6 
REMARK    4  A    between atoms: C_7  and  C_8 
REMARK    5  A    between atoms: N_9  and  N_10 
REMARK       I    between atoms: N_10  and  C_11 
REMARK    6  A    between atoms: C_11  and  C_12 
REMARK    7  A    between atoms: C_16  and  C_17 
ROOT
HETATM    1  C   UNL     1      24.596  46.215  50.844  1.00  0.00     0.121 A 
HETATM    2  N   UNL     1      24.223  45.053  51.460  1.00  0.00    -0.272 N 
HETATM    3  H   UNL     1      23.421  44.474  51.226  1.00  0.00     0.189 HD
HETATM    4  N   UNL     1      24.999  44.704  52.495  1.00  0.00    -0.174 NA
HETATM    5  C   UNL     1      25.944  45.653  52.551  1.00  0.00     0.090 A 
HETATM    6  C   UNL     1      25.738  46.611  51.513  1.00  0.00     0.071 A 
ENDROOT
BRANCH   1   7
HETATM    7  C   UNL     1      23.817  46.769  49.765  1.00  0.00     0.289 C 
HETATM    8  N   UNL     1      23.451  48.095  49.937  1.00  0.00    -0.242 N 
HETATM    9  H   UNL     1      23.727  48.597  50.771  1.00  0.00     0.192 HD
HETATM   10  O   UNL     1      23.489  46.078  48.803  1.00  0.00    -0.264 OA
BRANCH   8  11
HETATM   11  N   UNL     1      22.545  48.670  49.094  1.00  0.00    -0.183 NA
HETATM   12  C   UNL     1      21.713  49.493  49.650  1.00  0.00     0.153 C 
BRANCH  12  13
HETATM   13  C   UNL     1      20.629  50.135  48.882  1.00  0.00     0.019 A 
HETATM   14  C   UNL     1      19.765  49.360  48.107  1.00  0.00     0.110 A 
HETATM   15  C   UNL     1      18.766  49.959  47.326  1.00  0.00     0.102 A 
HETATM   16  C   UNL     1      18.624  51.348  47.346  1.00  0.00     0.040 A 
HETATM   17  C   UNL     1      19.481  52.127  48.130  1.00  0.00     0.004 A 
HETATM   18  C   UNL     1      20.483  51.526  48.893  1.00  0.00     0.016 A 
BRANCH  14  19
HETATM   19  O   UNL     1      19.889  47.993  48.082  1.00  0.00    -0.357 OA
HETATM   20  H   UNL     1      20.838  47.827  47.907  1.00  0.00     0.218 HD
ENDBRANCH  14  19
BRANCH  15  21
HETATM   21  O   UNL     1      18.002  49.082  46.598  1.00  0.00    -0.349 OA
BRANCH  21  22
HETATM   22  C   UNL     1      16.584  49.211  46.726  1.00  0.00     0.171 C 
HETATM   23  C   UNL     1      16.150  48.393  47.929  1.00  0.00     0.034 C 
ENDBRANCH  21  22
ENDBRANCH  15  21
ENDBRANCH  12  13
ENDBRANCH   8  11
ENDBRANCH   1   7
BRANCH   5  24
HETATM   24  C   UNL     1      26.978  45.683  53.595  1.00  0.00     0.005 A 
HETATM   25  C   UNL     1      28.007  44.698  53.690  1.00  0.00    -0.012 A 
HETATM   26  C   UNL     1      28.885  44.845  54.739  1.00  0.00    -0.012 A 
HETATM   27  C   UNL     1      28.269  43.581  52.853  1.00  0.00     0.013 A 
HETATM   28  C   UNL     1      29.938  43.989  55.005  1.00  0.00    -0.046 A 
HETATM   29  C   UNL     1      28.828  45.867  55.668  1.00  0.00    -0.046 A 
HETATM   30  C   UNL     1      30.196  42.888  54.203  1.00  0.00     0.008 A 
HETATM   31  C   UNL     1      30.676  44.432  56.219  1.00  0.00     0.044 A 
HETATM   32  C   UNL     1      29.338  42.700  53.112  1.00  0.00     0.001 A 
HETATM   33  C   UNL     1      29.922  45.723  56.667  1.00  0.00     0.044 A 
HETATM   34  C   UNL     1      27.849  46.844  55.605  1.00  0.00     0.009 A 
HETATM   35  C   UNL     1      26.925  46.731  54.555  1.00  0.00     0.015 A 
ENDBRANCH   5  24
TORSDOF 7
ENDMDL
MODEL 3
REMARK VINA RESULT:     -10.3      1.510      1.832
REMARK  7 active torsions:
REMARK  status: ('A' for Active; 'I' for Inactive)
REMARK    1  A    between atoms: C_2  and  O_3 
REMARK    2  A    between atoms: O_3  and  C_4 
REMARK    3  A    between atoms: C_5  and  O_6 
REMARK    4  A    between atoms: C_7  and  C_8 
REMARK    5  A    between atoms: N_9  and  N_10 
REMARK       I    between atoms: N_10  and  C_11 
REMARK    6  A    between atoms: C_11  and  C_12 
REMARK    7  A    between atoms: C_16  and  C_17 
ROOT
HETATM    1  C   UNL     1      25.317  45.151  50.188  1.00  0.00     0.121 A 
HETATM    2  N   UNL     1      26.213  44.473  49.409  1.00  0.00    -0.272 N 
HETATM    3  H   UNL     1      26.119  44.268  48.418  1.00  0.00     0.189 HD
HETATM    4  N   UNL     1      27.285  44.018  50.072  1.00  0.00    -0.174 NA
HETATM    5  C   UNL     1      27.112  44.438  51.333  1.00  0.00     0.090 A 
HETATM    6  C   UNL     1      25.895  45.174  51.442  1.00  0.00     0.071 A 
ENDROOT
BRANCH   1   7
HETATM    7  C   UNL     1      24.073  45.633  49.642  1.00  0.00     0.289 C 
HETATM    8  N   UNL     1      24.071  46.978  49.306  1.00  0.00    -0.242 N 
HETATM    9  H   UNL     1      24.899  47.542  49.452  1.00  0.00     0.192 HD
HETATM   10  O   UNL     1      23.100  44.890  49.534  1.00  0.00    -0.264 OA
BRANCH   8  11
HETATM   11  N   UNL     1      22.902  47.600  48.976  1.00  0.00    -0.183 NA
HETATM   12  C   UNL     1      22.807  48.838  49.348  1.00  0.00     0.153 C 
BRANCH  12  13
HETATM   13  C   UNL     1      21.575  49.620  49.130  1.00  0.00     0.019 A 
HETATM   14  C   UNL     1      20.327  49.006  49.241  1.00  0.00     0.110 A 
HETATM   15  C   UNL     1      19.148  49.720  48.980  1.00  0.00     0.102 A 
HETATM   16  C   UNL     1      19.230  51.069  48.628  1.00  0.00     0.040 A 
HETATM   17  C   UNL     1      20.478  51.690  48.526  1.00  0.00     0.004 A 
HETATM   18  C   UNL     1      21.649  50.969  48.772  1.00  0.00     0.016 A 
BRANCH  14  19
HETATM   19  O   UNL     1      20.230  47.682  49.592  1.00  0.00    -0.357 OA
HETATM   20  H   UNL     1      19.325  47.416  49.330  1.00  0.00     0.218 HD
ENDBRANCH  14  19
BRANCH  15  21
HETATM   21  O   UNL     1      17.993  48.990  49.107  1.00  0.00    -0.349 OA
BRANCH  21  22
HETATM   22  C   UNL     1      17.169  48.891  47.943  1.00  0.00     0.171 C 
HETATM   23  C   UNL     1      16.039  47.925  48.254  1.00  0.00     0.034 C 
ENDBRANCH  21  22
ENDBRANCH  15  21
ENDBRANCH  12  13
ENDBRANCH   8  11
ENDBRANCH   1   7
BRANCH   5  24
HETATM   24  C   UNL     1      28.046  44.099  52.416  1.00  0.00     0.005 A 
HETATM   25  C   UNL     1      28.169  44.883  53.603  1.00  0.00    -0.012 A 
HETATM   26  C   UNL     1      29.107  44.454  54.513  1.00  0.00    -0.012 A 
HETATM   27  C   UNL     1      27.459  46.049  53.992  1.00  0.00     0.013 A 
HETATM   28  C   UNL     1      29.381  45.085  55.712  1.00  0.00    -0.046 A 
HETATM   29  C   UNL     1      29.901  43.335  54.347  1.00  0.00    -0.046 A 
HETATM   30  C   UNL     1      28.704  46.231  56.099  1.00  0.00     0.008 A 
HETATM   31  C   UNL     1      30.458  44.365  56.446  1.00  0.00     0.044 A 
HETATM   32  C   UNL     1      27.728  46.704  55.212  1.00  0.00     0.001 A 
HETATM   33  C   UNL     1      30.807  43.162  55.516  1.00  0.00     0.044 A 
HETATM   34  C   UNL     1      29.806  42.545  53.214  1.00  0.00     0.009 A 
HETATM   35  C   UNL     1      28.867  42.949  52.252  1.00  0.00     0.015 A 
ENDBRANCH   5  24
TORSDOF 7
ENDMDL
MODEL 4
REMARK VINA RESULT:     -10.2      1.626      2.652
REMARK  7 active torsions:
REMARK  status: ('A' for Active; 'I' for Inactive)
REMARK    1  A    between atoms: C_2  and  O_3 
REMARK    2  A    between atoms: O_3  and  C_4 
REMARK    3  A    between atoms: C_5  and  O_6 
REMARK    4  A    between atoms: C_7  and  C_8 
REMARK    5  A    between atoms: N_9  and  N_10 
REMARK       I    between atoms: N_10  and  C_11 
REMARK    6  A    between atoms: C_11  and  C_12 
REMARK    7  A    between atoms: C_16  and  C_17 
ROOT
HETATM    1  C   UNL     1      24.785  45.912  50.938  1.00  0.00     0.121 A 
HETATM    2  N   UNL     1      24.564  44.672  51.470  1.00  0.00    -0.272 N 
HETATM    3  H   UNL     1      23.855  44.006  51.179  1.00  0.00     0.189 HD
HETATM    4  N   UNL     1      25.361  44.367  52.504  1.00  0.00    -0.174 NA
HETATM    5  C   UNL     1      26.164  45.431  52.644  1.00  0.00     0.090 A 
HETATM    6  C   UNL     1      25.847  46.416  51.661  1.00  0.00     0.071 A 
ENDROOT
BRANCH   1   7
HETATM    7  C   UNL     1      23.957  46.422  49.873  1.00  0.00     0.289 C 
HETATM    8  N   UNL     1      23.619  47.761  49.994  1.00  0.00    -0.242 N 
HETATM    9  H   UNL     1      23.945  48.300  50.785  1.00  0.00     0.192 HD
HETATM   10  O   UNL     1      23.570  45.688  48.966  1.00  0.00    -0.264 OA
BRANCH   8  11
HETATM   11  N   UNL     1      22.677  48.306  49.170  1.00  0.00    -0.183 NA
HETATM   12  C   UNL     1      21.927  49.215  49.708  1.00  0.00     0.153 C 
BRANCH  12  13
HETATM   13  C   UNL     1      20.817  49.843  48.966  1.00  0.00     0.019 A 
HETATM   14  C   UNL     1      19.599  50.087  49.601  1.00  0.00     0.110 A 
HETATM   15  C   UNL     1      18.515  50.629  48.895  1.00  0.00     0.102 A 
HETATM   16  C   UNL     1      18.671  50.949  47.545  1.00  0.00     0.040 A 
HETATM   17  C   UNL     1      19.893  50.715  46.907  1.00  0.00     0.004 A 
HETATM   18  C   UNL     1      20.964  50.161  47.613  1.00  0.00     0.016 A 
BRANCH  14  19
HETATM   19  O   UNL     1      19.433  49.784  50.930  1.00  0.00    -0.357 OA
HETATM   20  H   UNL     1      20.046  49.039  51.099  1.00  0.00     0.218 HD
ENDBRANCH  14  19
BRANCH  15  21
HETATM   21  O   UNL     1      17.373  50.798  49.636  1.00  0.00    -0.349 OA
BRANCH  21  22
HETATM   22  C   UNL     1      16.927  52.143  49.827  1.00  0.00     0.171 C 
HETATM   23  C   UNL     1      15.459  52.205  49.447  1.00  0.00     0.034 C 
ENDBRANCH  21  22
ENDBRANCH  15  21
ENDBRANCH  12  13
ENDBRANCH   8  11
ENDBRANCH   1   7
BRANCH   5  24
HETATM   24  C   UNL     1      27.163  45.535  53.716  1.00  0.00     0.005 A 
HETATM   25  C   UNL     1      28.241  44.608  53.860  1.00  0.00    -0.012 A 
HETATM   26  C   UNL     1      29.078  44.821  54.930  1.00  0.00    -0.012 A 
HETATM   27  C   UNL     1      28.585  43.492  53.052  1.00  0.00     0.013 A 
HETATM   28  C   UNL     1      30.166  44.027  55.243  1.00  0.00    -0.046 A 
HETATM   29  C   UNL     1      28.939  45.855  55.837  1.00  0.00    -0.046 A 
HETATM   30  C   UNL     1      30.507  42.928  54.470  1.00  0.00     0.008 A 
HETATM   31  C   UNL     1      30.843  44.532  56.468  1.00  0.00     0.044 A 
HETATM   32  C   UNL     1      29.692  42.675  53.359  1.00  0.00     0.001 A 
HETATM   33  C   UNL     1      30.009  45.787  56.870  1.00  0.00     0.044 A 
HETATM   34  C   UNL     1      27.912  46.777  55.728  1.00  0.00     0.009 A 
HETATM   35  C   UNL     1      27.026  46.596  54.653  1.00  0.00     0.015 A 
ENDBRANCH   5  24
TORSDOF 7
ENDMDL
MODEL 5
REMARK VINA RESULT:     -10.1      1.861      3.135
REMARK  7 active torsions:
REMARK  status: ('A' for Active; 'I' for Inactive)
REMARK    1  A    between atoms: C_2  and  O_3 
REMARK    2  A    between atoms: O_3  and  C_4 
REMARK    3  A    between atoms: C_5  and  O_6 
REMARK    4  A    between atoms: C_7  and  C_8 
REMARK    5  A    between atoms: N_9  and  N_10 
REMARK       I    between atoms: N_10  and  C_11 
REMARK    6  A    between atoms: C_11  and  C_12 
REMARK    7  A    between atoms: C_16  and  C_17 
ROOT
HETATM    1  C   UNL     1      25.827  44.501  51.236  1.00  0.00     0.121 A 
HETATM    2  N   UNL     1      26.907  44.262  50.432  1.00  0.00    -0.272 N 
HETATM    3  H   UNL     1      26.906  44.210  49.418  1.00  0.00     0.189 HD
HETATM    4  N   UNL     1      28.050  44.041  51.097  1.00  0.00    -0.174 NA
HETATM    5  C   UNL     1      27.725  44.170  52.391  1.00  0.00     0.090 A 
HETATM    6  C   UNL     1      26.338  44.483  52.519  1.00  0.00     0.071 A 
ENDROOT
BRANCH   1   7
HETATM    7  C   UNL     1      24.510  44.678  50.678  1.00  0.00     0.289 C 
HETATM    8  N   UNL     1      24.441  45.587  49.634  1.00  0.00    -0.242 N 
HETATM    9  H   UNL     1      25.273  46.070  49.322  1.00  0.00     0.192 HD
HETATM   10  O   UNL     1      23.542  44.080  51.142  1.00  0.00    -0.264 OA
BRANCH   8  11
HETATM   11  N   UNL     1      23.227  45.995  49.160  1.00  0.00    -0.183 NA
HETATM   12  C   UNL     1      23.159  47.240  48.806  1.00  0.00     0.153 C 
BRANCH  12  13
HETATM   13  C   UNL     1      21.895  47.846  48.346  1.00  0.00     0.019 A 
HETATM   14  C   UNL     1      21.404  48.998  48.963  1.00  0.00     0.110 A 
HETATM   15  C   UNL     1      20.176  49.553  48.577  1.00  0.00     0.102 A 
HETATM   16  C   UNL     1      19.450  48.956  47.545  1.00  0.00     0.040 A 
HETATM   17  C   UNL     1      19.943  47.807  46.917  1.00  0.00     0.004 A 
HETATM   18  C   UNL     1      21.160  47.250  47.317  1.00  0.00     0.016 A 
BRANCH  14  19
HETATM   19  O   UNL     1      22.110  49.600  49.975  1.00  0.00    -0.357 OA
HETATM   20  H   UNL     1      22.690  50.250  49.528  1.00  0.00     0.218 HD
ENDBRANCH  14  19
BRANCH  15  21
HETATM   21  O   UNL     1      19.804  50.672  49.279  1.00  0.00    -0.349 OA
BRANCH  21  22
HETATM   22  C   UNL     1      19.936  51.924  48.603  1.00  0.00     0.171 C 
HETATM   23  C   UNL     1      18.542  52.488  48.394  1.00  0.00     0.034 C 
ENDBRANCH  21  22
ENDBRANCH  15  21
ENDBRANCH  12  13
ENDBRANCH   8  11
ENDBRANCH   1   7
BRANCH   5  24
HETATM   24  C   UNL     1      28.689  43.945  53.477  1.00  0.00     0.005 A 
HETATM   25  C   UNL     1      28.745  44.768  54.642  1.00  0.00    -0.012 A 
HETATM   26  C   UNL     1      29.721  44.449  55.557  1.00  0.00    -0.012 A 
HETATM   27  C   UNL     1      27.933  45.875  55.006  1.00  0.00     0.013 A 
HETATM   28  C   UNL     1      29.941  45.133  56.739  1.00  0.00    -0.046 A 
HETATM   29  C   UNL     1      30.613  43.403  55.415  1.00  0.00    -0.046 A 
HETATM   30  C   UNL     1      29.163  46.223  57.100  1.00  0.00     0.008 A 
HETATM   31  C   UNL     1      31.081  44.533  57.484  1.00  0.00     0.044 A 
HETATM   32  C   UNL     1      28.146  46.582  56.207  1.00  0.00     0.001 A 
HETATM   33  C   UNL     1      31.534  43.343  56.583  1.00  0.00     0.044 A 
HETATM   34  C   UNL     1      30.586  42.579  54.303  1.00  0.00     0.009 A 
HETATM   35  C   UNL     1      29.610  42.871  53.337  1.00  0.00     0.015 A 
ENDBRANCH   5  24
TORSDOF 7
ENDMDL
MODEL 6
REMARK VINA RESULT:      -9.7      2.388      3.025
REMARK  7 active torsions:
REMARK  status: ('A' for Active; 'I' for Inactive)
REMARK    1  A    between atoms: C_2  and  O_3 
REMARK    2  A    between atoms: O_3  and  C_4 
REMARK    3  A    between atoms: C_5  and  O_6 
REMARK    4  A    between atoms: C_7  and  C_8 
REMARK    5  A    between atoms: N_9  and  N_10 
REMARK       I    between atoms: N_10  and  C_11 
REMARK    6  A    between atoms: C_11  and  C_12 
REMARK    7  A    between atoms: C_16  and  C_17 
ROOT
HETATM    1  C   UNL     1      25.222  44.328  50.801  1.00  0.00     0.121 A 
HETATM    2  N   UNL     1      26.297  44.580  49.994  1.00  0.00    -0.272 N 
HETATM    3  H   UNL     1      26.272  44.789  49.001  1.00  0.00     0.189 HD
HETATM    4  N   UNL     1      27.482  44.490  50.613  1.00  0.00    -0.174 NA
HETATM    5  C   UNL     1      27.183  44.199  51.887  1.00  0.00     0.090 A 
HETATM    6  C   UNL     1      25.768  44.111  52.050  1.00  0.00     0.071 A 
ENDROOT
BRANCH   1   7
HETATM    7  C   UNL     1      23.882  44.306  50.268  1.00  0.00     0.289 C 
HETATM    8  N   UNL     1      23.695  45.092  49.142  1.00  0.00    -0.242 N 
HETATM    9  H   UNL     1      24.463  45.627  48.758  1.00  0.00     0.192 HD
HETATM   10  O   UNL     1      22.994  43.659  50.818  1.00  0.00    -0.264 OA
BRANCH   8  11
HETATM   11  N   UNL     1      22.435  45.319  48.667  1.00  0.00    -0.183 NA
HETATM   12  C   UNL     1      22.348  46.196  47.718  1.00  0.00     0.153 C 
BRANCH  12  13
HETATM   13  C   UNL     1      21.046  46.603  47.155  1.00  0.00     0.019 A 
HETATM   14  C   UNL     1      20.087  47.203  47.972  1.00  0.00     0.110 A 
HETATM   15  C   UNL     1      18.823  47.543  47.467  1.00  0.00     0.102 A 
HETATM   16  C   UNL     1      18.535  47.296  46.124  1.00  0.00     0.040 A 
HETATM   17  C   UNL     1      19.497  46.704  45.299  1.00  0.00     0.004 A 
HETATM   18  C   UNL     1      20.748  46.354  45.812  1.00  0.00     0.016 A 
BRANCH  14  19
HETATM   19  O   UNL     1      20.358  47.459  49.293  1.00  0.00    -0.357 OA
HETATM   20  H   UNL     1      19.970  46.705  49.782  1.00  0.00     0.218 HD
ENDBRANCH  14  19
BRANCH  15  21
HETATM   21  O   UNL     1      17.971  48.108  48.383  1.00  0.00    -0.349 OA
BRANCH  21  22
HETATM   22  C   UNL     1      16.653  47.560  48.451  1.00  0.00     0.171 C 
HETATM   23  C   UNL     1      15.673  48.661  48.088  1.00  0.00     0.034 C 
ENDBRANCH  21  22
ENDBRANCH  15  21
ENDBRANCH  12  13
ENDBRANCH   8  11
ENDBRANCH   1   7
BRANCH   5  24
HETATM   24  C   UNL     1      28.212  43.953  52.907  1.00  0.00     0.005 A 
HETATM   25  C   UNL     1      28.359  44.771  54.068  1.00  0.00    -0.012 A 
HETATM   26  C   UNL     1      29.387  44.431  54.917  1.00  0.00    -0.012 A 
HETATM   27  C   UNL     1      27.594  45.890  54.487  1.00  0.00     0.013 A 
HETATM   28  C   UNL     1      29.697  45.107  56.083  1.00  0.00    -0.046 A 
HETATM   29  C   UNL     1      30.249  43.369  54.714  1.00  0.00    -0.046 A 
HETATM   30  C   UNL     1      28.964  46.209  56.497  1.00  0.00     0.008 A 
HETATM   31  C   UNL     1      30.872  44.483  56.750  1.00  0.00     0.044 A 
HETATM   32  C   UNL     1      27.897  46.589  55.673  1.00  0.00     0.001 A 
HETATM   33  C   UNL     1      31.244  43.289  55.819  1.00  0.00     0.044 A 
HETATM   34  C   UNL     1      30.135  42.550  53.604  1.00  0.00     0.009 A 
HETATM   35  C   UNL     1      29.103  42.863  52.704  1.00  0.00     0.015 A 
ENDBRANCH   5  24
TORSDOF 7
ENDMDL
MODEL 7
REMARK VINA RESULT:      -9.7      2.004      3.689
REMARK  7 active torsions:
REMARK  status: ('A' for Active; 'I' for Inactive)
REMARK    1  A    between atoms: C_2  and  O_3 
REMARK    2  A    between atoms: O_3  and  C_4 
REMARK    3  A    between atoms: C_5  and  O_6 
REMARK    4  A    between atoms: C_7  and  C_8 
REMARK    5  A    between atoms: N_9  and  N_10 
REMARK       I    between atoms: N_10  and  C_11 
REMARK    6  A    between atoms: C_11  and  C_12 
REMARK    7  A    between atoms: C_16  and  C_17 
ROOT
HETATM    1  C   UNL     1      25.587  45.988  52.531  1.00  0.00     0.121 A 
HETATM    2  N   UNL     1      25.901  47.271  52.883  1.00  0.00    -0.272 N 
HETATM    3  H   UNL     1      25.524  48.120  52.474  1.00  0.00     0.189 HD
HETATM    4  N   UNL     1      26.835  47.366  53.840  1.00  0.00    -0.174 NA
HETATM    5  C   UNL     1      27.130  46.098  54.159  1.00  0.00     0.090 A 
HETATM    6  C   UNL     1      26.348  45.201  53.373  1.00  0.00     0.071 A 
ENDROOT
BRANCH   1   7
HETATM    7  C   UNL     1      24.660  45.716  51.461  1.00  0.00     0.289 C 
HETATM    8  N   UNL     1      24.597  46.700  50.487  1.00  0.00    -0.242 N 
HETATM    9  H   UNL     1      25.171  47.530  50.561  1.00  0.00     0.192 HD
HETATM   10  O   UNL     1      23.970  44.700  51.465  1.00  0.00    -0.264 OA
BRANCH   8  11
HETATM   11  N   UNL     1      23.617  46.662  49.537  1.00  0.00    -0.183 NA
HETATM   12  C   UNL     1      22.975  47.774  49.356  1.00  0.00     0.153 C 
BRANCH  12  13
HETATM   13  C   UNL     1      21.840  47.868  48.418  1.00  0.00     0.019 A 
HETATM   14  C   UNL     1      20.825  48.800  48.639  1.00  0.00     0.110 A 
HETATM   15  C   UNL     1      19.711  48.864  47.790  1.00  0.00     0.102 A 
HETATM   16  C   UNL     1      19.633  47.997  46.698  1.00  0.00     0.040 A 
HETATM   17  C   UNL     1      20.653  47.069  46.468  1.00  0.00     0.004 A 
HETATM   18  C   UNL     1      21.753  47.000  47.326  1.00  0.00     0.016 A 
BRANCH  14  19
HETATM   19  O   UNL     1      20.891  49.663  49.705  1.00  0.00    -0.357 OA
HETATM   20  H   UNL     1      20.518  49.164  50.459  1.00  0.00     0.218 HD
ENDBRANCH  14  19
BRANCH  15  21
HETATM   21  O   UNL     1      18.779  49.812  48.134  1.00  0.00    -0.349 OA
BRANCH  21  22
HETATM   22  C   UNL     1      18.763  51.007  47.350  1.00  0.00     0.171 C 
HETATM   23  C   UNL     1      18.978  52.181  48.288  1.00  0.00     0.034 C 
ENDBRANCH  21  22
ENDBRANCH  15  21
ENDBRANCH  12  13
ENDBRANCH   8  11
ENDBRANCH   1   7
BRANCH   5  24
HETATM   24  C   UNL     1      28.167  45.748  55.141  1.00  0.00     0.005 A 
HETATM   25  C   UNL     1      29.111  44.699  54.925  1.00  0.00    -0.012 A 
HETATM   26  C   UNL     1      30.002  44.473  55.948  1.00  0.00    -0.012 A 
HETATM   27  C   UNL     1      29.276  43.850  53.799  1.00  0.00     0.013 A 
HETATM   28  C   UNL     1      30.982  43.497  55.932  1.00  0.00    -0.046 A 
HETATM   29  C   UNL     1      30.033  45.190  57.129  1.00  0.00    -0.046 A 
HETATM   30  C   UNL     1      31.145  42.653  54.845  1.00  0.00     0.008 A 
HETATM   31  C   UNL     1      31.758  43.518  57.202  1.00  0.00     0.044 A 
HETATM   32  C   UNL     1      30.270  42.851  53.769  1.00  0.00     0.001 A 
HETATM   33  C   UNL     1      31.116  44.682  58.017  1.00  0.00     0.044 A 
HETATM   34  C   UNL     1      29.139  46.218  57.373  1.00  0.00     0.009 A 
HETATM   35  C   UNL     1      28.204  46.481  56.359  1.00  0.00     0.015 A 
ENDBRANCH   5  24
TORSDOF 7
ENDMDL
MODEL 8
REMARK VINA RESULT:      -9.4      2.960      3.565
REMARK  7 active torsions:
REMARK  status: ('A' for Active; 'I' for Inactive)
REMARK    1  A    between atoms: C_2  and  O_3 
REMARK    2  A    between atoms: O_3  and  C_4 
REMARK    3  A    between atoms: C_5  and  O_6 
REMARK    4  A    between atoms: C_7  and  C_8 
REMARK    5  A    between atoms: N_9  and  N_10 
REMARK       I    between atoms: N_10  and  C_11 
REMARK    6  A    between atoms: C_11  and  C_12 
REMARK    7  A    between atoms: C_16  and  C_17 
ROOT
HETATM    1  C   UNL     1      24.868  43.961  50.791  1.00  0.00     0.121 A 
HETATM    2  N   UNL     1      25.850  44.505  50.011  1.00  0.00    -0.272 N 
HETATM    3  H   UNL     1      25.749  44.837  49.056  1.00  0.00     0.189 HD
HETATM    4  N   UNL     1      27.056  44.545  50.592  1.00  0.00    -0.174 NA
HETATM    5  C   UNL     1      26.863  44.038  51.819  1.00  0.00     0.090 A 
HETATM    6  C   UNL     1      25.492  43.680  51.990  1.00  0.00     0.071 A 
ENDROOT
BRANCH   1   7
HETATM    7  C   UNL     1      23.532  43.773  50.281  1.00  0.00     0.289 C 
HETATM    8  N   UNL     1      23.095  44.769  49.422  1.00  0.00    -0.242 N 
HETATM    9  H   UNL     1      23.696  45.552  49.200  1.00  0.00     0.192 HD
HETATM   10  O   UNL     1      22.852  42.812  50.633  1.00  0.00    -0.264 OA
BRANCH   8  11
HETATM   11  N   UNL     1      21.786  44.816  49.038  1.00  0.00    -0.183 NA
HETATM   12  C   UNL     1      21.382  45.958  48.578  1.00  0.00     0.153 C 
BRANCH  12  13
HETATM   13  C   UNL     1      19.976  46.184  48.194  1.00  0.00     0.019 A 
HETATM   14  C   UNL     1      19.266  45.192  47.517  1.00  0.00     0.110 A 
HETATM   15  C   UNL     1      17.947  45.413  47.093  1.00  0.00     0.102 A 
HETATM   16  C   UNL     1      17.334  46.635  47.376  1.00  0.00     0.040 A 
HETATM   17  C   UNL     1      18.039  47.628  48.064  1.00  0.00     0.004 A 
HETATM   18  C   UNL     1      19.357  47.407  48.469  1.00  0.00     0.016 A 
BRANCH  14  19
HETATM   19  O   UNL     1      19.853  43.983  47.237  1.00  0.00    -0.357 OA
HETATM   20  H   UNL     1      20.172  44.063  46.315  1.00  0.00     0.218 HD
ENDBRANCH  14  19
BRANCH  15  21
HETATM   21  O   UNL     1      17.375  44.362  46.422  1.00  0.00    -0.349 OA
BRANCH  21  22
HETATM   22  C   UNL     1      16.869  44.638  45.114  1.00  0.00     0.171 C 
HETATM   23  C   UNL     1      17.485  43.636  44.155  1.00  0.00     0.034 C 
ENDBRANCH  21  22
ENDBRANCH  15  21
ENDBRANCH  12  13
ENDBRANCH   8  11
ENDBRANCH   1   7
BRANCH   5  24
HETATM   24  C   UNL     1      27.959  43.845  52.778  1.00  0.00     0.005 A 
HETATM   25  C   UNL     1      28.155  44.697  53.908  1.00  0.00    -0.012 A 
HETATM   26  C   UNL     1      29.242  44.406  54.699  1.00  0.00    -0.012 A 
HETATM   27  C   UNL     1      27.387  45.808  54.345  1.00  0.00     0.013 A 
HETATM   28  C   UNL     1      29.604  45.120  55.826  1.00  0.00    -0.046 A 
HETATM   29  C   UNL     1      30.118  43.361  54.469  1.00  0.00    -0.046 A 
HETATM   30  C   UNL     1      28.870  46.214  56.257  1.00  0.00     0.008 A 
HETATM   31  C   UNL     1      30.834  44.544  56.435  1.00  0.00     0.044 A 
HETATM   32  C   UNL     1      27.744  46.545  55.492  1.00  0.00     0.001 A 
HETATM   33  C   UNL     1      31.181  43.335  55.512  1.00  0.00     0.044 A 
HETATM   34  C   UNL     1      29.957  42.510  53.389  1.00  0.00     0.009 A 
HETATM   35  C   UNL     1      28.865  42.773  52.548  1.00  0.00     0.015 A 
ENDBRANCH   5  24
TORSDOF 7
ENDMDL
MODEL 9
REMARK VINA RESULT:      -9.2      2.013      2.588
REMARK  7 active torsions:
REMARK  status: ('A' for Active; 'I' for Inactive)
REMARK    1  A    between atoms: C_2  and  O_3 
REMARK    2  A    between atoms: O_3  and  C_4 
REMARK    3  A    between atoms: C_5  and  O_6 
REMARK    4  A    between atoms: C_7  and  C_8 
REMARK    5  A    between atoms: N_9  and  N_10 
REMARK       I    between atoms: N_10  and  C_11 
REMARK    6  A    between atoms: C_11  and  C_12 
REMARK    7  A    between atoms: C_16  and  C_17 
ROOT
HETATM    1  C   UNL     1      24.732  47.724  49.874  1.00  0.00     0.121 A 
HETATM    2  N   UNL     1      26.059  48.039  49.778  1.00  0.00    -0.272 N 
HETATM    3  H   UNL     1      26.449  48.934  49.496  1.00  0.00     0.189 HD
HETATM    4  N   UNL     1      26.887  47.022  50.053  1.00  0.00    -0.174 NA
HETATM    5  C   UNL     1      26.081  46.001  50.377  1.00  0.00     0.090 A 
HETATM    6  C   UNL     1      24.717  46.410  50.298  1.00  0.00     0.071 A 
ENDROOT
BRANCH   1   7
HETATM    7  C   UNL     1      23.713  48.685  49.532  1.00  0.00     0.289 C 
HETATM    8  N   UNL     1      22.415  48.206  49.615  1.00  0.00    -0.242 N 
HETATM    9  H   UNL     1      22.240  47.250  49.895  1.00  0.00     0.192 HD
HETATM   10  O   UNL     1      24.011  49.819  49.163  1.00  0.00    -0.264 OA
BRANCH   8  11
HETATM   11  N   UNL     1      21.379  48.946  49.122  1.00  0.00    -0.183 NA
HETATM   12  C   UNL     1      21.206  50.102  49.681  1.00  0.00     0.153 C 
BRANCH  12  13
HETATM   13  C   UNL     1      20.082  50.982  49.307  1.00  0.00     0.019 A 
HETATM   14  C   UNL     1      18.842  50.840  49.931  1.00  0.00     0.110 A 
HETATM   15  C   UNL     1      17.749  51.630  49.547  1.00  0.00     0.102 A 
HETATM   16  C   UNL     1      17.915  52.585  48.543  1.00  0.00     0.040 A 
HETATM   17  C   UNL     1      19.158  52.738  47.922  1.00  0.00     0.004 A 
HETATM   18  C   UNL     1      20.239  51.938  48.298  1.00  0.00     0.016 A 
BRANCH  14  19
HETATM   19  O   UNL     1      18.666  49.909  50.925  1.00  0.00    -0.357 OA
HETATM   20  H   UNL     1      18.201  50.388  51.641  1.00  0.00     0.218 HD
ENDBRANCH  14  19
BRANCH  15  21
HETATM   21  O   UNL     1      16.586  51.372  50.229  1.00  0.00    -0.349 OA
BRANCH  21  22
HETATM   22  C   UNL     1      15.373  51.809  49.612  1.00  0.00     0.171 C 
HETATM   23  C   UNL     1      14.697  52.787  50.556  1.00  0.00     0.034 C 
ENDBRANCH  21  22
ENDBRANCH  15  21
ENDBRANCH  12  13
ENDBRANCH   8  11
ENDBRANCH   1   7
BRANCH   5  24
HETATM   24  C   UNL     1      26.590  44.659  50.694  1.00  0.00     0.005 A 
HETATM   25  C   UNL     1      27.128  44.320  51.972  1.00  0.00    -0.012 A 
HETATM   26  C   UNL     1      27.591  43.032  52.107  1.00  0.00    -0.012 A 
HETATM   27  C   UNL     1      27.253  45.118  53.140  1.00  0.00     0.013 A 
HETATM   28  C   UNL     1      28.156  42.519  53.261  1.00  0.00    -0.046 A 
HETATM   29  C   UNL     1      27.555  42.080  51.106  1.00  0.00    -0.046 A 
HETATM   30  C   UNL     1      28.295  43.291  54.404  1.00  0.00     0.008 A 
HETATM   31  C   UNL     1      28.559  41.101  53.057  1.00  0.00     0.044 A 
HETATM   32  C   UNL     1      27.827  44.609  54.323  1.00  0.00     0.001 A 
HETATM   33  C   UNL     1      28.139  40.797  51.586  1.00  0.00     0.044 A 
HETATM   34  C   UNL     1      27.035  42.368  49.855  1.00  0.00     0.009 A 
HETATM   35  C   UNL     1      26.557  43.675  49.667  1.00  0.00     0.015 A 
ENDBRANCH   5  24
TORSDOF 7
ENDMDL
MODEL 10
REMARK VINA RESULT:      -9.1      2.304     11.578
REMARK  7 active torsions:
REMARK  status: ('A' for Active; 'I' for Inactive)
REMARK    1  A    between atoms: C_2  and  O_3 
REMARK    2  A    between atoms: O_3  and  C_4 
REMARK    3  A    between atoms: C_5  and  O_6 
REMARK    4  A    between atoms: C_7  and  C_8 
REMARK    5  A    between atoms: N_9  and  N_10 
REMARK       I    between atoms: N_10  and  C_11 
REMARK    6  A    between atoms: C_11  and  C_12 
REMARK    7  A    between atoms: C_16  and  C_17 
ROOT
HETATM    1  C   UNL     1      22.807  47.824  49.213  1.00  0.00     0.121 A 
HETATM    2  N   UNL     1      22.030  46.733  48.940  1.00  0.00    -0.272 N 
HETATM    3  H   UNL     1      22.270  45.761  49.114  1.00  0.00     0.189 HD
HETATM    4  N   UNL     1      20.863  47.022  48.348  1.00  0.00    -0.174 NA
HETATM    5  C   UNL     1      20.849  48.360  48.252  1.00  0.00     0.090 A 
HETATM    6  C   UNL     1      22.046  48.903  48.807  1.00  0.00     0.071 A 
ENDROOT
BRANCH   1   7
HETATM    7  C   UNL     1      24.127  47.676  49.775  1.00  0.00     0.289 C 
HETATM    8  N   UNL     1      24.332  46.490  50.464  1.00  0.00    -0.242 N 
HETATM    9  H   UNL     1      23.586  45.812  50.546  1.00  0.00     0.192 HD
HETATM   10  O   UNL     1      24.965  48.567  49.664  1.00  0.00    -0.264 OA
BRANCH   8  11
HETATM   11  N   UNL     1      25.460  46.320  51.213  1.00  0.00    -0.183 NA
HETATM   12  C   UNL     1      25.301  46.442  52.493  1.00  0.00     0.153 C 
BRANCH  12  13
HETATM   13  C   UNL     1      26.440  46.360  53.427  1.00  0.00     0.019 A 
HETATM   14  C   UNL     1      27.064  45.135  53.665  1.00  0.00     0.110 A 
HETATM   15  C   UNL     1      28.111  45.028  54.592  1.00  0.00     0.102 A 
HETATM   16  C   UNL     1      28.546  46.171  55.266  1.00  0.00     0.040 A 
HETATM   17  C   UNL     1      27.930  47.403  55.022  1.00  0.00     0.004 A 
HETATM   18  C   UNL     1      26.878  47.499  54.109  1.00  0.00     0.016 A 
BRANCH  14  19
HETATM   19  O   UNL     1      26.652  44.003  53.006  1.00  0.00    -0.357 OA
HETATM   20  H   UNL     1      25.895  43.667  53.528  1.00  0.00     0.218 HD
ENDBRANCH  14  19
BRANCH  15  21
HETATM   21  O   UNL     1      28.619  43.763  54.744  1.00  0.00    -0.349 OA
BRANCH  21  22
HETATM   22  C   UNL     1      29.974  43.565  54.333  1.00  0.00     0.171 C 
HETATM   23  C   UNL     1      30.797  43.269  55.574  1.00  0.00     0.034 C 
ENDBRANCH  21  22
ENDBRANCH  15  21
ENDBRANCH  12  13
ENDBRANCH   8  11
ENDBRANCH   1   7
BRANCH   5  24
HETATM   24  C   UNL     1      19.758  49.096  47.600  1.00  0.00     0.005 A 
HETATM   25  C   UNL     1      19.164  50.262  48.171  1.00  0.00    -0.012 A 
HETATM   26  C   UNL     1      18.133  50.825  47.455  1.00  0.00    -0.012 A 
HETATM   27  C   UNL     1      19.484  50.940  49.377  1.00  0.00     0.013 A 
HETATM   28  C   UNL     1      17.426  51.946  47.848  1.00  0.00    -0.046 A 
HETATM   29  C   UNL     1      17.666  50.340  46.248  1.00  0.00    -0.046 A 
HETATM   30  C   UNL     1      17.721  52.610  49.029  1.00  0.00     0.008 A 
HETATM   31  C   UNL     1      16.373  52.275  46.849  1.00  0.00     0.044 A 
HETATM   32  C   UNL     1      18.772  52.084  49.791  1.00  0.00     0.001 A 
HETATM   33  C   UNL     1      16.543  51.182  45.750  1.00  0.00     0.044 A 
HETATM   34  C   UNL     1      18.219  49.216  45.658  1.00  0.00     0.009 A 
HETATM   35  C   UNL     1      19.271  48.603  46.358  1.00  0.00     0.015 A 
ENDBRANCH   5  24
TORSDOF 7
ENDMDL
