MODEL 1
REMARK VINA RESULT:      -9.6      0.000      0.000
REMARK  5 active torsions:
REMARK  status: ('A' for Active; 'I' for Inactive)
REMARK    1  A    between atoms: C_2  and  C_3 
REMARK    2  A    between atoms: C_5  and  C_6 
REMARK    3  A    between atoms: C_6  and  C_7 
REMARK       I    between atoms: C_7  and  N_8 
REMARK    4  A    between atoms: N_8  and  C_9 
REMARK    5  A    between atoms: C_16  and  C_17 
REMARK       I    between atoms: C_17  and  N_18 
ROOT
HETATM    1  C   UNL     1      26.018  47.604  50.442  1.00  0.00     0.035 A 
HETATM    2  C   UNL     1      24.691  47.792  50.021  1.00  0.00     0.046 A 
HETATM    3  C   UNL     1      24.404  48.729  49.008  1.00  0.00     0.030 A 
HETATM    4  C   UNL     1      25.449  49.456  48.456  1.00  0.00     0.063 A 
HETATM    5  N   UNL     1      24.868  50.284  47.535  1.00  0.00    -0.277 N 
HETATM    6  H   UNL     1      25.331  50.967  46.948  1.00  0.00     0.189 HD
HETATM    7  N   UNL     1      23.535  50.144  47.426  1.00  0.00    -0.168 NA
HETATM    8  C   UNL     1      23.236  49.183  48.329  1.00  0.00     0.156 A 
HETATM    9  C   UNL     1      26.779  49.291  48.846  1.00  0.00     0.034 A 
HETATM   10  C   UNL     1      27.042  48.345  49.847  1.00  0.00     0.032 A 
ENDROOT
BRANCH   1  11
HETATM   11  N   UNL     1      26.224  46.699  51.501  1.00  0.00    -0.327 N 
HETATM   12  C   UNL     1      25.810  46.834  52.817  1.00  0.00     0.226 C 
HETATM   13  O   UNL     1      25.382  47.856  53.345  1.00  0.00    -0.273 OA
HETATM   14  H   UNL     1      26.662  45.820  51.253  1.00  0.00     0.169 HD
BRANCH  12  15
HETATM   15  C   UNL     1      25.919  45.533  53.601  1.00  0.00     0.141 C 
BRANCH  15  16
HETATM   16  C   UNL     1      27.219  45.429  54.369  1.00  0.00    -0.049 A 
HETATM   17  C   UNL     1      28.076  44.335  54.171  1.00  0.00     0.014 A 
HETATM   18  C   UNL     1      29.298  44.241  54.849  1.00  0.00    -0.058 A 
HETATM   19  C   UNL     1      29.652  45.250  55.752  1.00  0.00     0.007 A 
HETATM   20  C   UNL     1      28.795  46.326  55.977  1.00  0.00     0.001 A 
HETATM   21  C   UNL     1      27.582  46.417  55.293  1.00  0.00     0.007 A 
BRANCH  18  22
HETATM   22  C   UNL     1      30.233  43.089  54.576  1.00  0.00     0.034 C 
HETATM   23  C   UNL     1      30.225  42.690  53.107  1.00  0.00     0.010 C 
ENDBRANCH  18  22
ENDBRANCH  15  16
ENDBRANCH  12  15
ENDBRANCH   1  11
BRANCH   8  24
HETATM   24  C   UNL     1      21.857  48.714  48.523  1.00  0.00     0.270 C 
HETATM   25  N   UNL     1      21.245  49.224  49.634  1.00  0.00    -0.365 N 
HETATM   26  H   UNL     1      21.760  49.873  50.217  1.00  0.00     0.159 HD
HETATM   27  H   UNL     1      20.289  48.977  49.840  1.00  0.00     0.159 HD
HETATM   28  O   UNL     1      21.275  47.939  47.770  1.00  0.00    -0.266 OA
ENDBRANCH   8  24
TORSDOF 5
ENDMDL
MODEL 2
REMARK VINA RESULT:      -9.3      0.745      1.611
REMARK  5 active torsions:
REMARK  status: ('A' for Active; 'I' for Inactive)
REMARK    1  A    between atoms: C_2  and  C_3 
REMARK    2  A    between atoms: C_5  and  C_6 
REMARK    3  A    between atoms: C_6  and  C_7 
REMARK       I    between atoms: C_7  and  N_8 
REMARK    4  A    between atoms: N_8  and  C_9 
REMARK    5  A    between atoms: C_16  and  C_17 
REMARK       I    between atoms: C_17  and  N_18 
ROOT
HETATM    1  C   UNL     1      25.929  47.385  50.415  1.00  0.00     0.035 A 
HETATM    2  C   UNL     1      24.620  47.603  49.953  1.00  0.00     0.046 A 
HETATM    3  C   UNL     1      24.374  48.613  49.000  1.00  0.00     0.030 A 
HETATM    4  C   UNL     1      25.439  49.377  48.547  1.00  0.00     0.063 A 
HETATM    5  N   UNL     1      24.896  50.270  47.665  1.00  0.00    -0.277 N 
HETATM    6  H   UNL     1      25.381  50.994  47.150  1.00  0.00     0.189 HD
HETATM    7  N   UNL     1      23.569  50.139  47.490  1.00  0.00    -0.168 NA
HETATM    8  C   UNL     1      23.234  49.115  48.306  1.00  0.00     0.156 A 
HETATM    9  C   UNL     1      26.752  49.184  48.980  1.00  0.00     0.034 A 
HETATM   10  C   UNL     1      26.975  48.167  49.919  1.00  0.00     0.032 A 
ENDROOT
BRANCH   1  11
HETATM   11  N   UNL     1      26.092  46.405  51.413  1.00  0.00    -0.327 N 
HETATM   12  C   UNL     1      25.952  46.567  52.783  1.00  0.00     0.226 C 
HETATM   13  O   UNL     1      25.876  47.632  53.387  1.00  0.00    -0.273 OA
HETATM   14  H   UNL     1      26.260  45.462  51.084  1.00  0.00     0.169 HD
BRANCH  12  15
HETATM   15  C   UNL     1      25.883  45.238  53.525  1.00  0.00     0.141 C 
BRANCH  15  16
HETATM   16  C   UNL     1      27.238  44.578  53.656  1.00  0.00    -0.049 A 
HETATM   17  C   UNL     1      28.117  44.959  54.683  1.00  0.00     0.014 A 
HETATM   18  C   UNL     1      29.361  44.335  54.839  1.00  0.00    -0.058 A 
HETATM   19  C   UNL     1      29.733  43.330  53.939  1.00  0.00     0.007 A 
HETATM   20  C   UNL     1      28.880  42.964  52.898  1.00  0.00     0.001 A 
HETATM   21  C   UNL     1      27.639  43.586  52.753  1.00  0.00     0.007 A 
BRANCH  18  22
HETATM   22  C   UNL     1      30.265  44.714  55.985  1.00  0.00     0.034 C 
HETATM   23  C   UNL     1      31.181  43.567  56.387  1.00  0.00     0.010 C 
ENDBRANCH  18  22
ENDBRANCH  15  16
ENDBRANCH  12  15
ENDBRANCH   1  11
BRANCH   8  24
HETATM   24  C   UNL     1      21.850  48.634  48.407  1.00  0.00     0.270 C 
HETATM   25  N   UNL     1      21.277  48.833  49.632  1.00  0.00    -0.365 N 
HETATM   26  H   UNL     1      21.822  49.291  50.353  1.00  0.00     0.159 HD
HETATM   27  H   UNL     1      20.321  48.556  49.791  1.00  0.00     0.159 HD
HETATM   28  O   UNL     1      21.232  48.102  47.490  1.00  0.00    -0.266 OA
ENDBRANCH   8  24
TORSDOF 5
ENDMDL
MODEL 3
REMARK VINA RESULT:      -9.0      5.624      8.169
REMARK  5 active torsions:
REMARK  status: ('A' for Active; 'I' for Inactive)
REMARK    1  A    between atoms: C_2  and  C_3 
REMARK    2  A    between atoms: C_5  and  C_6 
REMARK    3  A    between atoms: C_6  and  C_7 
REMARK       I    between atoms: C_7  and  N_8 
REMARK    4  A    between atoms: N_8  and  C_9 
REMARK    5  A    between atoms: C_16  and  C_17 
REMARK       I    between atoms: C_17  and  N_18 
ROOT
HETATM    1  C   UNL     1      26.755  41.298  51.023  1.00  0.00     0.035 A 
HETATM    2  C   UNL     1      27.772  40.330  51.009  1.00  0.00     0.046 A 
HETATM    3  C   UNL     1      27.831  39.393  49.956  1.00  0.00     0.030 A 
HETATM    4  C   UNL     1      26.865  39.446  48.961  1.00  0.00     0.063 A 
HETATM    5  N   UNL     1      27.165  38.418  48.111  1.00  0.00    -0.277 N 
HETATM    6  H   UNL     1      26.661  38.149  47.274  1.00  0.00     0.189 HD
HETATM    7  N   UNL     1      28.255  37.711  48.457  1.00  0.00    -0.168 NA
HETATM    8  C   UNL     1      28.679  38.306  49.594  1.00  0.00     0.156 A 
HETATM    9  C   UNL     1      25.845  40.398  48.942  1.00  0.00     0.034 A 
HETATM   10  C   UNL     1      25.814  41.327  49.992  1.00  0.00     0.032 A 
ENDROOT
BRANCH   1  11
HETATM   11  N   UNL     1      26.720  42.162  52.136  1.00  0.00    -0.327 N 
HETATM   12  C   UNL     1      27.121  43.487  52.186  1.00  0.00     0.226 C 
HETATM   13  O   UNL     1      27.778  44.083  51.337  1.00  0.00    -0.273 OA
HETATM   14  H   UNL     1      26.284  41.789  52.971  1.00  0.00     0.169 HD
BRANCH  12  15
HETATM   15  C   UNL     1      26.643  44.196  53.447  1.00  0.00     0.141 C 
BRANCH  15  16
HETATM   16  C   UNL     1      27.789  44.662  54.318  1.00  0.00    -0.049 A 
HETATM   17  C   UNL     1      28.829  43.781  54.656  1.00  0.00     0.014 A 
HETATM   18  C   UNL     1      29.914  44.205  55.433  1.00  0.00    -0.058 A 
HETATM   19  C   UNL     1      29.943  45.527  55.892  1.00  0.00     0.007 A 
HETATM   20  C   UNL     1      28.901  46.402  55.587  1.00  0.00     0.001 A 
HETATM   21  C   UNL     1      27.827  45.974  54.806  1.00  0.00     0.007 A 
BRANCH  18  22
HETATM   22  C   UNL     1      31.051  43.261  55.733  1.00  0.00     0.034 C 
HETATM   23  C   UNL     1      31.493  43.351  57.186  1.00  0.00     0.010 C 
ENDBRANCH  18  22
ENDBRANCH  15  16
ENDBRANCH  12  15
ENDBRANCH   1  11
BRANCH   8  24
HETATM   24  C   UNL     1      29.874  37.837  50.307  1.00  0.00     0.270 C 
HETATM   25  N   UNL     1      29.607  37.170  51.470  1.00  0.00    -0.365 N 
HETATM   26  H   UNL     1      28.640  37.041  51.743  1.00  0.00     0.159 HD
HETATM   27  H   UNL     1      30.363  36.791  52.018  1.00  0.00     0.159 HD
HETATM   28  O   UNL     1      31.026  38.006  49.917  1.00  0.00    -0.266 OA
ENDBRANCH   8  24
TORSDOF 5
ENDMDL
MODEL 4
REMARK VINA RESULT:      -8.9      2.040      3.129
REMARK  5 active torsions:
REMARK  status: ('A' for Active; 'I' for Inactive)
REMARK    1  A    between atoms: C_2  and  C_3 
REMARK    2  A    between atoms: C_5  and  C_6 
REMARK    3  A    between atoms: C_6  and  C_7 
REMARK       I    between atoms: C_7  and  N_8 
REMARK    4  A    between atoms: N_8  and  C_9 
REMARK    5  A    between atoms: C_16  and  C_17 
REMARK       I    between atoms: C_17  and  N_18 
ROOT
HETATM    1  C   UNL     1      25.503  46.088  51.724  1.00  0.00     0.035 A 
HETATM    2  C   UNL     1      24.940  47.095  50.923  1.00  0.00     0.046 A 
HETATM    3  C   UNL     1      24.031  46.750  49.902  1.00  0.00     0.030 A 
HETATM    4  C   UNL     1      23.723  45.411  49.707  1.00  0.00     0.063 A 
HETATM    5  N   UNL     1      22.851  45.389  48.653  1.00  0.00    -0.277 N 
HETATM    6  H   UNL     1      22.426  44.574  48.227  1.00  0.00     0.189 HD
HETATM    7  N   UNL     1      22.550  46.602  48.157  1.00  0.00    -0.168 NA
HETATM    8  C   UNL     1      23.270  47.453  48.923  1.00  0.00     0.156 A 
HETATM    9  C   UNL     1      24.259  44.386  50.489  1.00  0.00     0.034 A 
HETATM   10  C   UNL     1      25.151  44.754  51.505  1.00  0.00     0.032 A 
ENDROOT
BRANCH   1  11
HETATM   11  N   UNL     1      26.450  46.498  52.682  1.00  0.00    -0.327 N 
HETATM   12  C   UNL     1      26.416  46.275  54.050  1.00  0.00     0.226 C 
HETATM   13  O   UNL     1      25.455  45.873  54.699  1.00  0.00    -0.273 OA
HETATM   14  H   UNL     1      27.284  46.943  52.318  1.00  0.00     0.169 HD
BRANCH  12  15
HETATM   15  C   UNL     1      27.750  46.571  54.725  1.00  0.00     0.141 C 
BRANCH  15  16
HETATM   16  C   UNL     1      28.648  45.355  54.787  1.00  0.00    -0.049 A 
HETATM   17  C   UNL     1      29.621  45.240  55.793  1.00  0.00     0.014 A 
HETATM   18  C   UNL     1      30.438  44.107  55.884  1.00  0.00    -0.058 A 
HETATM   19  C   UNL     1      30.287  43.084  54.940  1.00  0.00     0.007 A 
HETATM   20  C   UNL     1      29.344  43.201  53.919  1.00  0.00     0.001 A 
HETATM   21  C   UNL     1      28.529  44.331  53.839  1.00  0.00     0.007 A 
BRANCH  18  22
HETATM   22  C   UNL     1      31.434  43.975  57.009  1.00  0.00     0.034 C 
HETATM   23  C   UNL     1      31.060  44.845  58.200  1.00  0.00     0.010 C 
ENDBRANCH  18  22
ENDBRANCH  15  16
ENDBRANCH  12  15
ENDBRANCH   1  11
BRANCH   8  24
HETATM   24  C   UNL     1      23.217  48.905  48.714  1.00  0.00     0.270 C 
HETATM   25  N   UNL     1      22.534  49.585  49.683  1.00  0.00    -0.365 N 
HETATM   26  H   UNL     1      22.137  49.062  50.454  1.00  0.00     0.159 HD
HETATM   27  H   UNL     1      22.462  50.590  49.637  1.00  0.00     0.159 HD
HETATM   28  O   UNL     1      23.735  49.489  47.766  1.00  0.00    -0.266 OA
ENDBRANCH   8  24
TORSDOF 5
ENDMDL
MODEL 5
REMARK VINA RESULT:      -8.7      2.949      4.637
REMARK  5 active torsions:
REMARK  status: ('A' for Active; 'I' for Inactive)
REMARK    1  A    between atoms: C_2  and  C_3 
REMARK    2  A    between atoms: C_5  and  C_6 
REMARK    3  A    between atoms: C_6  and  C_7 
REMARK       I    between atoms: C_7  and  N_8 
REMARK    4  A    between atoms: N_8  and  C_9 
REMARK    5  A    between atoms: C_16  and  C_17 
REMARK       I    between atoms: C_17  and  N_18 
ROOT
HETATM    1  C   UNL     1      27.587  43.596  51.262  1.00  0.00     0.035 A 
HETATM    2  C   UNL     1      26.875  44.797  51.105  1.00  0.00     0.046 A 
HETATM    3  C   UNL     1      25.835  44.875  50.156  1.00  0.00     0.030 A 
HETATM    4  C   UNL     1      25.548  43.756  49.388  1.00  0.00     0.063 A 
HETATM    5  N   UNL     1      24.529  44.138  48.559  1.00  0.00    -0.277 N 
HETATM    6  H   UNL     1      24.073  43.576  47.850  1.00  0.00     0.189 HD
HETATM    7  N   UNL     1      24.114  45.404  48.736  1.00  0.00    -0.168 NA
HETATM    8  C   UNL     1      24.911  45.870  49.724  1.00  0.00     0.156 A 
HETATM    9  C   UNL     1      26.231  42.546  49.521  1.00  0.00     0.034 A 
HETATM   10  C   UNL     1      27.253  42.488  50.478  1.00  0.00     0.032 A 
ENDROOT
BRANCH   1  11
HETATM   11  N   UNL     1      28.653  43.608  52.182  1.00  0.00    -0.327 N 
HETATM   12  C   UNL     1      28.876  42.721  53.224  1.00  0.00     0.226 C 
HETATM   13  O   UNL     1      28.078  41.902  53.667  1.00  0.00    -0.273 OA
HETATM   14  H   UNL     1      29.374  44.300  52.015  1.00  0.00     0.169 HD
BRANCH  12  15
HETATM   15  C   UNL     1      30.281  42.840  53.803  1.00  0.00     0.141 C 
BRANCH  15  16
HETATM   16  C   UNL     1      30.313  43.656  55.076  1.00  0.00    -0.049 A 
HETATM   17  C   UNL     1      29.443  44.745  55.245  1.00  0.00     0.014 A 
HETATM   18  C   UNL     1      29.438  45.490  56.431  1.00  0.00    -0.058 A 
HETATM   19  C   UNL     1      30.332  45.146  57.452  1.00  0.00     0.007 A 
HETATM   20  C   UNL     1      31.219  44.084  57.283  1.00  0.00     0.001 A 
HETATM   21  C   UNL     1      31.214  43.342  56.102  1.00  0.00     0.007 A 
BRANCH  18  22
HETATM   22  C   UNL     1      28.453  46.617  56.617  1.00  0.00     0.034 C 
HETATM   23  C   UNL     1      27.763  46.986  55.312  1.00  0.00     0.010 C 
ENDBRANCH  18  22
ENDBRANCH  15  16
ENDBRANCH  12  15
ENDBRANCH   1  11
BRANCH   8  24
HETATM   24  C   UNL     1      24.777  47.240  50.237  1.00  0.00     0.270 C 
HETATM   25  N   UNL     1      23.541  47.792  50.042  1.00  0.00    -0.365 N 
HETATM   26  H   UNL     1      22.828  47.235  49.586  1.00  0.00     0.159 HD
HETATM   27  H   UNL     1      23.347  48.722  50.379  1.00  0.00     0.159 HD
HETATM   28  O   UNL     1      25.673  47.861  50.801  1.00  0.00    -0.266 OA
ENDBRANCH   8  24
TORSDOF 5
ENDMDL
MODEL 6
REMARK VINA RESULT:      -8.6      3.158      8.658
REMARK  5 active torsions:
REMARK  status: ('A' for Active; 'I' for Inactive)
REMARK    1  A    between atoms: C_2  and  C_3 
REMARK    2  A    between atoms: C_5  and  C_6 
REMARK    3  A    between atoms: C_6  and  C_7 
REMARK       I    between atoms: C_7  and  N_8 
REMARK    4  A    between atoms: N_8  and  C_9 
REMARK    5  A    between atoms: C_16  and  C_17 
REMARK       I    between atoms: C_17  and  N_18 
ROOT
HETATM    1  C   UNL     1      27.692  44.548  52.741  1.00  0.00     0.035 A 
HETATM    2  C   UNL     1      28.000  45.103  53.995  1.00  0.00     0.046 A 
HETATM    3  C   UNL     1      29.084  44.592  54.738  1.00  0.00     0.030 A 
HETATM    4  C   UNL     1      29.816  43.537  54.211  1.00  0.00     0.063 A 
HETATM    5  N   UNL     1      30.767  43.251  55.152  1.00  0.00    -0.277 N 
HETATM    6  H   UNL     1      31.472  42.525  55.108  1.00  0.00     0.189 HD
HETATM    7  N   UNL     1      30.729  44.043  56.238  1.00  0.00    -0.168 NA
HETATM    8  C   UNL     1      29.695  44.879  55.994  1.00  0.00     0.156 A 
HETATM    9  C   UNL     1      29.541  42.967  52.968  1.00  0.00     0.034 A 
HETATM   10  C   UNL     1      28.467  43.499  52.241  1.00  0.00     0.032 A 
ENDROOT
BRANCH   1  11
HETATM   11  N   UNL     1      26.559  45.064  52.083  1.00  0.00    -0.327 N 
HETATM   12  C   UNL     1      26.084  46.366  52.119  1.00  0.00     0.226 C 
HETATM   13  O   UNL     1      26.434  47.249  52.896  1.00  0.00    -0.273 OA
HETATM   14  H   UNL     1      26.082  44.426  51.457  1.00  0.00     0.169 HD
BRANCH  12  15
HETATM   15  C   UNL     1      25.041  46.638  51.042  1.00  0.00     0.141 C 
BRANCH  15  16
HETATM   16  C   UNL     1      25.478  47.715  50.074  1.00  0.00    -0.049 A 
HETATM   17  C   UNL     1      24.526  48.534  49.444  1.00  0.00     0.014 A 
HETATM   18  C   UNL     1      24.916  49.557  48.570  1.00  0.00    -0.058 A 
HETATM   19  C   UNL     1      26.278  49.746  48.312  1.00  0.00     0.007 A 
HETATM   20  C   UNL     1      27.230  48.920  48.910  1.00  0.00     0.001 A 
HETATM   21  C   UNL     1      26.835  47.907  49.784  1.00  0.00     0.007 A 
BRANCH  18  22
HETATM   22  C   UNL     1      23.882  50.465  47.953  1.00  0.00     0.034 C 
HETATM   23  C   UNL     1      22.867  50.946  48.980  1.00  0.00     0.010 C 
ENDBRANCH  18  22
ENDBRANCH  15  16
ENDBRANCH  12  15
ENDBRANCH   1  11
BRANCH   8  24
HETATM   24  C   UNL     1      29.314  45.928  56.947  1.00  0.00     0.270 C 
HETATM   25  N   UNL     1      30.219  46.125  57.953  1.00  0.00    -0.365 N 
HETATM   26  H   UNL     1      31.062  45.564  57.963  1.00  0.00     0.159 HD
HETATM   27  H   UNL     1      30.054  46.840  58.645  1.00  0.00     0.159 HD
HETATM   28  O   UNL     1      28.284  46.592  56.874  1.00  0.00    -0.266 OA
ENDBRANCH   8  24
TORSDOF 5
ENDMDL
MODEL 7
REMARK VINA RESULT:      -8.5      3.788      5.267
REMARK  5 active torsions:
REMARK  status: ('A' for Active; 'I' for Inactive)
REMARK    1  A    between atoms: C_2  and  C_3 
REMARK    2  A    between atoms: C_5  and  C_6 
REMARK    3  A    between atoms: C_6  and  C_7 
REMARK       I    between atoms: C_7  and  N_8 
REMARK    4  A    between atoms: N_8  and  C_9 
REMARK    5  A    between atoms: C_16  and  C_17 
REMARK       I    between atoms: C_17  and  N_18 
ROOT
HETATM    1  C   UNL     1      25.749  45.480  51.765  1.00  0.00     0.035 A 
HETATM    2  C   UNL     1      26.173  44.147  51.626  1.00  0.00     0.046 A 
HETATM    3  C   UNL     1      25.519  43.297  50.711  1.00  0.00     0.030 A 
HETATM    4  C   UNL     1      24.457  43.801  49.973  1.00  0.00     0.063 A 
HETATM    5  N   UNL     1      24.021  42.757  49.206  1.00  0.00    -0.277 N 
HETATM    6  H   UNL     1      23.248  42.759  48.551  1.00  0.00     0.189 HD
HETATM    7  N   UNL     1      24.721  41.620  49.366  1.00  0.00    -0.168 NA
HETATM    8  C   UNL     1      25.653  41.942  50.291  1.00  0.00     0.156 A 
HETATM    9  C   UNL     1      24.014  45.120  50.082  1.00  0.00     0.034 A 
HETATM   10  C   UNL     1      24.686  45.951  50.990  1.00  0.00     0.032 A 
ENDROOT
BRANCH   1  11
HETATM   11  N   UNL     1      26.405  46.254  52.742  1.00  0.00    -0.327 N 
HETATM   12  C   UNL     1      26.259  46.171  54.118  1.00  0.00     0.226 C 
HETATM   13  O   UNL     1      25.380  45.566  54.724  1.00  0.00    -0.273 OA
HETATM   14  H   UNL     1      27.114  46.890  52.400  1.00  0.00     0.169 HD
BRANCH  12  15
HETATM   15  C   UNL     1      27.351  46.925  54.868  1.00  0.00     0.141 C 
BRANCH  15  16
HETATM   16  C   UNL     1      28.438  46.008  55.381  1.00  0.00    -0.049 A 
HETATM   17  C   UNL     1      28.869  44.916  54.610  1.00  0.00     0.014 A 
HETATM   18  C   UNL     1      29.898  44.076  55.056  1.00  0.00    -0.058 A 
HETATM   19  C   UNL     1      30.487  44.327  56.300  1.00  0.00     0.007 A 
HETATM   20  C   UNL     1      30.047  45.392  57.086  1.00  0.00     0.001 A 
HETATM   21  C   UNL     1      29.026  46.228  56.633  1.00  0.00     0.007 A 
BRANCH  18  22
HETATM   22  C   UNL     1      30.388  42.946  54.186  1.00  0.00     0.034 C 
HETATM   23  C   UNL     1      29.848  43.049  52.767  1.00  0.00     0.010 C 
ENDBRANCH  18  22
ENDBRANCH  15  16
ENDBRANCH  12  15
ENDBRANCH   1  11
BRANCH   8  24
HETATM   24  C   UNL     1      26.647  40.964  50.751  1.00  0.00     0.270 C 
HETATM   25  N   UNL     1      26.123  39.745  51.081  1.00  0.00    -0.365 N 
HETATM   26  H   UNL     1      25.125  39.603  50.977  1.00  0.00     0.159 HD
HETATM   27  H   UNL     1      26.731  39.002  51.387  1.00  0.00     0.159 HD
HETATM   28  O   UNL     1      27.851  41.187  50.838  1.00  0.00    -0.266 OA
ENDBRANCH   8  24
TORSDOF 5
ENDMDL
MODEL 8
REMARK VINA RESULT:      -8.4      2.768      8.778
REMARK  5 active torsions:
REMARK  status: ('A' for Active; 'I' for Inactive)
REMARK    1  A    between atoms: C_2  and  C_3 
REMARK    2  A    between atoms: C_5  and  C_6 
REMARK    3  A    between atoms: C_6  and  C_7 
REMARK       I    between atoms: C_7  and  N_8 
REMARK    4  A    between atoms: N_8  and  C_9 
REMARK    5  A    between atoms: C_16  and  C_17 
REMARK       I    between atoms: C_17  and  N_18 
ROOT
HETATM    1  C   UNL     1      26.018  46.533  52.996  1.00  0.00     0.035 A 
HETATM    2  C   UNL     1      26.739  45.331  52.894  1.00  0.00     0.046 A 
HETATM    3  C   UNL     1      27.735  45.031  53.845  1.00  0.00     0.030 A 
HETATM    4  C   UNL     1      27.987  45.944  54.859  1.00  0.00     0.063 A 
HETATM    5  N   UNL     1      29.000  45.396  55.596  1.00  0.00    -0.277 N 
HETATM    6  H   UNL     1      29.450  45.796  56.411  1.00  0.00     0.189 HD
HETATM    7  N   UNL     1      29.417  44.194  55.160  1.00  0.00    -0.168 NA
HETATM    8  C   UNL     1      28.640  43.955  54.080  1.00  0.00     0.156 A 
HETATM    9  C   UNL     1      27.286  47.143  54.993  1.00  0.00     0.034 A 
HETATM   10  C   UNL     1      26.292  47.416  54.043  1.00  0.00     0.032 A 
ENDROOT
BRANCH   1  11
HETATM   11  N   UNL     1      25.083  46.798  51.976  1.00  0.00    -0.327 N 
HETATM   12  C   UNL     1      25.309  47.455  50.777  1.00  0.00     0.226 C 
HETATM   13  O   UNL     1      26.302  48.111  50.481  1.00  0.00    -0.273 OA
HETATM   14  H   UNL     1      24.161  46.399  52.107  1.00  0.00     0.169 HD
BRANCH  12  15
HETATM   15  C   UNL     1      24.164  47.276  49.788  1.00  0.00     0.141 C 
BRANCH  15  16
HETATM   16  C   UNL     1      23.660  48.594  49.242  1.00  0.00    -0.049 A 
HETATM   17  C   UNL     1      22.394  49.078  49.608  1.00  0.00     0.014 A 
HETATM   18  C   UNL     1      21.927  50.312  49.139  1.00  0.00    -0.058 A 
HETATM   19  C   UNL     1      22.736  51.059  48.276  1.00  0.00     0.007 A 
HETATM   20  C   UNL     1      23.984  50.575  47.883  1.00  0.00     0.001 A 
HETATM   21  C   UNL     1      24.445  49.348  48.360  1.00  0.00     0.007 A 
BRANCH  18  22
HETATM   22  C   UNL     1      20.590  50.842  49.593  1.00  0.00     0.034 C 
HETATM   23  C   UNL     1      20.017  51.850  48.607  1.00  0.00     0.010 C 
ENDBRANCH  18  22
ENDBRANCH  15  16
ENDBRANCH  12  15
ENDBRANCH   1  11
BRANCH   8  24
HETATM   24  C   UNL     1      28.768  42.716  53.302  1.00  0.00     0.270 C 
HETATM   25  N   UNL     1      29.998  42.539  52.732  1.00  0.00    -0.365 N 
HETATM   26  H   UNL     1      30.711  43.241  52.890  1.00  0.00     0.159 HD
HETATM   27  H   UNL     1      30.189  41.706  52.195  1.00  0.00     0.159 HD
HETATM   28  O   UNL     1      27.872  41.889  53.160  1.00  0.00    -0.266 OA
ENDBRANCH   8  24
TORSDOF 5
ENDMDL
MODEL 9
REMARK VINA RESULT:      -8.1      2.939      4.457
REMARK  5 active torsions:
REMARK  status: ('A' for Active; 'I' for Inactive)
REMARK    1  A    between atoms: C_2  and  C_3 
REMARK    2  A    between atoms: C_5  and  C_6 
REMARK    3  A    between atoms: C_6  and  C_7 
REMARK       I    between atoms: C_7  and  N_8 
REMARK    4  A    between atoms: N_8  and  C_9 
REMARK    5  A    between atoms: C_16  and  C_17 
REMARK       I    between atoms: C_17  and  N_18 
ROOT
HETATM    1  C   UNL     1      24.857  43.245  51.121  1.00  0.00     0.035 A 
HETATM    2  C   UNL     1      25.171  44.597  50.902  1.00  0.00     0.046 A 
HETATM    3  C   UNL     1      24.306  45.399  50.130  1.00  0.00     0.030 A 
HETATM    4  C   UNL     1      23.163  44.824  49.593  1.00  0.00     0.063 A 
HETATM    5  N   UNL     1      22.550  45.824  48.890  1.00  0.00    -0.277 N 
HETATM    6  H   UNL     1      21.692  45.759  48.355  1.00  0.00     0.189 HD
HETATM    7  N   UNL     1      23.186  47.008  48.940  1.00  0.00    -0.168 NA
HETATM    8  C   UNL     1      24.271  46.760  49.707  1.00  0.00     0.156 A 
HETATM    9  C   UNL     1      22.819  43.487  49.795  1.00  0.00     0.034 A 
HETATM   10  C   UNL     1      23.687  42.711  50.576  1.00  0.00     0.032 A 
ENDROOT
BRANCH   1  11
HETATM   11  N   UNL     1      25.796  42.487  51.847  1.00  0.00    -0.327 N 
HETATM   12  C   UNL     1      27.093  42.172  51.472  1.00  0.00     0.226 C 
HETATM   13  O   UNL     1      27.584  42.308  50.356  1.00  0.00    -0.273 OA
HETATM   14  H   UNL     1      25.512  42.204  52.777  1.00  0.00     0.169 HD
BRANCH  12  15
HETATM   15  C   UNL     1      27.918  41.621  52.629  1.00  0.00     0.141 C 
BRANCH  15  16
HETATM   16  C   UNL     1      28.448  42.714  53.531  1.00  0.00    -0.049 A 
HETATM   17  C   UNL     1      27.700  43.882  53.749  1.00  0.00     0.014 A 
HETATM   18  C   UNL     1      28.161  44.889  54.607  1.00  0.00    -0.058 A 
HETATM   19  C   UNL     1      29.399  44.726  55.239  1.00  0.00     0.007 A 
HETATM   20  C   UNL     1      30.164  43.583  55.007  1.00  0.00     0.001 A 
HETATM   21  C   UNL     1      29.695  42.582  54.156  1.00  0.00     0.007 A 
BRANCH  18  22
HETATM   22  C   UNL     1      27.313  46.107  54.876  1.00  0.00     0.034 C 
HETATM   23  C   UNL     1      28.143  47.383  54.882  1.00  0.00     0.010 C 
ENDBRANCH  18  22
ENDBRANCH  15  16
ENDBRANCH  12  15
ENDBRANCH   1  11
BRANCH   8  24
HETATM   24  C   UNL     1      25.244  47.814  50.023  1.00  0.00     0.270 C 
HETATM   25  N   UNL     1      25.291  48.826  49.106  1.00  0.00    -0.365 N 
HETATM   26  H   UNL     1      24.667  48.786  48.308  1.00  0.00     0.159 HD
HETATM   27  H   UNL     1      25.914  49.606  49.248  1.00  0.00     0.159 HD
HETATM   28  O   UNL     1      25.963  47.818  51.019  1.00  0.00    -0.266 OA
ENDBRANCH   8  24
TORSDOF 5
ENDMDL
MODEL 10
REMARK VINA RESULT:      -8.1      2.447      3.317
REMARK  5 active torsions:
REMARK  status: ('A' for Active; 'I' for Inactive)
REMARK    1  A    between atoms: C_2  and  C_3 
REMARK    2  A    between atoms: C_5  and  C_6 
REMARK    3  A    between atoms: C_6  and  C_7 
REMARK       I    between atoms: C_7  and  N_8 
REMARK    4  A    between atoms: N_8  and  C_9 
REMARK    5  A    between atoms: C_16  and  C_17 
REMARK       I    between atoms: C_17  and  N_18 
ROOT
HETATM    1  C   UNL     1      25.268  45.433  51.154  1.00  0.00     0.035 A 
HETATM    2  C   UNL     1      24.204  45.128  50.289  1.00  0.00     0.046 A 
HETATM    3  C   UNL     1      23.678  46.130  49.448  1.00  0.00     0.030 A 
HETATM    4  C   UNL     1      24.223  47.404  49.505  1.00  0.00     0.063 A 
HETATM    5  N   UNL     1      23.504  48.147  48.610  1.00  0.00    -0.277 N 
HETATM    6  H   UNL     1      23.620  49.131  48.398  1.00  0.00     0.189 HD
HETATM    7  N   UNL     1      22.549  47.459  47.958  1.00  0.00    -0.168 NA
HETATM    8  C   UNL     1      22.649  46.209  48.464  1.00  0.00     0.156 A 
HETATM    9  C   UNL     1      25.284  47.740  50.348  1.00  0.00     0.034 A 
HETATM   10  C   UNL     1      25.798  46.725  51.167  1.00  0.00     0.032 A 
ENDROOT
BRANCH   1  11
HETATM   11  N   UNL     1      25.702  44.403  52.011  1.00  0.00    -0.327 N 
HETATM   12  C   UNL     1      26.928  43.758  51.999  1.00  0.00     0.226 C 
HETATM   13  O   UNL     1      27.772  43.813  51.109  1.00  0.00    -0.273 OA
HETATM   14  H   UNL     1      25.070  44.160  52.765  1.00  0.00     0.169 HD
BRANCH  12  15
HETATM   15  C   UNL     1      27.170  42.935  53.258  1.00  0.00     0.141 C 
BRANCH  15  16
HETATM   16  C   UNL     1      28.347  43.442  54.062  1.00  0.00    -0.049 A 
HETATM   17  C   UNL     1      28.240  44.625  54.812  1.00  0.00     0.014 A 
HETATM   18  C   UNL     1      29.309  45.089  55.587  1.00  0.00    -0.058 A 
HETATM   19  C   UNL     1      30.507  44.366  55.594  1.00  0.00     0.007 A 
HETATM   20  C   UNL     1      30.634  43.205  54.830  1.00  0.00     0.001 A 
HETATM   21  C   UNL     1      29.562  42.745  54.065  1.00  0.00     0.007 A 
BRANCH  18  22
HETATM   22  C   UNL     1      29.154  46.328  56.434  1.00  0.00     0.034 C 
HETATM   23  C   UNL     1      29.152  46.000  57.920  1.00  0.00     0.010 C 
ENDBRANCH  18  22
ENDBRANCH  15  16
ENDBRANCH  12  15
ENDBRANCH   1  11
BRANCH   8  24
HETATM   24  C   UNL     1      21.774  45.123  48.004  1.00  0.00     0.270 C 
HETATM   25  N   UNL     1      21.571  45.103  46.653  1.00  0.00    -0.365 N 
HETATM   26  H   UNL     1      22.030  45.804  46.083  1.00  0.00     0.159 HD
HETATM   27  H   UNL     1      21.002  44.380  46.240  1.00  0.00     0.159 HD
HETATM   28  O   UNL     1      21.259  44.287  48.741  1.00  0.00    -0.266 OA
ENDBRANCH   8  24
TORSDOF 5
ENDMDL
