MODEL 1
REMARK VINA RESULT:      -9.0      0.000      0.000
REMARK  4 active torsions:
REMARK  status: ('A' for Active; 'I' for Inactive)
REMARK    1  A    between atoms: N_2  and  C_3 
REMARK    2  A    between atoms: C_5  and  C_6 
REMARK    3  A    between atoms: C_6  and  C_7 
REMARK    4  A    between atoms: C_13  and  O_14 
ROOT
HETATM    1  C   UNL     1      27.730  45.807  54.769  1.00  0.00     0.113 A 
HETATM    2  N   UNL     1      26.738  45.711  53.863  1.00  0.00    -0.223 NA
HETATM    3  C   UNL     1      26.802  44.733  52.921  1.00  0.00     0.106 A 
HETATM    4  N   UNL     1      27.815  43.855  52.844  1.00  0.00    -0.347 N 
HETATM    5  H   UNL     1      27.834  43.147  52.113  1.00  0.00     0.167 HD
HETATM    6  C   UNL     1      28.786  43.934  53.750  1.00  0.00     0.020 A 
HETATM    7  C   UNL     1      28.767  44.903  54.738  1.00  0.00     0.005 A 
HETATM    8  C   UNL     1      29.973  44.780  55.612  1.00  0.00     0.044 C 
HETATM    9  C   UNL     1      30.449  43.355  55.271  1.00  0.00     0.011 C 
HETATM   10  C   UNL     1      29.999  43.066  53.830  1.00  0.00     0.058 C 
ENDROOT
BRANCH   3  11
HETATM   11  C   UNL     1      25.707  44.676  51.893  1.00  0.00     0.085 C 
BRANCH  11  12
HETATM   12  C   UNL     1      25.395  46.053  51.296  1.00  0.00     0.021 C 
HETATM   13  C   UNL     1      24.259  46.029  50.275  1.00  0.00     0.181 C 
HETATM   14  O   UNL     1      23.900  47.362  49.911  1.00  0.00    -0.347 OA
HETATM   15  C   UNL     1      24.929  48.144  49.450  1.00  0.00     0.108 A 
HETATM   16  C   UNL     1      26.268  47.831  49.762  1.00  0.00    -0.021 A 
HETATM   17  C   UNL     1      24.633  49.294  48.700  1.00  0.00     0.102 A 
HETATM   18  C   UNL     1      26.623  46.621  50.581  1.00  0.00     0.048 C 
HETATM   19  C   UNL     1      27.305  48.643  49.279  1.00  0.00     0.010 A 
HETATM   20  C   UNL     1      27.015  49.771  48.520  1.00  0.00     0.003 A 
HETATM   21  C   UNL     1      25.690  50.093  48.240  1.00  0.00     0.039 A 
BRANCH  17  22
HETATM   22  O   UNL     1      23.413  49.783  48.320  1.00  0.00    -0.353 OA
HETATM   23  C   UNL     1      22.798  50.793  49.102  1.00  0.00     0.210 C 
ENDBRANCH  17  22
ENDBRANCH  11  12
ENDBRANCH   3  11
BRANCH   1  24
HETATM   24  N   UNL     1      27.671  46.755  55.786  1.00  0.00    -0.281 NA
HETATM   25  C   UNL     1      26.892  47.953  55.508  1.00  0.00     0.114 C 
HETATM   26  H   UNL     1      28.592  46.983  56.152  1.00  0.00     0.128 HD
ENDBRANCH   1  24
TORSDOF 4
ENDMDL
MODEL 2
REMARK VINA RESULT:      -8.8      3.016      7.738
REMARK  4 active torsions:
REMARK  status: ('A' for Active; 'I' for Inactive)
REMARK    1  A    between atoms: N_2  and  C_3 
REMARK    2  A    between atoms: C_5  and  C_6 
REMARK    3  A    between atoms: C_6  and  C_7 
REMARK    4  A    between atoms: C_13  and  O_14 
ROOT
HETATM    1  C   UNL     1      25.617  48.635  48.893  1.00  0.00     0.113 A 
HETATM    2  N   UNL     1      25.616  47.463  49.558  1.00  0.00    -0.223 NA
HETATM    3  C   UNL     1      24.441  46.991  50.052  1.00  0.00     0.106 A 
HETATM    4  N   UNL     1      23.273  47.640  49.914  1.00  0.00    -0.347 N 
HETATM    5  H   UNL     1      22.418  47.260  50.313  1.00  0.00     0.167 HD
HETATM    6  C   UNL     1      23.268  48.787  49.240  1.00  0.00     0.020 A 
HETATM    7  C   UNL     1      24.433  49.311  48.707  1.00  0.00     0.005 A 
HETATM    8  C   UNL     1      24.154  50.606  48.015  1.00  0.00     0.044 C 
HETATM    9  C   UNL     1      22.625  50.531  47.840  1.00  0.00     0.011 C 
HETATM   10  C   UNL     1      22.085  49.664  48.989  1.00  0.00     0.058 C 
ENDROOT
BRANCH   3  11
HETATM   11  C   UNL     1      24.473  45.704  50.830  1.00  0.00     0.085 C 
BRANCH  11  12
HETATM   12  C   UNL     1      25.764  45.545  51.639  1.00  0.00     0.021 C 
HETATM   13  C   UNL     1      25.990  44.123  52.150  1.00  0.00     0.181 C 
HETATM   14  O   UNL     1      27.293  44.009  52.722  1.00  0.00    -0.347 OA
HETATM   15  C   UNL     1      27.581  44.914  53.712  1.00  0.00     0.108 A 
HETATM   16  C   UNL     1      26.866  46.126  53.814  1.00  0.00    -0.021 A 
HETATM   17  C   UNL     1      28.634  44.645  54.602  1.00  0.00     0.102 A 
HETATM   18  C   UNL     1      25.746  46.460  52.867  1.00  0.00     0.048 C 
HETATM   19  C   UNL     1      27.176  47.035  54.835  1.00  0.00     0.010 A 
HETATM   20  C   UNL     1      28.205  46.762  55.728  1.00  0.00     0.003 A 
HETATM   21  C   UNL     1      28.929  45.578  55.606  1.00  0.00     0.039 A 
BRANCH  17  22
HETATM   22  O   UNL     1      29.460  43.555  54.653  1.00  0.00    -0.353 OA
HETATM   23  C   UNL     1      30.660  43.630  55.404  1.00  0.00     0.210 C 
ENDBRANCH  17  22
ENDBRANCH  11  12
ENDBRANCH   3  11
BRANCH   1  24
HETATM   24  N   UNL     1      26.787  49.123  48.321  1.00  0.00    -0.281 NA
HETATM   25  C   UNL     1      27.938  49.244  49.204  1.00  0.00     0.114 C 
HETATM   26  H   UNL     1      26.629  49.976  47.791  1.00  0.00     0.128 HD
ENDBRANCH   1  24
TORSDOF 4
ENDMDL
MODEL 3
REMARK VINA RESULT:      -8.7      1.028      2.483
REMARK  4 active torsions:
REMARK  status: ('A' for Active; 'I' for Inactive)
REMARK    1  A    between atoms: N_2  and  C_3 
REMARK    2  A    between atoms: C_5  and  C_6 
REMARK    3  A    between atoms: C_6  and  C_7 
REMARK    4  A    between atoms: C_13  and  O_14 
ROOT
HETATM    1  C   UNL     1      28.350  43.197  52.747  1.00  0.00     0.113 A 
HETATM    2  N   UNL     1      27.250  43.441  52.007  1.00  0.00    -0.223 NA
HETATM    3  C   UNL     1      26.386  44.408  52.416  1.00  0.00     0.106 A 
HETATM    4  N   UNL     1      26.572  45.135  53.529  1.00  0.00    -0.347 N 
HETATM    5  H   UNL     1      25.892  45.839  53.809  1.00  0.00     0.167 HD
HETATM    6  C   UNL     1      27.667  44.911  54.250  1.00  0.00     0.020 A 
HETATM    7  C   UNL     1      28.586  43.946  53.877  1.00  0.00     0.005 A 
HETATM    8  C   UNL     1      29.711  43.889  54.861  1.00  0.00     0.044 C 
HETATM    9  C   UNL     1      29.542  45.236  55.590  1.00  0.00     0.011 C 
HETATM   10  C   UNL     1      28.049  45.598  55.521  1.00  0.00     0.058 C 
ENDROOT
BRANCH   3  11
HETATM   11  C   UNL     1      25.143  44.628  51.599  1.00  0.00     0.085 C 
BRANCH  11  12
HETATM   12  C   UNL     1      25.048  46.059  51.058  1.00  0.00     0.021 C 
HETATM   13  C   UNL     1      24.023  46.218  49.936  1.00  0.00     0.181 C 
HETATM   14  O   UNL     1      23.853  47.599  49.620  1.00  0.00    -0.347 OA
HETATM   15  C   UNL     1      25.004  48.276  49.302  1.00  0.00     0.108 A 
HETATM   16  C   UNL     1      26.263  47.793  49.717  1.00  0.00    -0.021 A 
HETATM   17  C   UNL     1      24.915  49.487  48.597  1.00  0.00     0.102 A 
HETATM   18  C   UNL     1      26.397  46.512  50.493  1.00  0.00     0.048 C 
HETATM   19  C   UNL     1      27.426  48.499  49.380  1.00  0.00     0.010 A 
HETATM   20  C   UNL     1      27.342  49.688  48.664  1.00  0.00     0.003 A 
HETATM   21  C   UNL     1      26.095  50.177  48.283  1.00  0.00     0.039 A 
BRANCH  17  22
HETATM   22  O   UNL     1      23.801  50.134  48.135  1.00  0.00    -0.353 OA
HETATM   23  C   UNL     1      23.041  50.929  49.029  1.00  0.00     0.210 C 
ENDBRANCH  17  22
ENDBRANCH  11  12
ENDBRANCH   3  11
BRANCH   1  24
HETATM   24  N   UNL     1      29.289  42.259  52.332  1.00  0.00    -0.281 NA
HETATM   25  C   UNL     1      28.890  40.862  52.423  1.00  0.00     0.114 C 
HETATM   26  H   UNL     1      30.201  42.416  52.752  1.00  0.00     0.128 HD
ENDBRANCH   1  24
TORSDOF 4
ENDMDL
MODEL 4
REMARK VINA RESULT:      -8.0      2.140      3.992
REMARK  4 active torsions:
REMARK  status: ('A' for Active; 'I' for Inactive)
REMARK    1  A    between atoms: N_2  and  C_3 
REMARK    2  A    between atoms: C_5  and  C_6 
REMARK    3  A    between atoms: C_6  and  C_7 
REMARK    4  A    between atoms: C_13  and  O_14 
ROOT
HETATM    1  C   UNL     1      29.764  43.984  54.814  1.00  0.00     0.113 A 
HETATM    2  N   UNL     1      28.742  44.815  54.532  1.00  0.00    -0.223 NA
HETATM    3  C   UNL     1      28.368  45.734  55.462  1.00  0.00     0.106 A 
HETATM    4  N   UNL     1      28.967  45.853  56.657  1.00  0.00    -0.347 N 
HETATM    5  H   UNL     1      28.646  46.544  57.332  1.00  0.00     0.167 HD
HETATM    6  C   UNL     1      29.990  45.049  56.931  1.00  0.00     0.020 A 
HETATM    7  C   UNL     1      30.420  44.100  56.018  1.00  0.00     0.005 A 
HETATM    8  C   UNL     1      31.570  43.324  56.575  1.00  0.00     0.044 C 
HETATM    9  C   UNL     1      32.020  44.239  57.730  1.00  0.00     0.011 C 
HETATM   10  C   UNL     1      30.777  45.012  58.200  1.00  0.00     0.058 C 
ENDROOT
BRANCH   3  11
HETATM   11  C   UNL     1      27.195  46.618  55.142  1.00  0.00     0.085 C 
BRANCH  11  12
HETATM   12  C   UNL     1      26.726  46.461  53.691  1.00  0.00     0.021 C 
HETATM   13  C   UNL     1      25.827  47.602  53.216  1.00  0.00     0.181 C 
HETATM   14  O   UNL     1      25.591  47.488  51.813  1.00  0.00    -0.347 OA
HETATM   15  C   UNL     1      25.079  46.284  51.399  1.00  0.00     0.108 A 
HETATM   16  C   UNL     1      25.230  45.125  52.188  1.00  0.00    -0.021 A 
HETATM   17  C   UNL     1      24.441  46.204  50.150  1.00  0.00     0.102 A 
HETATM   18  C   UNL     1      25.927  45.167  53.521  1.00  0.00     0.048 C 
HETATM   19  C   UNL     1      24.697  43.906  51.746  1.00  0.00     0.010 A 
HETATM   20  C   UNL     1      24.048  43.829  50.520  1.00  0.00     0.003 A 
HETATM   21  C   UNL     1      23.928  44.969  49.729  1.00  0.00     0.039 A 
BRANCH  17  22
HETATM   22  O   UNL     1      24.221  47.194  49.231  1.00  0.00    -0.353 OA
HETATM   23  C   UNL     1      22.967  47.854  49.211  1.00  0.00     0.210 C 
ENDBRANCH  17  22
ENDBRANCH  11  12
ENDBRANCH   3  11
BRANCH   1  24
HETATM   24  N   UNL     1      30.216  43.071  53.868  1.00  0.00    -0.281 NA
HETATM   25  C   UNL     1      29.524  43.072  52.587  1.00  0.00     0.114 C 
HETATM   26  H   UNL     1      30.298  42.131  54.248  1.00  0.00     0.128 HD
ENDBRANCH   1  24
TORSDOF 4
ENDMDL
MODEL 5
REMARK VINA RESULT:      -7.9      1.553      3.269
REMARK  4 active torsions:
REMARK  status: ('A' for Active; 'I' for Inactive)
REMARK    1  A    between atoms: N_2  and  C_3 
REMARK    2  A    between atoms: C_5  and  C_6 
REMARK    3  A    between atoms: C_6  and  C_7 
REMARK    4  A    between atoms: C_13  and  O_14 
ROOT
HETATM    1  C   UNL     1      28.805  42.844  53.440  1.00  0.00     0.113 A 
HETATM    2  N   UNL     1      27.571  43.021  52.930  1.00  0.00    -0.223 NA
HETATM    3  C   UNL     1      26.785  44.006  53.442  1.00  0.00     0.106 A 
HETATM    4  N   UNL     1      27.179  44.814  54.439  1.00  0.00    -0.347 N 
HETATM    5  H   UNL     1      26.554  45.530  54.805  1.00  0.00     0.167 HD
HETATM    6  C   UNL     1      28.405  44.656  54.931  1.00  0.00     0.020 A 
HETATM    7  C   UNL     1      29.251  43.675  54.442  1.00  0.00     0.005 A 
HETATM    8  C   UNL     1      30.556  43.702  55.171  1.00  0.00     0.044 C 
HETATM    9  C   UNL     1      30.507  45.096  55.826  1.00  0.00     0.011 C 
HETATM   10  C   UNL     1      29.024  45.437  56.043  1.00  0.00     0.058 C 
ENDROOT
BRANCH   3  11
HETATM   11  C   UNL     1      25.395  44.154  52.888  1.00  0.00     0.085 C 
BRANCH  11  12
HETATM   12  C   UNL     1      25.327  45.181  51.753  1.00  0.00     0.021 C 
HETATM   13  C   UNL     1      25.313  46.628  52.243  1.00  0.00     0.181 C 
HETATM   14  O   UNL     1      25.443  47.521  51.137  1.00  0.00    -0.347 OA
HETATM   15  C   UNL     1      24.519  47.356  50.136  1.00  0.00     0.108 A 
HETATM   16  C   UNL     1      23.831  46.135  49.983  1.00  0.00    -0.021 A 
HETATM   17  C   UNL     1      24.298  48.404  49.228  1.00  0.00     0.102 A 
HETATM   18  C   UNL     1      24.057  44.982  50.922  1.00  0.00     0.048 C 
HETATM   19  C   UNL     1      22.889  45.988  48.954  1.00  0.00     0.010 A 
HETATM   20  C   UNL     1      22.654  47.032  48.066  1.00  0.00     0.003 A 
HETATM   21  C   UNL     1      23.359  48.226  48.202  1.00  0.00     0.039 A 
BRANCH  17  22
HETATM   22  O   UNL     1      24.878  49.643  49.185  1.00  0.00    -0.353 OA
HETATM   23  C   UNL     1      25.734  49.969  48.103  1.00  0.00     0.210 C 
ENDBRANCH  17  22
ENDBRANCH  11  12
ENDBRANCH   3  11
BRANCH   1  24
HETATM   24  N   UNL     1      29.662  41.887  52.905  1.00  0.00    -0.281 NA
HETATM   25  C   UNL     1      29.032  40.736  52.276  1.00  0.00     0.114 C 
HETATM   26  H   UNL     1      30.384  41.607  53.563  1.00  0.00     0.128 HD
ENDBRANCH   1  24
TORSDOF 4
ENDMDL
MODEL 6
REMARK VINA RESULT:      -7.8      2.684      4.785
REMARK  4 active torsions:
REMARK  status: ('A' for Active; 'I' for Inactive)
REMARK    1  A    between atoms: N_2  and  C_3 
REMARK    2  A    between atoms: C_5  and  C_6 
REMARK    3  A    between atoms: C_6  and  C_7 
REMARK    4  A    between atoms: C_13  and  O_14 
ROOT
HETATM    1  C   UNL     1      24.899  44.626  51.871  1.00  0.00     0.113 A 
HETATM    2  N   UNL     1      24.701  45.431  50.809  1.00  0.00    -0.223 NA
HETATM    3  C   UNL     1      25.206  46.693  50.840  1.00  0.00     0.106 A 
HETATM    4  N   UNL     1      25.893  47.183  51.884  1.00  0.00    -0.347 N 
HETATM    5  H   UNL     1      26.241  48.139  51.875  1.00  0.00     0.167 HD
HETATM    6  C   UNL     1      26.108  46.384  52.926  1.00  0.00     0.020 A 
HETATM    7  C   UNL     1      25.625  45.086  52.945  1.00  0.00     0.005 A 
HETATM    8  C   UNL     1      25.992  44.412  54.228  1.00  0.00     0.044 C 
HETATM    9  C   UNL     1      27.114  45.334  54.743  1.00  0.00     0.011 C 
HETATM   10  C   UNL     1      26.832  46.738  54.184  1.00  0.00     0.058 C 
ENDROOT
BRANCH   3  11
HETATM   11  C   UNL     1      24.933  47.588  49.663  1.00  0.00     0.085 C 
BRANCH  11  12
HETATM   12  C   UNL     1      23.464  48.017  49.586  1.00  0.00     0.021 C 
HETATM   13  C   UNL     1      22.651  47.224  48.564  1.00  0.00     0.181 C 
HETATM   14  O   UNL     1      21.266  47.543  48.685  1.00  0.00    -0.347 OA
HETATM   15  C   UNL     1      20.959  48.877  48.595  1.00  0.00     0.108 A 
HETATM   16  C   UNL     1      21.938  49.861  48.846  1.00  0.00    -0.021 A 
HETATM   17  C   UNL     1      19.641  49.259  48.294  1.00  0.00     0.102 A 
HETATM   18  C   UNL     1      23.354  49.492  49.192  1.00  0.00     0.048 C 
HETATM   19  C   UNL     1      21.603  51.219  48.746  1.00  0.00     0.010 A 
HETATM   20  C   UNL     1      20.304  51.599  48.429  1.00  0.00     0.003 A 
HETATM   21  C   UNL     1      19.333  50.624  48.212  1.00  0.00     0.039 A 
BRANCH  17  22
HETATM   22  O   UNL     1      18.551  48.469  48.049  1.00  0.00    -0.353 OA
HETATM   23  C   UNL     1      17.631  48.215  49.097  1.00  0.00     0.210 C 
ENDBRANCH  17  22
ENDBRANCH  11  12
ENDBRANCH   3  11
BRANCH   1  24
HETATM   24  N   UNL     1      24.451  43.309  51.854  1.00  0.00    -0.281 NA
HETATM   25  C   UNL     1      24.952  42.470  50.776  1.00  0.00     0.114 C 
HETATM   26  H   UNL     1      23.439  43.247  51.938  1.00  0.00     0.128 HD
ENDBRANCH   1  24
TORSDOF 4
ENDMDL
MODEL 7
REMARK VINA RESULT:      -7.8      4.011      6.355
REMARK  4 active torsions:
REMARK  status: ('A' for Active; 'I' for Inactive)
REMARK    1  A    between atoms: N_2  and  C_3 
REMARK    2  A    between atoms: C_5  and  C_6 
REMARK    3  A    between atoms: C_6  and  C_7 
REMARK    4  A    between atoms: C_13  and  O_14 
ROOT
HETATM    1  C   UNL     1      26.794  40.053  50.193  1.00  0.00     0.113 A 
HETATM    2  N   UNL     1      27.089  40.829  51.254  1.00  0.00    -0.223 NA
HETATM    3  C   UNL     1      28.312  40.709  51.836  1.00  0.00     0.106 A 
HETATM    4  N   UNL     1      29.247  39.847  51.405  1.00  0.00    -0.347 N 
HETATM    5  H   UNL     1      30.145  39.776  51.878  1.00  0.00     0.167 HD
HETATM    6  C   UNL     1      28.967  39.094  50.345  1.00  0.00     0.020 A 
HETATM    7  C   UNL     1      27.741  39.181  49.707  1.00  0.00     0.005 A 
HETATM    8  C   UNL     1      27.681  38.224  48.560  1.00  0.00     0.044 C 
HETATM    9  C   UNL     1      29.174  37.904  48.355  1.00  0.00     0.011 C 
HETATM   10  C   UNL     1      29.859  38.070  49.722  1.00  0.00     0.058 C 
ENDROOT
BRANCH   3  11
HETATM   11  C   UNL     1      28.599  41.552  53.047  1.00  0.00     0.085 C 
BRANCH  11  12
HETATM   12  C   UNL     1      27.721  42.807  53.104  1.00  0.00     0.021 C 
HETATM   13  C   UNL     1      27.735  43.619  51.810  1.00  0.00     0.181 C 
HETATM   14  O   UNL     1      26.755  44.654  51.870  1.00  0.00    -0.347 OA
HETATM   15  C   UNL     1      26.852  45.494  52.951  1.00  0.00     0.108 A 
HETATM   16  C   UNL     1      27.529  45.089  54.121  1.00  0.00    -0.021 A 
HETATM   17  C   UNL     1      26.227  46.750  52.902  1.00  0.00     0.102 A 
HETATM   18  C   UNL     1      28.192  43.743  54.220  1.00  0.00     0.048 C 
HETATM   19  C   UNL     1      27.618  45.964  55.213  1.00  0.00     0.010 A 
HETATM   20  C   UNL     1      27.016  47.216  55.159  1.00  0.00     0.003 A 
HETATM   21  C   UNL     1      26.323  47.599  54.013  1.00  0.00     0.039 A 
BRANCH  17  22
HETATM   22  O   UNL     1      25.505  47.312  51.885  1.00  0.00    -0.353 OA
HETATM   23  C   UNL     1      26.148  47.599  50.654  1.00  0.00     0.210 C 
ENDBRANCH  17  22
ENDBRANCH  11  12
ENDBRANCH   3  11
BRANCH   1  24
HETATM   24  N   UNL     1      25.577  40.188  49.533  1.00  0.00    -0.281 NA
HETATM   25  C   UNL     1      25.177  41.544  49.187  1.00  0.00     0.114 C 
HETATM   26  H   UNL     1      24.829  39.684  50.001  1.00  0.00     0.128 HD
ENDBRANCH   1  24
TORSDOF 4
ENDMDL
MODEL 8
REMARK VINA RESULT:      -7.7      3.318      7.768
REMARK  4 active torsions:
REMARK  status: ('A' for Active; 'I' for Inactive)
REMARK    1  A    between atoms: N_2  and  C_3 
REMARK    2  A    between atoms: C_5  and  C_6 
REMARK    3  A    between atoms: C_6  and  C_7 
REMARK    4  A    between atoms: C_13  and  O_14 
ROOT
HETATM    1  C   UNL     1      25.829  48.749  49.225  1.00  0.00     0.113 A 
HETATM    2  N   UNL     1      26.063  47.893  50.239  1.00  0.00    -0.223 NA
HETATM    3  C   UNL     1      25.004  47.344  50.892  1.00  0.00     0.106 A 
HETATM    4  N   UNL     1      23.728  47.618  50.579  1.00  0.00    -0.347 N 
HETATM    5  H   UNL     1      22.963  47.199  51.103  1.00  0.00     0.167 HD
HETATM    6  C   UNL     1      23.493  48.447  49.565  1.00  0.00     0.020 A 
HETATM    7  C   UNL     1      24.532  49.027  48.858  1.00  0.00     0.005 A 
HETATM    8  C   UNL     1      23.998  49.921  47.785  1.00  0.00     0.044 C 
HETATM    9  C   UNL     1      22.539  49.434  47.686  1.00  0.00     0.011 C 
HETATM   10  C   UNL     1      22.154  48.888  49.070  1.00  0.00     0.058 C 
ENDROOT
BRANCH   3  11
HETATM   11  C   UNL     1      25.292  46.428  52.049  1.00  0.00     0.085 C 
BRANCH  11  12
HETATM   12  C   UNL     1      26.222  45.274  51.661  1.00  0.00     0.021 C 
HETATM   13  C   UNL     1      25.595  44.297  50.667  1.00  0.00     0.181 C 
HETATM   14  O   UNL     1      26.577  43.368  50.208  1.00  0.00    -0.347 OA
HETATM   15  C   UNL     1      27.238  42.677  51.193  1.00  0.00     0.108 A 
HETATM   16  C   UNL     1      27.295  43.175  52.511  1.00  0.00    -0.021 A 
HETATM   17  C   UNL     1      27.903  41.484  50.865  1.00  0.00     0.102 A 
HETATM   18  C   UNL     1      26.614  44.460  52.896  1.00  0.00     0.048 C 
HETATM   19  C   UNL     1      27.974  42.452  53.502  1.00  0.00     0.010 A 
HETATM   20  C   UNL     1      28.616  41.261  53.183  1.00  0.00     0.003 A 
HETATM   21  C   UNL     1      28.583  40.788  51.874  1.00  0.00     0.039 A 
BRANCH  17  22
HETATM   22  O   UNL     1      27.993  40.854  49.653  1.00  0.00    -0.353 OA
HETATM   23  C   UNL     1      27.393  39.581  49.488  1.00  0.00     0.210 C 
ENDBRANCH  17  22
ENDBRANCH  11  12
ENDBRANCH   3  11
BRANCH   1  24
HETATM   24  N   UNL     1      26.883  49.285  48.493  1.00  0.00    -0.281 NA
HETATM   25  C   UNL     1      28.154  49.414  49.191  1.00  0.00     0.114 C 
HETATM   26  H   UNL     1      26.625  50.148  48.022  1.00  0.00     0.128 HD
ENDBRANCH   1  24
TORSDOF 4
ENDMDL
MODEL 9
REMARK VINA RESULT:      -7.6      4.947      7.405
REMARK  4 active torsions:
REMARK  status: ('A' for Active; 'I' for Inactive)
REMARK    1  A    between atoms: N_2  and  C_3 
REMARK    2  A    between atoms: C_5  and  C_6 
REMARK    3  A    between atoms: C_6  and  C_7 
REMARK    4  A    between atoms: C_13  and  O_14 
ROOT
HETATM    1  C   UNL     1      26.055  41.131  50.098  1.00  0.00     0.113 A 
HETATM    2  N   UNL     1      26.738  41.125  51.260  1.00  0.00    -0.223 NA
HETATM    3  C   UNL     1      28.071  40.857  51.235  1.00  0.00     0.106 A 
HETATM    4  N   UNL     1      28.745  40.594  50.104  1.00  0.00    -0.347 N 
HETATM    5  H   UNL     1      29.740  40.383  50.130  1.00  0.00     0.167 HD
HETATM    6  C   UNL     1      28.078  40.620  48.953  1.00  0.00     0.020 A 
HETATM    7  C   UNL     1      26.722  40.896  48.918  1.00  0.00     0.005 A 
HETATM    8  C   UNL     1      26.217  40.850  47.511  1.00  0.00     0.044 C 
HETATM    9  C   UNL     1      27.532  40.952  46.715  1.00  0.00     0.011 C 
HETATM   10  C   UNL     1      28.636  40.343  47.595  1.00  0.00     0.058 C 
ENDROOT
BRANCH   3  11
HETATM   11  C   UNL     1      28.802  40.810  52.548  1.00  0.00     0.085 C 
BRANCH  11  12
HETATM   12  C   UNL     1      28.591  42.081  53.378  1.00  0.00     0.021 C 
HETATM   13  C   UNL     1      28.447  43.344  52.530  1.00  0.00     0.181 C 
HETATM   14  O   UNL     1      28.064  44.445  53.353  1.00  0.00    -0.347 OA
HETATM   15  C   UNL     1      28.883  44.691  54.426  1.00  0.00     0.108 A 
HETATM   16  C   UNL     1      29.723  43.680  54.940  1.00  0.00    -0.021 A 
HETATM   17  C   UNL     1      28.845  45.952  55.043  1.00  0.00     0.102 A 
HETATM   18  C   UNL     1      29.775  42.311  54.320  1.00  0.00     0.048 C 
HETATM   19  C   UNL     1      30.554  43.954  56.035  1.00  0.00     0.010 A 
HETATM   20  C   UNL     1      30.532  45.208  56.636  1.00  0.00     0.003 A 
HETATM   21  C   UNL     1      29.679  46.193  56.144  1.00  0.00     0.039 A 
BRANCH  17  22
HETATM   22  O   UNL     1      28.088  47.045  54.721  1.00  0.00    -0.353 OA
HETATM   23  C   UNL     1      27.140  47.531  55.656  1.00  0.00     0.210 C 
ENDBRANCH  17  22
ENDBRANCH  11  12
ENDBRANCH   3  11
BRANCH   1  24
HETATM   24  N   UNL     1      24.703  41.459  50.075  1.00  0.00    -0.281 NA
HETATM   25  C   UNL     1      24.357  42.804  50.509  1.00  0.00     0.114 C 
HETATM   26  H   UNL     1      24.130  40.757  50.535  1.00  0.00     0.128 HD
ENDBRANCH   1  24
TORSDOF 4
ENDMDL
MODEL 10
REMARK VINA RESULT:      -7.4      4.251      8.324
REMARK  4 active torsions:
REMARK  status: ('A' for Active; 'I' for Inactive)
REMARK    1  A    between atoms: N_2  and  C_3 
REMARK    2  A    between atoms: C_5  and  C_6 
REMARK    3  A    between atoms: C_6  and  C_7 
REMARK    4  A    between atoms: C_13  and  O_14 
ROOT
HETATM    1  C   UNL     1      22.719  49.314  47.986  1.00  0.00     0.113 A 
HETATM    2  N   UNL     1      22.754  47.968  47.932  1.00  0.00    -0.223 NA
HETATM    3  C   UNL     1      21.763  47.261  48.538  1.00  0.00     0.106 A 
HETATM    4  N   UNL     1      20.746  47.841  49.195  1.00  0.00    -0.347 N 
HETATM    5  H   UNL     1      20.032  47.275  49.649  1.00  0.00     0.167 HD
HETATM    6  C   UNL     1      20.697  49.170  49.233  1.00  0.00     0.020 A 
HETATM    7  C   UNL     1      21.674  49.940  48.626  1.00  0.00     0.005 A 
HETATM    8  C   UNL     1      21.391  51.394  48.826  1.00  0.00     0.044 C 
HETATM    9  C   UNL     1      19.906  51.358  49.238  1.00  0.00     0.011 C 
HETATM   10  C   UNL     1      19.663  50.002  49.920  1.00  0.00     0.058 C 
ENDROOT
BRANCH   3  11
HETATM   11  C   UNL     1      21.849  45.761  48.503  1.00  0.00     0.085 C 
BRANCH  11  12
HETATM   12  C   UNL     1      23.288  45.257  48.655  1.00  0.00     0.021 C 
HETATM   13  C   UNL     1      23.434  43.754  48.416  1.00  0.00     0.181 C 
HETATM   14  O   UNL     1      24.815  43.396  48.383  1.00  0.00    -0.347 OA
HETATM   15  C   UNL     1      25.546  43.769  49.483  1.00  0.00     0.108 A 
HETATM   16  C   UNL     1      25.105  44.813  50.322  1.00  0.00    -0.021 A 
HETATM   17  C   UNL     1      26.771  43.131  49.741  1.00  0.00     0.102 A 
HETATM   18  C   UNL     1      23.811  45.534  50.067  1.00  0.00     0.048 C 
HETATM   19  C   UNL     1      25.867  45.176  51.442  1.00  0.00     0.010 A 
HETATM   20  C   UNL     1      27.070  44.533  51.710  1.00  0.00     0.003 A 
HETATM   21  C   UNL     1      27.516  43.523  50.861  1.00  0.00     0.039 A 
BRANCH  17  22
HETATM   22  O   UNL     1      27.383  42.129  49.039  1.00  0.00    -0.353 OA
HETATM   23  C   UNL     1      27.609  40.879  49.670  1.00  0.00     0.210 C 
ENDBRANCH  17  22
ENDBRANCH  11  12
ENDBRANCH   3  11
BRANCH   1  24
HETATM   24  N   UNL     1      23.681  50.074  47.329  1.00  0.00    -0.281 NA
HETATM   25  C   UNL     1      24.999  50.122  47.945  1.00  0.00     0.114 C 
HETATM   26  H   UNL     1      23.342  51.004  47.095  1.00  0.00     0.128 HD
ENDBRANCH   1  24
TORSDOF 4
ENDMDL
