MODEL 1
REMARK VINA RESULT:      -7.3      0.000      0.000
REMARK  6 active torsions:
REMARK  status: ('A' for Active; 'I' for Inactive)
REMARK    1  A    between atoms: C_2  and  C_3 
REMARK    2  A    between atoms: C_7  and  O_8 
REMARK    3  A    between atoms: O_8  and  C_9 
REMARK    4  A    between atoms: C_9  and  C_10 
REMARK       I    between atoms: C_10  and  N_11 
REMARK    5  A    between atoms: N_11  and  N_12 
REMARK    6  A    between atoms: C_13  and  C_14 
ROOT
HETATM    1  C   UNL     1      33.240  51.814  40.104  1.00  0.00     0.261 C 
HETATM    2  N   UNL     1      33.561  50.717  40.887  1.00  0.00    -0.246 N 
HETATM    3  O   UNL     1      33.087  52.964  40.515  1.00  0.00    -0.269 OA
HETATM    4  H   UNL     1      33.605  49.797  40.462  1.00  0.00     0.192 HD
ENDROOT
BRANCH   1   5
HETATM    5  C   UNL     1      32.999  51.462  38.639  1.00  0.00     0.280 C 
BRANCH   5   6
HETATM    6  O   UNL     1      31.660  51.746  38.236  1.00  0.00    -0.341 OA
BRANCH   6   7
HETATM    7  C   UNL     1      30.779  50.707  38.402  1.00  0.00     0.086 A 
HETATM    8  C   UNL     1      29.414  50.964  38.248  1.00  0.00     0.044 A 
HETATM    9  C   UNL     1      28.474  49.933  38.391  1.00  0.00     0.029 A 
HETATM   10 BR   UNL     1      28.774  52.710  37.861  1.00  0.00    -0.048 Br
HETATM   11  C   UNL     1      28.869  48.610  38.668  1.00  0.00    -0.049 A 
HETATM   12  C   UNL     1      30.245  48.369  38.802  1.00  0.00     0.011 A 
HETATM   13  C   UNL     1      31.187  49.400  38.667  1.00  0.00     0.039 A 
BRANCH  11  14
HETATM   14  C   UNL     1      27.814  47.497  38.811  1.00  0.00    -0.024 C 
HETATM   15  C   UNL     1      26.416  48.121  39.020  1.00  0.00     0.019 C 
HETATM   16  C   UNL     1      28.162  46.613  40.026  1.00  0.00     0.019 C 
HETATM   17  C   UNL     1      27.715  46.569  37.578  1.00  0.00     0.019 C 
ENDBRANCH  11  14
ENDBRANCH   6   7
ENDBRANCH   5   6
ENDBRANCH   1   5
BRANCH   2  18
HETATM   18  N   UNL     1      33.687  50.861  42.234  1.00  0.00    -0.184 NA
HETATM   19  C   UNL     1      32.699  50.580  43.028  1.00  0.00     0.152 C 
BRANCH  19  20
HETATM   20  C   UNL     1      31.408  50.012  42.689  1.00  0.00     0.011 A 
HETATM   21  C   UNL     1      30.259  50.753  42.250  1.00  0.00     0.004 A 
HETATM   22  C   UNL     1      29.209  49.848  42.088  1.00  0.00     0.043 A 
HETATM   23  C   UNL     1      30.018  52.115  41.971  1.00  0.00     0.014 A 
HETATM   24  C   UNL     1      27.932  50.237  41.667  1.00  0.00     0.030 A 
HETATM   25  N   UNL     1      29.691  48.606  42.427  1.00  0.00    -0.364 N 
HETATM   26  C   UNL     1      27.720  51.593  41.400  1.00  0.00     0.002 A 
HETATM   27  C   UNL     1      28.746  52.521  41.549  1.00  0.00     0.001 A 
HETATM   28  H   UNL     1      29.140  47.757  42.424  1.00  0.00     0.165 HD
HETATM   29  C   UNL     1      31.003  48.696  42.812  1.00  0.00     0.102 A 
ENDBRANCH  19  20
ENDBRANCH   2  18
TORSDOF 6
ENDMDL
MODEL 2
REMARK VINA RESULT:      -7.1     12.056     14.194
REMARK  6 active torsions:
REMARK  status: ('A' for Active; 'I' for Inactive)
REMARK    1  A    between atoms: C_2  and  C_3 
REMARK    2  A    between atoms: C_7  and  O_8 
REMARK    3  A    between atoms: O_8  and  C_9 
REMARK    4  A    between atoms: C_9  and  C_10 
REMARK       I    between atoms: C_10  and  N_11 
REMARK    5  A    between atoms: N_11  and  N_12 
REMARK    6  A    between atoms: C_13  and  C_14 
ROOT
HETATM    1  C   UNL     1      26.935  44.081  51.221  1.00  0.00     0.261 C 
HETATM    2  N   UNL     1      27.355  43.352  52.323  1.00  0.00    -0.246 N 
HETATM    3  O   UNL     1      27.585  44.252  50.190  1.00  0.00    -0.269 OA
HETATM    4  H   UNL     1      26.770  43.321  53.151  1.00  0.00     0.192 HD
ENDROOT
BRANCH   1   5
HETATM    5  C   UNL     1      25.580  44.752  51.420  1.00  0.00     0.280 C 
BRANCH   5   6
HETATM    6  O   UNL     1      24.787  44.711  50.234  1.00  0.00    -0.341 OA
BRANCH   6   7
HETATM    7  C   UNL     1      24.284  45.926  49.841  1.00  0.00     0.086 A 
HETATM    8  C   UNL     1      23.107  45.944  49.087  1.00  0.00     0.044 A 
HETATM    9  C   UNL     1      22.542  47.159  48.674  1.00  0.00     0.029 A 
HETATM   10 BR   UNL     1      22.237  44.335  48.575  1.00  0.00    -0.048 Br
HETATM   11  C   UNL     1      23.122  48.395  49.022  1.00  0.00    -0.049 A 
HETATM   12  C   UNL     1      24.293  48.357  49.793  1.00  0.00     0.011 A 
HETATM   13  C   UNL     1      24.864  47.142  50.201  1.00  0.00     0.039 A 
BRANCH  11  14
HETATM   14  C   UNL     1      22.475  49.714  48.561  1.00  0.00    -0.024 C 
HETATM   15  C   UNL     1      21.211  49.417  47.724  1.00  0.00     0.019 C 
HETATM   16  C   UNL     1      23.479  50.506  47.699  1.00  0.00     0.019 C 
HETATM   17  C   UNL     1      22.039  50.636  49.724  1.00  0.00     0.019 C 
ENDBRANCH  11  14
ENDBRANCH   6   7
ENDBRANCH   5   6
ENDBRANCH   1   5
BRANCH   2  18
HETATM   18  N   UNL     1      28.596  42.797  52.334  1.00  0.00    -0.184 NA
HETATM   19  C   UNL     1      29.497  43.198  53.178  1.00  0.00     0.152 C 
BRANCH  19  20
HETATM   20  C   UNL     1      29.355  44.163  54.252  1.00  0.00     0.011 A 
HETATM   21  C   UNL     1      30.085  44.151  55.488  1.00  0.00     0.004 A 
HETATM   22  C   UNL     1      29.613  45.206  56.268  1.00  0.00     0.043 A 
HETATM   23  C   UNL     1      31.112  43.337  56.014  1.00  0.00     0.014 A 
HETATM   24  C   UNL     1      30.110  45.486  57.547  1.00  0.00     0.030 A 
HETATM   25  N   UNL     1      28.623  45.832  55.546  1.00  0.00    -0.364 N 
HETATM   26  C   UNL     1      31.124  44.662  58.044  1.00  0.00     0.002 A 
HETATM   27  C   UNL     1      31.620  43.602  57.291  1.00  0.00     0.001 A 
HETATM   28  H   UNL     1      28.087  46.623  55.876  1.00  0.00     0.165 HD
HETATM   29  C   UNL     1      28.444  45.199  54.344  1.00  0.00     0.102 A 
ENDBRANCH  19  20
ENDBRANCH   2  18
TORSDOF 6
ENDMDL
MODEL 3
REMARK VINA RESULT:      -7.1     11.481     13.610
REMARK  6 active torsions:
REMARK  status: ('A' for Active; 'I' for Inactive)
REMARK    1  A    between atoms: C_2  and  C_3 
REMARK    2  A    between atoms: C_7  and  O_8 
REMARK    3  A    between atoms: O_8  and  C_9 
REMARK    4  A    between atoms: C_9  and  C_10 
REMARK       I    between atoms: C_10  and  N_11 
REMARK    5  A    between atoms: N_11  and  N_12 
REMARK    6  A    between atoms: C_13  and  C_14 
ROOT
HETATM    1  C   UNL     1      25.431  47.159  51.043  1.00  0.00     0.261 C 
HETATM    2  N   UNL     1      25.168  46.800  52.355  1.00  0.00    -0.246 N 
HETATM    3  O   UNL     1      26.247  48.008  50.685  1.00  0.00    -0.269 OA
HETATM    4  H   UNL     1      24.431  46.131  52.550  1.00  0.00     0.192 HD
ENDROOT
BRANCH   1   5
HETATM    5  C   UNL     1      24.535  46.452  50.031  1.00  0.00     0.280 C 
BRANCH   5   6
HETATM    6  O   UNL     1      24.387  47.208  48.830  1.00  0.00    -0.341 OA
BRANCH   6   7
HETATM    7  C   UNL     1      23.234  47.948  48.758  1.00  0.00     0.086 A 
HETATM    8  C   UNL     1      23.337  49.308  48.449  1.00  0.00     0.044 A 
HETATM    9  C   UNL     1      22.188  50.105  48.347  1.00  0.00     0.029 A 
HETATM   10 BR   UNL     1      25.025  50.134  48.177  1.00  0.00    -0.048 Br
HETATM   11  C   UNL     1      20.899  49.565  48.525  1.00  0.00    -0.049 A 
HETATM   12  C   UNL     1      20.816  48.195  48.817  1.00  0.00     0.011 A 
HETATM   13  C   UNL     1      21.964  47.396  48.927  1.00  0.00     0.039 A 
BRANCH  11  14
HETATM   14  C   UNL     1      19.655  50.463  48.398  1.00  0.00    -0.024 C 
HETATM   15  C   UNL     1      20.068  51.949  48.483  1.00  0.00     0.019 C 
HETATM   16  C   UNL     1      18.672  50.144  49.543  1.00  0.00     0.019 C 
HETATM   17  C   UNL     1      18.888  50.284  47.068  1.00  0.00     0.019 C 
ENDBRANCH  11  14
ENDBRANCH   6   7
ENDBRANCH   5   6
ENDBRANCH   1   5
BRANCH   2  18
HETATM   18  N   UNL     1      25.809  47.436  53.372  1.00  0.00    -0.184 NA
HETATM   19  C   UNL     1      26.701  46.820  54.085  1.00  0.00     0.152 C 
BRANCH  19  20
HETATM   20  C   UNL     1      27.227  45.480  53.903  1.00  0.00     0.011 A 
HETATM   21  C   UNL     1      28.401  44.950  54.536  1.00  0.00     0.004 A 
HETATM   22  C   UNL     1      28.596  43.656  54.051  1.00  0.00     0.043 A 
HETATM   23  C   UNL     1      29.318  45.455  55.484  1.00  0.00     0.014 A 
HETATM   24  C   UNL     1      29.661  42.845  54.462  1.00  0.00     0.030 A 
HETATM   25  N   UNL     1      27.590  43.408  53.148  1.00  0.00    -0.364 N 
HETATM   26  C   UNL     1      30.555  43.371  55.399  1.00  0.00     0.002 A 
HETATM   27  C   UNL     1      30.389  44.657  55.905  1.00  0.00     0.001 A 
HETATM   28  H   UNL     1      27.492  42.550  52.622  1.00  0.00     0.165 HD
HETATM   29  C   UNL     1      26.776  44.504  53.033  1.00  0.00     0.102 A 
ENDBRANCH  19  20
ENDBRANCH   2  18
TORSDOF 6
ENDMDL
MODEL 4
REMARK VINA RESULT:      -7.1     11.997     14.141
REMARK  6 active torsions:
REMARK  status: ('A' for Active; 'I' for Inactive)
REMARK    1  A    between atoms: C_2  and  C_3 
REMARK    2  A    between atoms: C_7  and  O_8 
REMARK    3  A    between atoms: O_8  and  C_9 
REMARK    4  A    between atoms: C_9  and  C_10 
REMARK       I    between atoms: C_10  and  N_11 
REMARK    5  A    between atoms: N_11  and  N_12 
REMARK    6  A    between atoms: C_13  and  C_14 
ROOT
HETATM    1  C   UNL     1      24.903  45.081  51.270  1.00  0.00     0.261 C 
HETATM    2  N   UNL     1      26.218  44.666  51.417  1.00  0.00    -0.246 N 
HETATM    3  O   UNL     1      23.909  44.411  51.548  1.00  0.00    -0.269 OA
HETATM    4  H   UNL     1      26.969  45.270  51.101  1.00  0.00     0.192 HD
ENDROOT
BRANCH   1   5
HETATM    5  C   UNL     1      24.772  46.460  50.633  1.00  0.00     0.280 C 
BRANCH   5   6
HETATM    6  O   UNL     1      24.202  46.392  49.326  1.00  0.00    -0.341 OA
BRANCH   6   7
HETATM    7  C   UNL     1      23.236  47.334  49.073  1.00  0.00     0.086 A 
HETATM    8  C   UNL     1      21.993  46.899  48.606  1.00  0.00     0.044 A 
HETATM    9  C   UNL     1      20.966  47.819  48.348  1.00  0.00     0.029 A 
HETATM   10 BR   UNL     1      21.647  45.059  48.282  1.00  0.00    -0.048 Br
HETATM   11  C   UNL     1      21.142  49.198  48.572  1.00  0.00    -0.049 A 
HETATM   12  C   UNL     1      22.391  49.613  49.058  1.00  0.00     0.011 A 
HETATM   13  C   UNL     1      23.422  48.696  49.310  1.00  0.00     0.039 A 
BRANCH  11  14
HETATM   14  C   UNL     1      19.993  50.184  48.288  1.00  0.00    -0.024 C 
HETATM   15  C   UNL     1      20.452  51.628  48.586  1.00  0.00     0.019 C 
HETATM   16  C   UNL     1      18.786  49.840  49.185  1.00  0.00     0.019 C 
HETATM   17  C   UNL     1      19.499  50.162  46.823  1.00  0.00     0.019 C 
ENDBRANCH  11  14
ENDBRANCH   6   7
ENDBRANCH   5   6
ENDBRANCH   1   5
BRANCH   2  18
HETATM   18  N   UNL     1      26.485  43.409  51.862  1.00  0.00    -0.184 NA
HETATM   19  C   UNL     1      27.187  43.220  52.938  1.00  0.00     0.152 C 
BRANCH  19  20
HETATM   20  C   UNL     1      27.702  44.214  53.861  1.00  0.00     0.011 A 
HETATM   21  C   UNL     1      28.891  44.082  54.653  1.00  0.00     0.004 A 
HETATM   22  C   UNL     1      29.000  45.224  55.446  1.00  0.00     0.043 A 
HETATM   23  C   UNL     1      29.891  43.091  54.766  1.00  0.00     0.014 A 
HETATM   24  C   UNL     1      30.054  45.424  56.347  1.00  0.00     0.030 A 
HETATM   25  N   UNL     1      27.915  46.019  55.161  1.00  0.00    -0.364 N 
HETATM   26  C   UNL     1      31.027  44.425  56.441  1.00  0.00     0.002 A 
HETATM   27  C   UNL     1      30.950  43.274  55.662  1.00  0.00     0.001 A 
HETATM   28  H   UNL     1      27.723  46.907  55.606  1.00  0.00     0.165 HD
HETATM   29  C   UNL     1      27.117  45.412  54.228  1.00  0.00     0.102 A 
ENDBRANCH  19  20
ENDBRANCH   2  18
TORSDOF 6
ENDMDL
MODEL 5
REMARK VINA RESULT:      -7.1     11.576     13.767
REMARK  6 active torsions:
REMARK  status: ('A' for Active; 'I' for Inactive)
REMARK    1  A    between atoms: C_2  and  C_3 
REMARK    2  A    between atoms: C_7  and  O_8 
REMARK    3  A    between atoms: O_8  and  C_9 
REMARK    4  A    between atoms: C_9  and  C_10 
REMARK       I    between atoms: C_10  and  N_11 
REMARK    5  A    between atoms: N_11  and  N_12 
REMARK    6  A    between atoms: C_13  and  C_14 
ROOT
HETATM    1  C   UNL     1      25.565  46.899  51.850  1.00  0.00     0.261 C 
HETATM    2  N   UNL     1      25.413  45.522  51.832  1.00  0.00    -0.246 N 
HETATM    3  O   UNL     1      25.176  47.648  52.745  1.00  0.00    -0.269 OA
HETATM    4  H   UNL     1      25.714  44.998  51.017  1.00  0.00     0.192 HD
ENDROOT
BRANCH   1   5
HETATM    5  C   UNL     1      26.209  47.453  50.582  1.00  0.00     0.280 C 
BRANCH   5   6
HETATM    6  O   UNL     1      25.479  47.090  49.411  1.00  0.00    -0.341 OA
BRANCH   6   7
HETATM    7  C   UNL     1      24.327  47.808  49.210  1.00  0.00     0.086 A 
HETATM    8  C   UNL     1      23.136  47.106  49.001  1.00  0.00     0.044 A 
HETATM    9  C   UNL     1      21.929  47.792  48.807  1.00  0.00     0.029 A 
HETATM   10 BR   UNL     1      23.104  45.208  48.948  1.00  0.00    -0.048 Br
HETATM   11  C   UNL     1      21.868  49.199  48.841  1.00  0.00    -0.049 A 
HETATM   12  C   UNL     1      23.071  49.885  49.070  1.00  0.00     0.011 A 
HETATM   13  C   UNL     1      24.281  49.201  49.257  1.00  0.00     0.039 A 
BRANCH  11  14
HETATM   14  C   UNL     1      20.526  49.925  48.634  1.00  0.00    -0.024 C 
HETATM   15  C   UNL     1      19.835  49.400  47.356  1.00  0.00     0.019 C 
HETATM   16  C   UNL     1      20.777  51.440  48.489  1.00  0.00     0.019 C 
HETATM   17  C   UNL     1      19.526  49.733  49.798  1.00  0.00     0.019 C 
ENDBRANCH  11  14
ENDBRANCH   6   7
ENDBRANCH   5   6
ENDBRANCH   1   5
BRANCH   2  18
HETATM   18  N   UNL     1      24.748  44.902  52.843  1.00  0.00    -0.184 NA
HETATM   19  C   UNL     1      25.385  44.451  53.880  1.00  0.00     0.152 C 
BRANCH  19  20
HETATM   20  C   UNL     1      26.794  44.589  54.198  1.00  0.00     0.011 A 
HETATM   21  C   UNL     1      27.836  43.697  53.777  1.00  0.00     0.004 A 
HETATM   22  C   UNL     1      29.031  44.146  54.340  1.00  0.00     0.043 A 
HETATM   23  C   UNL     1      27.873  42.545  52.960  1.00  0.00     0.014 A 
HETATM   24  C   UNL     1      30.257  43.501  54.133  1.00  0.00     0.030 A 
HETATM   25  N   UNL     1      28.731  45.260  55.088  1.00  0.00    -0.364 N 
HETATM   26  C   UNL     1      30.263  42.362  53.323  1.00  0.00     0.002 A 
HETATM   27  C   UNL     1      29.090  41.888  52.744  1.00  0.00     0.001 A 
HETATM   28  H   UNL     1      29.405  45.785  55.629  1.00  0.00     0.165 HD
HETATM   29  C   UNL     1      27.387  45.521  55.029  1.00  0.00     0.102 A 
ENDBRANCH  19  20
ENDBRANCH   2  18
TORSDOF 6
ENDMDL
MODEL 6
REMARK VINA RESULT:      -7.0      3.044      6.452
REMARK  6 active torsions:
REMARK  status: ('A' for Active; 'I' for Inactive)
REMARK    1  A    between atoms: C_2  and  C_3 
REMARK    2  A    between atoms: C_7  and  O_8 
REMARK    3  A    between atoms: O_8  and  C_9 
REMARK    4  A    between atoms: C_9  and  C_10 
REMARK       I    between atoms: C_10  and  N_11 
REMARK    5  A    between atoms: N_11  and  N_12 
REMARK    6  A    between atoms: C_13  and  C_14 
ROOT
HETATM    1  C   UNL     1      29.602  49.229  41.313  1.00  0.00     0.261 C 
HETATM    2  N   UNL     1      28.952  50.383  41.723  1.00  0.00    -0.246 N 
HETATM    3  O   UNL     1      29.527  48.729  40.191  1.00  0.00    -0.269 OA
HETATM    4  H   UNL     1      29.030  50.681  42.689  1.00  0.00     0.192 HD
ENDROOT
BRANCH   1   5
HETATM    5  C   UNL     1      30.390  48.550  42.428  1.00  0.00     0.280 C 
BRANCH   5   6
HETATM    6  O   UNL     1      31.120  49.491  43.214  1.00  0.00    -0.341 OA
BRANCH   6   7
HETATM    7  C   UNL     1      32.347  49.835  42.702  1.00  0.00     0.086 A 
HETATM    8  C   UNL     1      32.994  50.956  43.228  1.00  0.00     0.044 A 
HETATM    9  C   UNL     1      34.256  51.340  42.752  1.00  0.00     0.029 A 
HETATM   10 BR   UNL     1      32.191  52.016  44.585  1.00  0.00    -0.048 Br
HETATM   11  C   UNL     1      34.921  50.601  41.754  1.00  0.00    -0.049 A 
HETATM   12  C   UNL     1      34.263  49.468  41.251  1.00  0.00     0.011 A 
HETATM   13  C   UNL     1      32.997  49.087  41.721  1.00  0.00     0.039 A 
BRANCH  11  14
HETATM   14  C   UNL     1      36.311  51.042  41.257  1.00  0.00    -0.024 C 
HETATM   15  C   UNL     1      37.402  50.532  42.224  1.00  0.00     0.019 C 
HETATM   16  C   UNL     1      36.369  52.582  41.192  1.00  0.00     0.019 C 
HETATM   17  C   UNL     1      36.669  50.507  39.850  1.00  0.00     0.019 C 
ENDBRANCH  11  14
ENDBRANCH   6   7
ENDBRANCH   5   6
ENDBRANCH   1   5
BRANCH   2  18
HETATM   18  N   UNL     1      28.117  51.030  40.866  1.00  0.00    -0.184 NA
HETATM   19  C   UNL     1      28.496  52.113  40.260  1.00  0.00     0.152 C 
BRANCH  19  20
HETATM   20  C   UNL     1      29.800  52.749  40.287  1.00  0.00     0.011 A 
HETATM   21  C   UNL     1      30.972  52.279  39.605  1.00  0.00     0.004 A 
HETATM   22  C   UNL     1      32.025  53.134  39.936  1.00  0.00     0.043 A 
HETATM   23  C   UNL     1      31.234  51.203  38.730  1.00  0.00     0.014 A 
HETATM   24  C   UNL     1      33.324  52.964  39.440  1.00  0.00     0.030 A 
HETATM   25  N   UNL     1      31.521  54.081  40.796  1.00  0.00    -0.364 N 
HETATM   26  C   UNL     1      33.555  51.888  38.579  1.00  0.00     0.002 A 
HETATM   27  C   UNL     1      32.527  51.018  38.226  1.00  0.00     0.001 A 
HETATM   28  H   UNL     1      32.067  54.820  41.217  1.00  0.00     0.165 HD
HETATM   29  C   UNL     1      30.192  53.845  41.033  1.00  0.00     0.102 A 
ENDBRANCH  19  20
ENDBRANCH   2  18
TORSDOF 6
ENDMDL
MODEL 7
REMARK VINA RESULT:      -6.8     12.281     14.452
REMARK  6 active torsions:
REMARK  status: ('A' for Active; 'I' for Inactive)
REMARK    1  A    between atoms: C_2  and  C_3 
REMARK    2  A    between atoms: C_7  and  O_8 
REMARK    3  A    between atoms: O_8  and  C_9 
REMARK    4  A    between atoms: C_9  and  C_10 
REMARK       I    between atoms: C_10  and  N_11 
REMARK    5  A    between atoms: N_11  and  N_12 
REMARK    6  A    between atoms: C_13  and  C_14 
ROOT
HETATM    1  C   UNL     1      22.016  47.106  48.267  1.00  0.00     0.261 C 
HETATM    2  N   UNL     1      20.997  46.485  48.970  1.00  0.00    -0.246 N 
HETATM    3  O   UNL     1      21.936  47.519  47.110  1.00  0.00    -0.269 OA
HETATM    4  H   UNL     1      21.181  46.125  49.900  1.00  0.00     0.192 HD
ENDROOT
BRANCH   1   5
HETATM    5  C   UNL     1      23.331  47.172  49.038  1.00  0.00     0.280 C 
BRANCH   5   6
HETATM    6  O   UNL     1      23.935  45.886  49.171  1.00  0.00    -0.341 OA
BRANCH   6   7
HETATM    7  C   UNL     1      24.641  45.703  50.334  1.00  0.00     0.086 A 
HETATM    8  C   UNL     1      24.624  44.437  50.926  1.00  0.00     0.044 A 
HETATM    9  C   UNL     1      25.342  44.192  52.106  1.00  0.00     0.029 A 
HETATM   10 BR   UNL     1      23.621  43.008  50.178  1.00  0.00    -0.048 Br
HETATM   11  C   UNL     1      26.117  45.197  52.717  1.00  0.00    -0.049 A 
HETATM   12  C   UNL     1      26.135  46.456  52.098  1.00  0.00     0.011 A 
HETATM   13  C   UNL     1      25.412  46.705  50.921  1.00  0.00     0.039 A 
BRANCH  11  14
HETATM   14  C   UNL     1      26.902  44.897  54.008  1.00  0.00    -0.024 C 
HETATM   15  C   UNL     1      26.129  43.872  54.867  1.00  0.00     0.019 C 
HETATM   16  C   UNL     1      27.084  46.199  54.813  1.00  0.00     0.019 C 
HETATM   17  C   UNL     1      28.309  44.307  53.760  1.00  0.00     0.019 C 
ENDBRANCH  11  14
ENDBRANCH   6   7
ENDBRANCH   5   6
ENDBRANCH   1   5
BRANCH   2  18
HETATM   18  N   UNL     1      19.802  46.250  48.365  1.00  0.00    -0.184 NA
HETATM   19  C   UNL     1      18.780  47.019  48.588  1.00  0.00     0.152 C 
BRANCH  19  20
HETATM   20  C   UNL     1      18.727  48.235  49.378  1.00  0.00     0.011 A 
HETATM   21  C   UNL     1      18.858  49.569  48.868  1.00  0.00     0.004 A 
HETATM   22  C   UNL     1      18.811  50.445  49.953  1.00  0.00     0.043 A 
HETATM   23  C   UNL     1      19.010  50.115  47.574  1.00  0.00     0.014 A 
HETATM   24  C   UNL     1      18.912  51.834  49.812  1.00  0.00     0.030 A 
HETATM   25  N   UNL     1      18.670  49.677  51.085  1.00  0.00    -0.364 N 
HETATM   26  C   UNL     1      19.064  52.347  48.520  1.00  0.00     0.002 A 
HETATM   27  C   UNL     1      19.113  51.502  47.415  1.00  0.00     0.001 A 
HETATM   28  H   UNL     1      18.629  50.045  52.026  1.00  0.00     0.165 HD
HETATM   29  C   UNL     1      18.643  48.347  50.754  1.00  0.00     0.102 A 
ENDBRANCH  19  20
ENDBRANCH   2  18
TORSDOF 6
ENDMDL
MODEL 8
REMARK VINA RESULT:      -6.8     11.778     13.666
REMARK  6 active torsions:
REMARK  status: ('A' for Active; 'I' for Inactive)
REMARK    1  A    between atoms: C_2  and  C_3 
REMARK    2  A    between atoms: C_7  and  O_8 
REMARK    3  A    between atoms: O_8  and  C_9 
REMARK    4  A    between atoms: C_9  and  C_10 
REMARK       I    between atoms: C_10  and  N_11 
REMARK    5  A    between atoms: N_11  and  N_12 
REMARK    6  A    between atoms: C_13  and  C_14 
ROOT
HETATM    1  C   UNL     1      24.566  47.652  50.133  1.00  0.00     0.261 C 
HETATM    2  N   UNL     1      24.521  47.090  51.400  1.00  0.00    -0.246 N 
HETATM    3  O   UNL     1      25.350  48.527  49.769  1.00  0.00    -0.269 OA
HETATM    4  H   UNL     1      23.795  46.417  51.621  1.00  0.00     0.192 HD
ENDROOT
BRANCH   1   5
HETATM    5  C   UNL     1      23.469  47.139  49.206  1.00  0.00     0.280 C 
BRANCH   5   6
HETATM    6  O   UNL     1      23.250  48.019  48.103  1.00  0.00    -0.341 OA
BRANCH   6   7
HETATM    7  C   UNL     1      22.142  48.820  48.222  1.00  0.00     0.086 A 
HETATM    8  C   UNL     1      20.946  48.388  47.641  1.00  0.00     0.044 A 
HETATM    9  C   UNL     1      19.781  49.161  47.747  1.00  0.00     0.029 A 
HETATM   10 BR   UNL     1      20.851  46.758  46.671  1.00  0.00    -0.048 Br
HETATM   11  C   UNL     1      19.768  50.377  48.458  1.00  0.00    -0.049 A 
HETATM   12  C   UNL     1      20.973  50.785  49.049  1.00  0.00     0.011 A 
HETATM   13  C   UNL     1      22.142  50.017  48.938  1.00  0.00     0.039 A 
BRANCH  11  14
HETATM   14  C   UNL     1      18.471  51.200  48.566  1.00  0.00    -0.024 C 
HETATM   15  C   UNL     1      18.290  52.067  47.300  1.00  0.00     0.019 C 
HETATM   16  C   UNL     1      18.546  52.119  49.803  1.00  0.00     0.019 C 
HETATM   17  C   UNL     1      17.194  50.339  48.708  1.00  0.00     0.019 C 
ENDBRANCH  11  14
ENDBRANCH   6   7
ENDBRANCH   5   6
ENDBRANCH   1   5
BRANCH   2  18
HETATM   18  N   UNL     1      25.364  47.538  52.368  1.00  0.00    -0.184 NA
HETATM   19  C   UNL     1      26.076  46.706  53.067  1.00  0.00     0.152 C 
BRANCH  19  20
HETATM   20  C   UNL     1      26.187  45.268  52.911  1.00  0.00     0.011 A 
HETATM   21  C   UNL     1      27.269  44.457  53.390  1.00  0.00     0.004 A 
HETATM   22  C   UNL     1      27.026  43.144  52.984  1.00  0.00     0.043 A 
HETATM   23  C   UNL     1      28.438  44.720  54.138  1.00  0.00     0.014 A 
HETATM   24  C   UNL     1      27.892  42.085  53.284  1.00  0.00     0.030 A 
HETATM   25  N   UNL     1      25.849  43.152  52.274  1.00  0.00    -0.364 N 
HETATM   26  C   UNL     1      29.042  42.375  54.023  1.00  0.00     0.002 A 
HETATM   27  C   UNL     1      29.314  43.673  54.445  1.00  0.00     0.001 A 
HETATM   28  H   UNL     1      25.436  42.338  51.840  1.00  0.00     0.165 HD
HETATM   29  C   UNL     1      25.348  44.426  52.203  1.00  0.00     0.102 A 
ENDBRANCH  19  20
ENDBRANCH   2  18
TORSDOF 6
ENDMDL
MODEL 9
REMARK VINA RESULT:      -6.7     12.213     14.153
REMARK  6 active torsions:
REMARK  status: ('A' for Active; 'I' for Inactive)
REMARK    1  A    between atoms: C_2  and  C_3 
REMARK    2  A    between atoms: C_7  and  O_8 
REMARK    3  A    between atoms: O_8  and  C_9 
REMARK    4  A    between atoms: C_9  and  C_10 
REMARK       I    between atoms: C_10  and  N_11 
REMARK    5  A    between atoms: N_11  and  N_12 
REMARK    6  A    between atoms: C_13  and  C_14 
ROOT
HETATM    1  C   UNL     1      19.034  45.559  47.527  1.00  0.00     0.261 C 
HETATM    2  N   UNL     1      18.264  46.695  47.335  1.00  0.00    -0.246 N 
HETATM    3  O   UNL     1      18.703  44.577  48.190  1.00  0.00    -0.269 OA
HETATM    4  H   UNL     1      18.652  47.478  46.820  1.00  0.00     0.192 HD
ENDROOT
BRANCH   1   5
HETATM    5  C   UNL     1      20.419  45.652  46.893  1.00  0.00     0.280 C 
BRANCH   5   6
HETATM    6  O   UNL     1      21.131  46.806  47.338  1.00  0.00    -0.341 OA
BRANCH   6   7
HETATM    7  C   UNL     1      22.179  46.540  48.184  1.00  0.00     0.086 A 
HETATM    8  C   UNL     1      22.916  47.616  48.686  1.00  0.00     0.044 A 
HETATM    9  C   UNL     1      23.985  47.400  49.567  1.00  0.00     0.029 A 
HETATM   10 BR   UNL     1      22.519  49.405  48.185  1.00  0.00    -0.048 Br
HETATM   11  C   UNL     1      24.336  46.104  49.994  1.00  0.00    -0.049 A 
HETATM   12  C   UNL     1      23.573  45.038  49.493  1.00  0.00     0.011 A 
HETATM   13  C   UNL     1      22.508  45.251  48.606  1.00  0.00     0.039 A 
BRANCH  11  14
HETATM   14  C   UNL     1      25.509  45.898  50.969  1.00  0.00    -0.024 C 
HETATM   15  C   UNL     1      26.728  45.324  50.213  1.00  0.00     0.019 C 
HETATM   16  C   UNL     1      25.089  44.911  52.078  1.00  0.00     0.019 C 
HETATM   17  C   UNL     1      25.980  47.198  51.663  1.00  0.00     0.019 C 
ENDBRANCH  11  14
ENDBRANCH   6   7
ENDBRANCH   5   6
ENDBRANCH   1   5
BRANCH   2  18
HETATM   18  N   UNL     1      17.052  46.801  47.942  1.00  0.00    -0.184 NA
HETATM   19  C   UNL     1      16.884  47.596  48.955  1.00  0.00     0.152 C 
BRANCH  19  20
HETATM   20  C   UNL     1      17.835  48.525  49.536  1.00  0.00     0.011 A 
HETATM   21  C   UNL     1      18.185  49.808  48.998  1.00  0.00     0.004 A 
HETATM   22  C   UNL     1      19.173  50.355  49.817  1.00  0.00     0.043 A 
HETATM   23  C   UNL     1      17.747  50.559  47.885  1.00  0.00     0.014 A 
HETATM   24  C   UNL     1      19.747  51.610  49.578  1.00  0.00     0.030 A 
HETATM   25  N   UNL     1      19.428  49.439  50.810  1.00  0.00    -0.364 N 
HETATM   26  C   UNL     1      19.297  52.330  48.468  1.00  0.00     0.002 A 
HETATM   27  C   UNL     1      18.311  51.815  47.631  1.00  0.00     0.001 A 
HETATM   28  H   UNL     1      20.118  49.561  51.539  1.00  0.00     0.165 HD
HETATM   29  C   UNL     1      18.647  48.326  50.637  1.00  0.00     0.102 A 
ENDBRANCH  19  20
ENDBRANCH   2  18
TORSDOF 6
ENDMDL
MODEL 10
REMARK VINA RESULT:      -6.4      2.782      4.468
REMARK  6 active torsions:
REMARK  status: ('A' for Active; 'I' for Inactive)
REMARK    1  A    between atoms: C_2  and  C_3 
REMARK    2  A    between atoms: C_7  and  O_8 
REMARK    3  A    between atoms: O_8  and  C_9 
REMARK    4  A    between atoms: C_9  and  C_10 
REMARK       I    between atoms: C_10  and  N_11 
REMARK    5  A    between atoms: N_11  and  N_12 
REMARK    6  A    between atoms: C_13  and  C_14 
ROOT
HETATM    1  C   UNL     1      28.085  52.064  40.231  1.00  0.00     0.261 C 
HETATM    2  N   UNL     1      29.173  52.678  39.631  1.00  0.00    -0.246 N 
HETATM    3  O   UNL     1      27.621  52.354  41.333  1.00  0.00    -0.269 OA
HETATM    4  H   UNL     1      29.519  52.324  38.745  1.00  0.00     0.192 HD
ENDROOT
BRANCH   1   5
HETATM    5  C   UNL     1      27.530  50.894  39.424  1.00  0.00     0.280 C 
BRANCH   5   6
HETATM    6  O   UNL     1      28.430  49.787  39.403  1.00  0.00    -0.341 OA
BRANCH   6   7
HETATM    7  C   UNL     1      27.886  48.600  39.828  1.00  0.00     0.086 A 
HETATM    8  C   UNL     1      28.647  47.436  39.691  1.00  0.00     0.044 A 
HETATM    9  C   UNL     1      28.144  46.200  40.125  1.00  0.00     0.029 A 
HETATM   10 BR   UNL     1      30.374  47.470  38.900  1.00  0.00    -0.048 Br
HETATM   11  C   UNL     1      26.877  46.093  40.730  1.00  0.00    -0.049 A 
HETATM   12  C   UNL     1      26.136  47.276  40.874  1.00  0.00     0.011 A 
HETATM   13  C   UNL     1      26.633  48.512  40.434  1.00  0.00     0.039 A 
BRANCH  11  14
HETATM   14  C   UNL     1      26.355  44.724  41.204  1.00  0.00    -0.024 C 
HETATM   15  C   UNL     1      25.141  44.299  40.350  1.00  0.00     0.019 C 
HETATM   16  C   UNL     1      25.926  44.821  42.683  1.00  0.00     0.019 C 
HETATM   17  C   UNL     1      27.399  43.588  41.100  1.00  0.00     0.019 C 
ENDBRANCH  11  14
ENDBRANCH   6   7
ENDBRANCH   5   6
ENDBRANCH   1   5
BRANCH   2  18
HETATM   18  N   UNL     1      29.845  53.659  40.291  1.00  0.00    -0.184 NA
HETATM   19  C   UNL     1      31.053  53.463  40.725  1.00  0.00     0.152 C 
BRANCH  19  20
HETATM   20  C   UNL     1      31.899  52.301  40.530  1.00  0.00     0.011 A 
HETATM   21  C   UNL     1      31.755  51.040  41.201  1.00  0.00     0.004 A 
HETATM   22  C   UNL     1      32.798  50.215  40.780  1.00  0.00     0.043 A 
HETATM   23  C   UNL     1      30.825  50.523  42.129  1.00  0.00     0.014 A 
HETATM   24  C   UNL     1      32.961  48.903  41.242  1.00  0.00     0.030 A 
HETATM   25  N   UNL     1      33.559  50.944  39.897  1.00  0.00    -0.364 N 
HETATM   26  C   UNL     1      32.028  48.418  42.163  1.00  0.00     0.002 A 
HETATM   27  C   UNL     1      30.974  49.214  42.602  1.00  0.00     0.001 A 
HETATM   28  H   UNL     1      34.397  50.604  39.446  1.00  0.00     0.165 HD
HETATM   29  C   UNL     1      33.042  52.206  39.758  1.00  0.00     0.102 A 
ENDBRANCH  19  20
ENDBRANCH   2  18
TORSDOF 6
ENDMDL
