MODEL 1
REMARK VINA RESULT:      -8.8      0.000      0.000
REMARK  2 active torsions:
REMARK  status: ('A' for Active; 'I' for Inactive)
REMARK    1  A    between atoms: C_8  and  N_9 
REMARK    2  A    between atoms: N_9  and  C_10 
ROOT
HETATM    1  N   UNL     1      20.752  49.273  49.774  1.00  0.00    -0.340 N 
HETATM    2  H   UNL     1      20.600  49.788  50.627  1.00  0.00     0.167 HD
ENDROOT
BRANCH   1   3
HETATM    3  C   UNL     1      19.587  48.674  49.268  1.00  0.00     0.143 A 
HETATM    4  C   UNL     1      18.410  49.420  48.987  1.00  0.00     0.053 A 
HETATM    5  C   UNL     1      18.012  50.811  49.197  1.00  0.00    -0.032 A 
HETATM    6  C   UNL     1      17.375  48.705  48.398  1.00  0.00     0.114 A 
HETATM    7  C   UNL     1      18.848  51.851  49.876  1.00  0.00     0.050 C 
HETATM    8  C   UNL     1      16.740  51.060  48.695  1.00  0.00    -0.012 A 
HETATM    9  S   UNL     1      16.016  49.658  48.048  1.00  0.00    -0.074 SA
HETATM   10  C   UNL     1      15.976  52.345  48.684  1.00  0.00     0.057 C 
HETATM   11  N   UNL     1      17.365  47.398  48.094  1.00  0.00    -0.234 NA
HETATM   12  C   UNL     1      18.501  46.792  48.424  1.00  0.00     0.236 A 
HETATM   13  N   UNL     1      19.583  47.349  48.979  1.00  0.00    -0.223 NA
ENDBRANCH   1   3
BRANCH   1  14
HETATM   14  C   UNL     1      22.019  49.482  49.199  1.00  0.00     0.036 A 
HETATM   15  C   UNL     1      23.031  48.538  49.433  1.00  0.00     0.069 A 
HETATM   16  C   UNL     1      24.320  48.718  48.924  1.00  0.00     0.104 A 
HETATM   17  C   UNL     1      24.610  49.831  48.135  1.00  0.00     0.102 A 
HETATM   18  O   UNL     1      25.220  47.715  49.163  1.00  0.00    -0.348 OA
HETATM   19  O   UNL     1      25.815  50.021  47.520  1.00  0.00    -0.348 OA
HETATM   20  C   UNL     1      23.608  50.758  47.861  1.00  0.00     0.042 A 
HETATM   21  C   UNL     1      26.878  50.179  48.459  1.00  0.00     0.178 C 
HETATM   22  C   UNL     1      27.385  48.841  48.975  1.00  0.00     0.053 C 
HETATM   23  C   UNL     1      26.361  48.179  49.885  1.00  0.00     0.178 C 
HETATM   24  C   UNL     1      22.330  50.592  48.405  1.00  0.00     0.032 A 
ENDBRANCH   1  14
TORSDOF 2
ENDMDL
MODEL 2
REMARK VINA RESULT:      -8.7      8.995     11.678
REMARK  2 active torsions:
REMARK  status: ('A' for Active; 'I' for Inactive)
REMARK    1  A    between atoms: C_8  and  N_9 
REMARK    2  A    between atoms: N_9  and  C_10 
ROOT
HETATM    1  N   UNL     1      27.099  43.055  53.215  1.00  0.00    -0.340 N 
HETATM    2  H   UNL     1      26.358  42.541  53.665  1.00  0.00     0.167 HD
ENDROOT
BRANCH   1   3
HETATM    3  C   UNL     1      27.004  43.061  51.814  1.00  0.00     0.143 A 
HETATM    4  C   UNL     1      27.483  41.986  51.016  1.00  0.00     0.053 A 
HETATM    5  C   UNL     1      28.223  40.758  51.301  1.00  0.00    -0.032 A 
HETATM    6  C   UNL     1      27.228  42.092  49.655  1.00  0.00     0.114 A 
HETATM    7  C   UNL     1      28.732  40.355  52.651  1.00  0.00     0.050 C 
HETATM    8  C   UNL     1      28.415  39.999  50.153  1.00  0.00    -0.012 A 
HETATM    9  S   UNL     1      27.784  40.760  48.764  1.00  0.00    -0.074 SA
HETATM   10  C   UNL     1      29.096  38.675  50.012  1.00  0.00     0.057 C 
HETATM   11  N   UNL     1      26.607  43.100  49.024  1.00  0.00    -0.234 NA
HETATM   12  C   UNL     1      26.228  44.063  49.858  1.00  0.00     0.236 A 
HETATM   13  N   UNL     1      26.389  44.093  51.185  1.00  0.00    -0.223 NA
ENDBRANCH   1   3
BRANCH   1  14
HETATM   14  C   UNL     1      27.884  43.817  54.100  1.00  0.00     0.036 A 
HETATM   15  C   UNL     1      29.130  43.311  54.502  1.00  0.00     0.069 A 
HETATM   16  C   UNL     1      29.932  44.004  55.415  1.00  0.00     0.104 A 
HETATM   17  C   UNL     1      29.516  45.238  55.911  1.00  0.00     0.102 A 
HETATM   18  O   UNL     1      31.152  43.454  55.700  1.00  0.00    -0.348 OA
HETATM   19  O   UNL     1      30.289  46.019  56.724  1.00  0.00    -0.348 OA
HETATM   20  C   UNL     1      28.300  45.772  55.495  1.00  0.00     0.042 A 
HETATM   21  C   UNL     1      30.550  45.392  57.980  1.00  0.00     0.178 C 
HETATM   22  C   UNL     1      31.698  44.397  57.892  1.00  0.00     0.053 C 
HETATM   23  C   UNL     1      31.297  43.167  57.092  1.00  0.00     0.178 C 
HETATM   24  C   UNL     1      27.484  45.057  54.611  1.00  0.00     0.032 A 
ENDBRANCH   1  14
TORSDOF 2
ENDMDL
MODEL 3
REMARK VINA RESULT:      -8.4      1.336      2.524
REMARK  2 active torsions:
REMARK  status: ('A' for Active; 'I' for Inactive)
REMARK    1  A    between atoms: C_8  and  N_9 
REMARK    2  A    between atoms: N_9  and  C_10 
ROOT
HETATM    1  N   UNL     1      20.809  49.613  49.814  1.00  0.00    -0.340 N 
HETATM    2  H   UNL     1      20.797  49.097  50.679  1.00  0.00     0.167 HD
ENDROOT
BRANCH   1   3
HETATM    3  C   UNL     1      19.601  50.277  49.543  1.00  0.00     0.143 A 
HETATM    4  C   UNL     1      18.576  49.696  48.748  1.00  0.00     0.053 A 
HETATM    5  C   UNL     1      18.471  48.466  47.963  1.00  0.00    -0.032 A 
HETATM    6  C   UNL     1      17.403  50.432  48.653  1.00  0.00     0.114 A 
HETATM    7  C   UNL     1      19.572  47.469  47.776  1.00  0.00     0.050 C 
HETATM    8  C   UNL     1      17.211  48.333  47.391  1.00  0.00    -0.012 A 
HETATM    9  S   UNL     1      16.204  49.666  47.728  1.00  0.00    -0.074 SA
HETATM   10  C   UNL     1      16.686  47.220  46.541  1.00  0.00     0.057 C 
HETATM   11  N   UNL     1      17.150  51.628  49.207  1.00  0.00    -0.234 NA
HETATM   12  C   UNL     1      18.183  52.092  49.903  1.00  0.00     0.236 A 
HETATM   13  N   UNL     1      19.364  51.493  50.095  1.00  0.00    -0.223 NA
ENDBRANCH   1   3
BRANCH   1  14
HETATM   14  C   UNL     1      22.085  49.725  49.233  1.00  0.00     0.036 A 
HETATM   15  C   UNL     1      23.029  48.715  49.479  1.00  0.00     0.069 A 
HETATM   16  C   UNL     1      24.327  48.797  48.965  1.00  0.00     0.104 A 
HETATM   17  C   UNL     1      24.691  49.875  48.160  1.00  0.00     0.102 A 
HETATM   18  O   UNL     1      25.154  47.736  49.216  1.00  0.00    -0.348 OA
HETATM   19  O   UNL     1      25.905  49.972  47.539  1.00  0.00    -0.348 OA
HETATM   20  C   UNL     1      23.757  50.867  47.875  1.00  0.00     0.042 A 
HETATM   21  C   UNL     1      26.979  50.067  48.474  1.00  0.00     0.178 C 
HETATM   22  C   UNL     1      27.392  48.704  49.008  1.00  0.00     0.053 C 
HETATM   23  C   UNL     1      26.327  48.129  49.929  1.00  0.00     0.178 C 
HETATM   24  C   UNL     1      22.471  50.799  48.424  1.00  0.00     0.032 A 
ENDBRANCH   1  14
TORSDOF 2
ENDMDL
MODEL 4
REMARK VINA RESULT:      -8.3      7.920     11.103
REMARK  2 active torsions:
REMARK  status: ('A' for Active; 'I' for Inactive)
REMARK    1  A    between atoms: C_8  and  N_9 
REMARK    2  A    between atoms: N_9  and  C_10 
ROOT
HETATM    1  N   UNL     1      27.724  44.394  52.921  1.00  0.00    -0.340 N 
HETATM    2  H   UNL     1      28.474  43.730  52.815  1.00  0.00     0.167 HD
ENDROOT
BRANCH   1   3
HETATM    3  C   UNL     1      27.841  45.190  54.072  1.00  0.00     0.143 A 
HETATM    4  C   UNL     1      28.862  44.980  55.040  1.00  0.00     0.053 A 
HETATM    5  C   UNL     1      29.901  43.969  55.220  1.00  0.00    -0.032 A 
HETATM    6  C   UNL     1      28.907  45.910  56.071  1.00  0.00     0.114 A 
HETATM    7  C   UNL     1      30.099  42.774  54.340  1.00  0.00     0.050 C 
HETATM    8  C   UNL     1      30.693  44.242  56.329  1.00  0.00    -0.012 A 
HETATM    9  S   UNL     1      30.172  45.632  57.167  1.00  0.00    -0.074 SA
HETATM   10  C   UNL     1      31.870  43.478  56.846  1.00  0.00     0.057 C 
HETATM   11  N   UNL     1      28.086  46.955  56.257  1.00  0.00    -0.234 NA
HETATM   12  C   UNL     1      27.153  47.039  55.313  1.00  0.00     0.236 A 
HETATM   13  N   UNL     1      26.995  46.233  54.258  1.00  0.00    -0.223 NA
ENDBRANCH   1   3
BRANCH   1  14
HETATM   14  C   UNL     1      26.899  44.510  51.787  1.00  0.00     0.036 A 
HETATM   15  C   UNL     1      25.553  44.125  51.890  1.00  0.00     0.069 A 
HETATM   16  C   UNL     1      24.700  44.176  50.783  1.00  0.00     0.104 A 
HETATM   17  C   UNL     1      25.170  44.653  49.561  1.00  0.00     0.102 A 
HETATM   18  O   UNL     1      23.393  43.831  51.000  1.00  0.00    -0.348 OA
HETATM   19  O   UNL     1      24.371  44.828  48.466  1.00  0.00    -0.348 OA
HETATM   20  C   UNL     1      26.492  45.074  49.450  1.00  0.00     0.042 A 
HETATM   21  C   UNL     1      23.836  43.594  47.990  1.00  0.00     0.178 C 
HETATM   22  C   UNL     1      22.610  43.162  48.780  1.00  0.00     0.053 C 
HETATM   23  C   UNL     1      22.989  42.728  50.188  1.00  0.00     0.178 C 
HETATM   24  C   UNL     1      27.352  44.985  50.551  1.00  0.00     0.032 A 
ENDBRANCH   1  14
TORSDOF 2
ENDMDL
MODEL 5
REMARK VINA RESULT:      -8.2      5.507      9.235
REMARK  2 active torsions:
REMARK  status: ('A' for Active; 'I' for Inactive)
REMARK    1  A    between atoms: C_8  and  N_9 
REMARK    2  A    between atoms: N_9  and  C_10 
ROOT
HETATM    1  N   UNL     1      25.932  45.882  51.814  1.00  0.00    -0.340 N 
HETATM    2  H   UNL     1      26.520  45.113  51.538  1.00  0.00     0.167 HD
ENDROOT
BRANCH   1   3
HETATM    3  C   UNL     1      26.263  46.417  53.070  1.00  0.00     0.143 A 
HETATM    4  C   UNL     1      27.295  45.870  53.880  1.00  0.00     0.053 A 
HETATM    5  C   UNL     1      28.153  44.691  53.776  1.00  0.00    -0.032 A 
HETATM    6  C   UNL     1      27.572  46.568  55.048  1.00  0.00     0.114 A 
HETATM    7  C   UNL     1      28.080  43.667  52.686  1.00  0.00     0.050 C 
HETATM    8  C   UNL     1      29.054  44.620  54.833  1.00  0.00    -0.012 A 
HETATM    9  S   UNL     1      28.841  45.891  55.949  1.00  0.00    -0.074 SA
HETATM   10  C   UNL     1      30.113  43.596  55.089  1.00  0.00     0.057 C 
HETATM   11  N   UNL     1      26.959  47.676  55.494  1.00  0.00    -0.234 NA
HETATM   12  C   UNL     1      25.994  48.084  54.677  1.00  0.00     0.236 A 
HETATM   13  N   UNL     1      25.626  47.527  53.518  1.00  0.00    -0.223 NA
ENDBRANCH   1   3
BRANCH   1  14
HETATM   14  C   UNL     1      25.100  46.363  50.786  1.00  0.00     0.036 A 
HETATM   15  C   UNL     1      25.263  47.687  50.349  1.00  0.00     0.069 A 
HETATM   16  C   UNL     1      24.435  48.231  49.363  1.00  0.00     0.104 A 
HETATM   17  C   UNL     1      23.451  47.443  48.766  1.00  0.00     0.102 A 
HETATM   18  O   UNL     1      24.709  49.512  48.969  1.00  0.00    -0.348 OA
HETATM   19  O   UNL     1      22.674  47.872  47.728  1.00  0.00    -0.348 OA
HETATM   20  C   UNL     1      23.300  46.117  49.161  1.00  0.00     0.042 A 
HETATM   21  C   UNL     1      21.835  48.965  48.101  1.00  0.00     0.178 C 
HETATM   22  C   UNL     1      22.576  50.292  48.058  1.00  0.00     0.053 C 
HETATM   23  C   UNL     1      23.600  50.386  49.178  1.00  0.00     0.178 C 
HETATM   24  C   UNL     1      24.107  45.589  50.175  1.00  0.00     0.032 A 
ENDBRANCH   1  14
TORSDOF 2
ENDMDL
MODEL 6
REMARK VINA RESULT:      -8.0      6.530      9.065
REMARK  2 active torsions:
REMARK  status: ('A' for Active; 'I' for Inactive)
REMARK    1  A    between atoms: C_8  and  N_9 
REMARK    2  A    between atoms: N_9  and  C_10 
ROOT
HETATM    1  N   UNL     1      27.540  44.191  51.077  1.00  0.00    -0.340 N 
HETATM    2  H   UNL     1      28.056  44.697  50.375  1.00  0.00     0.167 HD
ENDROOT
BRANCH   1   3
HETATM    3  C   UNL     1      26.306  43.702  50.621  1.00  0.00     0.143 A 
HETATM    4  C   UNL     1      25.273  44.561  50.155  1.00  0.00     0.053 A 
HETATM    5  C   UNL     1      25.104  46.012  50.101  1.00  0.00    -0.032 A 
HETATM    6  C   UNL     1      24.151  43.924  49.643  1.00  0.00     0.114 A 
HETATM    7  C   UNL     1      26.082  47.012  50.635  1.00  0.00     0.050 C 
HETATM    8  C   UNL     1      23.902  46.364  49.498  1.00  0.00    -0.012 A 
HETATM    9  S   UNL     1      22.975  45.001  49.063  1.00  0.00    -0.074 SA
HETATM   10  C   UNL     1      23.359  47.731  49.226  1.00  0.00     0.057 C 
HETATM   11  N   UNL     1      23.934  42.601  49.567  1.00  0.00    -0.234 NA
HETATM   12  C   UNL     1      24.948  41.894  50.056  1.00  0.00     0.236 A 
HETATM   13  N   UNL     1      26.092  42.364  50.564  1.00  0.00    -0.223 NA
ENDBRANCH   1   3
BRANCH   1  14
HETATM   14  C   UNL     1      28.283  43.911  52.239  1.00  0.00     0.036 A 
HETATM   15  C   UNL     1      28.003  44.633  53.410  1.00  0.00     0.069 A 
HETATM   16  C   UNL     1      28.740  44.428  54.580  1.00  0.00     0.104 A 
HETATM   17  C   UNL     1      29.747  43.464  54.610  1.00  0.00     0.102 A 
HETATM   18  O   UNL     1      28.354  45.142  55.681  1.00  0.00    -0.348 OA
HETATM   19  O   UNL     1      30.439  43.137  55.742  1.00  0.00    -0.348 OA
HETATM   20  C   UNL     1      30.013  42.713  53.469  1.00  0.00     0.042 A 
HETATM   21  C   UNL     1      31.214  44.230  56.233  1.00  0.00     0.178 C 
HETATM   22  C   UNL     1      30.377  45.196  57.057  1.00  0.00     0.053 C 
HETATM   23  C   UNL     1      29.407  45.970  56.179  1.00  0.00     0.178 C 
HETATM   24  C   UNL     1      29.298  42.949  52.289  1.00  0.00     0.032 A 
ENDBRANCH   1  14
TORSDOF 2
ENDMDL
MODEL 7
REMARK VINA RESULT:      -7.9      6.740     10.064
REMARK  2 active torsions:
REMARK  status: ('A' for Active; 'I' for Inactive)
REMARK    1  A    between atoms: C_8  and  N_9 
REMARK    2  A    between atoms: N_9  and  C_10 
ROOT
HETATM    1  N   UNL     1      25.684  43.762  52.584  1.00  0.00    -0.340 N 
HETATM    2  H   UNL     1      25.128  43.691  53.421  1.00  0.00     0.167 HD
ENDROOT
BRANCH   1   3
HETATM    3  C   UNL     1      26.937  43.135  52.692  1.00  0.00     0.143 A 
HETATM    4  C   UNL     1      27.941  43.593  53.588  1.00  0.00     0.053 A 
HETATM    5  C   UNL     1      28.061  44.747  54.478  1.00  0.00    -0.032 A 
HETATM    6  C   UNL     1      29.086  42.811  53.652  1.00  0.00     0.114 A 
HETATM    7  C   UNL     1      27.048  45.841  54.609  1.00  0.00     0.050 C 
HETATM    8  C   UNL     1      29.253  44.718  55.194  1.00  0.00    -0.012 A 
HETATM    9  S   UNL     1      30.227  43.385  54.770  1.00  0.00    -0.074 SA
HETATM   10  C   UNL     1      29.750  45.687  56.218  1.00  0.00     0.057 C 
HETATM   11  N   UNL     1      29.348  41.698  52.949  1.00  0.00    -0.234 NA
HETATM   12  C   UNL     1      28.357  41.378  52.123  1.00  0.00     0.236 A 
HETATM   13  N   UNL     1      27.196  42.021  51.964  1.00  0.00    -0.223 NA
ENDBRANCH   1   3
BRANCH   1  14
HETATM   14  C   UNL     1      24.981  44.255  51.470  1.00  0.00     0.036 A 
HETATM   15  C   UNL     1      25.240  45.563  51.032  1.00  0.00     0.069 A 
HETATM   16  C   UNL     1      24.538  46.120  49.959  1.00  0.00     0.104 A 
HETATM   17  C   UNL     1      23.589  45.360  49.278  1.00  0.00     0.102 A 
HETATM   18  O   UNL     1      24.903  47.382  49.576  1.00  0.00    -0.348 OA
HETATM   19  O   UNL     1      22.938  45.799  48.159  1.00  0.00    -0.348 OA
HETATM   20  C   UNL     1      23.345  44.048  49.675  1.00  0.00     0.042 A 
HETATM   21  C   UNL     1      22.111  46.930  48.429  1.00  0.00     0.178 C 
HETATM   22  C   UNL     1      22.906  48.227  48.442  1.00  0.00     0.053 C 
HETATM   23  C   UNL     1      23.815  48.302  49.659  1.00  0.00     0.178 C 
HETATM   24  C   UNL     1      24.023  43.509  50.773  1.00  0.00     0.032 A 
ENDBRANCH   1  14
TORSDOF 2
ENDMDL
MODEL 8
REMARK VINA RESULT:      -7.9      6.684     10.570
REMARK  2 active torsions:
REMARK  status: ('A' for Active; 'I' for Inactive)
REMARK    1  A    between atoms: C_8  and  N_9 
REMARK    2  A    between atoms: N_9  and  C_10 
ROOT
HETATM    1  N   UNL     1      27.248  44.609  52.725  1.00  0.00    -0.340 N 
HETATM    2  H   UNL     1      28.007  43.975  52.532  1.00  0.00     0.167 HD
ENDROOT
BRANCH   1   3
HETATM    3  C   UNL     1      27.449  45.387  53.876  1.00  0.00     0.143 A 
HETATM    4  C   UNL     1      28.502  45.127  54.795  1.00  0.00     0.053 A 
HETATM    5  C   UNL     1      29.506  44.072  54.921  1.00  0.00    -0.032 A 
HETATM    6  C   UNL     1      28.631  46.043  55.831  1.00  0.00     0.114 A 
HETATM    7  C   UNL     1      29.615  42.878  54.023  1.00  0.00     0.050 C 
HETATM    8  C   UNL     1      30.357  44.301  55.996  1.00  0.00    -0.012 A 
HETATM    9  S   UNL     1      29.931  45.703  56.867  1.00  0.00    -0.074 SA
HETATM   10  C   UNL     1      31.523  43.485  56.454  1.00  0.00     0.057 C 
HETATM   11  N   UNL     1      27.863  47.119  56.061  1.00  0.00    -0.234 NA
HETATM   12  C   UNL     1      26.894  47.251  55.161  1.00  0.00     0.236 A 
HETATM   13  N   UNL     1      26.655  46.462  54.108  1.00  0.00    -0.223 NA
ENDBRANCH   1   3
BRANCH   1  14
HETATM   14  C   UNL     1      26.313  44.713  51.679  1.00  0.00     0.036 A 
HETATM   15  C   UNL     1      26.153  45.952  51.038  1.00  0.00     0.069 A 
HETATM   16  C   UNL     1      25.206  46.125  50.024  1.00  0.00     0.104 A 
HETATM   17  C   UNL     1      24.428  45.047  49.605  1.00  0.00     0.102 A 
HETATM   18  O   UNL     1      25.165  47.355  49.426  1.00  0.00    -0.348 OA
HETATM   19  O   UNL     1      23.557  45.114  48.554  1.00  0.00    -0.348 OA
HETATM   20  C   UNL     1      24.599  43.802  50.204  1.00  0.00     0.042 A 
HETATM   21  C   UNL     1      22.489  46.028  48.799  1.00  0.00     0.178 C 
HETATM   22  C   UNL     1      22.896  47.467  48.517  1.00  0.00     0.053 C 
HETATM   23  C   UNL     1      23.884  47.972  49.557  1.00  0.00     0.178 C 
HETATM   24  C   UNL     1      25.522  43.644  51.244  1.00  0.00     0.032 A 
ENDBRANCH   1  14
TORSDOF 2
ENDMDL
MODEL 9
REMARK VINA RESULT:      -7.9      8.863     11.054
REMARK  2 active torsions:
REMARK  status: ('A' for Active; 'I' for Inactive)
REMARK    1  A    between atoms: C_8  and  N_9 
REMARK    2  A    between atoms: N_9  and  C_10 
ROOT
HETATM    1  N   UNL     1      25.938  43.392  52.914  1.00  0.00    -0.340 N 
HETATM    2  H   UNL     1      25.475  42.701  53.482  1.00  0.00     0.167 HD
ENDROOT
BRANCH   1   3
HETATM    3  C   UNL     1      26.329  44.535  53.632  1.00  0.00     0.143 A 
HETATM    4  C   UNL     1      27.572  44.614  54.316  1.00  0.00     0.053 A 
HETATM    5  C   UNL     1      28.653  43.664  54.576  1.00  0.00    -0.032 A 
HETATM    6  C   UNL     1      27.858  45.843  54.896  1.00  0.00     0.114 A 
HETATM    7  C   UNL     1      28.649  42.224  54.166  1.00  0.00     0.050 C 
HETATM    8  C   UNL     1      29.699  44.259  55.272  1.00  0.00    -0.012 A 
HETATM    9  S   UNL     1      29.374  45.887  55.658  1.00  0.00    -0.074 SA
HETATM   10  C   UNL     1      30.992  43.650  55.712  1.00  0.00     0.057 C 
HETATM   11  N   UNL     1      27.083  46.938  54.896  1.00  0.00    -0.234 NA
HETATM   12  C   UNL     1      25.934  46.745  54.256  1.00  0.00     0.236 A 
HETATM   13  N   UNL     1      25.529  45.630  53.639  1.00  0.00    -0.223 NA
ENDBRANCH   1   3
BRANCH   1  14
HETATM   14  C   UNL     1      26.276  42.940  51.626  1.00  0.00     0.036 A 
HETATM   15  C   UNL     1      26.351  41.557  51.394  1.00  0.00     0.069 A 
HETATM   16  C   UNL     1      26.728  41.052  50.146  1.00  0.00     0.104 A 
HETATM   17  C   UNL     1      26.997  41.925  49.092  1.00  0.00     0.102 A 
HETATM   18  O   UNL     1      26.718  39.691  50.006  1.00  0.00    -0.348 OA
HETATM   19  O   UNL     1      27.269  41.505  47.821  1.00  0.00    -0.348 OA
HETATM   20  C   UNL     1      26.891  43.298  49.294  1.00  0.00     0.042 A 
HETATM   21  C   UNL     1      28.480  40.753  47.752  1.00  0.00     0.178 C 
HETATM   22  C   UNL     1      28.272  39.301  48.156  1.00  0.00     0.053 C 
HETATM   23  C   UNL     1      28.003  39.180  49.648  1.00  0.00     0.178 C 
HETATM   24  C   UNL     1      26.551  43.799  50.556  1.00  0.00     0.032 A 
ENDBRANCH   1  14
TORSDOF 2
ENDMDL
MODEL 10
REMARK VINA RESULT:      -7.8      9.123     11.079
REMARK  2 active torsions:
REMARK  status: ('A' for Active; 'I' for Inactive)
REMARK    1  A    between atoms: C_8  and  N_9 
REMARK    2  A    between atoms: N_9  and  C_10 
ROOT
HETATM    1  N   UNL     1      27.065  42.591  53.044  1.00  0.00    -0.340 N 
HETATM    2  H   UNL     1      26.339  42.167  53.599  1.00  0.00     0.167 HD
ENDROOT
BRANCH   1   3
HETATM    3  C   UNL     1      28.083  43.182  53.811  1.00  0.00     0.143 A 
HETATM    4  C   UNL     1      27.963  44.492  54.351  1.00  0.00     0.053 A 
HETATM    5  C   UNL     1      26.970  45.557  54.228  1.00  0.00    -0.032 A 
HETATM    6  C   UNL     1      29.009  44.898  55.170  1.00  0.00     0.114 A 
HETATM    7  C   UNL     1      25.747  45.496  53.365  1.00  0.00     0.050 C 
HETATM    8  C   UNL     1      27.301  46.658  55.009  1.00  0.00    -0.012 A 
HETATM    9  S   UNL     1      28.788  46.450  55.818  1.00  0.00    -0.074 SA
HETATM   10  C   UNL     1      26.548  47.937  55.186  1.00  0.00     0.057 C 
HETATM   11  N   UNL     1      30.113  44.201  55.479  1.00  0.00    -0.234 NA
HETATM   12  C   UNL     1      30.136  43.005  54.899  1.00  0.00     0.236 A 
HETATM   13  N   UNL     1      29.202  42.474  54.104  1.00  0.00    -0.223 NA
ENDBRANCH   1   3
BRANCH   1  14
HETATM   14  C   UNL     1      26.992  42.279  51.674  1.00  0.00     0.036 A 
HETATM   15  C   UNL     1      27.226  40.956  51.269  1.00  0.00     0.069 A 
HETATM   16  C   UNL     1      27.211  40.599  49.917  1.00  0.00     0.104 A 
HETATM   17  C   UNL     1      26.921  41.556  48.947  1.00  0.00     0.102 A 
HETATM   18  O   UNL     1      27.397  39.274  49.631  1.00  0.00    -0.348 OA
HETATM   19  O   UNL     1      26.788  41.262  47.619  1.00  0.00    -0.348 OA
HETATM   20  C   UNL     1      26.650  42.866  49.332  1.00  0.00     0.042 A 
HETATM   21  C   UNL     1      28.006  40.785  47.050  1.00  0.00     0.178 C 
HETATM   22  C   UNL     1      28.223  39.305  47.327  1.00  0.00     0.053 C 
HETATM   23  C   UNL     1      28.535  39.061  48.795  1.00  0.00     0.178 C 
HETATM   24  C   UNL     1      26.704  43.226  50.684  1.00  0.00     0.032 A 
ENDBRANCH   1  14
TORSDOF 2
ENDMDL
