MODEL 1
REMARK VINA RESULT:      -8.7      0.000      0.000
REMARK  2 active torsions:
REMARK  status: ('A' for Active; 'I' for Inactive)
REMARK    1  A    between atoms: C_4  and  C_5 
REMARK    2  A    between atoms: C_10  and  C_11 
ROOT
HETATM    1  C   UNL     1      27.522  44.165  51.938  1.00  0.00     0.224 C 
HETATM    2  N   UNL     1      26.952  44.522  53.248  1.00  0.00    -0.359 N 
HETATM    3  C   UNL     1      25.782  45.400  53.215  1.00  0.00     0.152 C 
HETATM    4  C   UNL     1      27.927  44.779  54.238  1.00  0.00     0.047 A 
HETATM    5  C   UNL     1      29.172  44.123  54.193  1.00  0.00     0.058 A 
HETATM    6  C   UNL     1      29.424  43.170  53.096  1.00  0.00     0.255 C 
HETATM    7  O   UNL     1      30.439  42.485  53.038  1.00  0.00    -0.268 OA
HETATM    8  N   UNL     1      28.455  43.089  52.142  1.00  0.00    -0.331 N 
HETATM    9  C   UNL     1      27.715  45.634  55.332  1.00  0.00     0.030 A 
HETATM   10  C   UNL     1      28.703  45.847  56.305  1.00  0.00     0.002 A 
HETATM   11  C   UNL     1      29.928  45.196  56.220  1.00  0.00     0.001 A 
HETATM   12  C   UNL     1      30.164  44.324  55.163  1.00  0.00     0.019 A 
HETATM   13  H   UNL     1      28.722  42.534  51.343  1.00  0.00     0.165 HD
ENDROOT
BRANCH   1  14
HETATM   14  C   UNL     1      26.568  43.692  50.876  1.00  0.00     0.034 A 
HETATM   15  C   UNL     1      25.884  44.470  49.899  1.00  0.00     0.122 A 
HETATM   16  N   UNL     1      25.124  43.710  49.094  1.00  0.00    -0.172 NA
HETATM   17  N   UNL     1      25.288  42.467  49.567  1.00  0.00    -0.288 N 
HETATM   18  H   UNL     1      24.788  41.709  49.114  1.00  0.00     0.188 HD
HETATM   19  C   UNL     1      26.129  42.399  50.632  1.00  0.00     0.123 A 
BRANCH  15  20
HETATM   20  C   UNL     1      25.935  45.957  49.746  1.00  0.00     0.106 A 
HETATM   21  O   UNL     1      27.059  46.674  49.436  1.00  0.00    -0.313 OA
HETATM   22  C   UNL     1      26.713  47.990  49.402  1.00  0.00     0.050 A 
HETATM   23  C   UNL     1      27.791  48.947  49.089  1.00  0.00     0.076 C 
HETATM   24  C   UNL     1      25.374  48.135  49.690  1.00  0.00     0.035 A 
HETATM   25  C   UNL     1      24.875  46.828  49.914  1.00  0.00     0.042 A 
ENDBRANCH  15  20
ENDBRANCH   1  14
TORSDOF 2
ENDMDL
MODEL 2
REMARK VINA RESULT:      -8.6      1.488      1.742
REMARK  2 active torsions:
REMARK  status: ('A' for Active; 'I' for Inactive)
REMARK    1  A    between atoms: C_4  and  C_5 
REMARK    2  A    between atoms: C_10  and  C_11 
ROOT
HETATM    1  C   UNL     1      26.885  44.721  52.117  1.00  0.00     0.224 C 
HETATM    2  N   UNL     1      26.945  45.124  53.532  1.00  0.00    -0.359 N 
HETATM    3  C   UNL     1      26.399  46.445  53.841  1.00  0.00     0.152 C 
HETATM    4  C   UNL     1      28.148  44.754  54.174  1.00  0.00     0.047 A 
HETATM    5  C   UNL     1      28.845  43.601  53.763  1.00  0.00     0.058 A 
HETATM    6  C   UNL     1      28.287  42.801  52.658  1.00  0.00     0.255 C 
HETATM    7  O   UNL     1      28.775  41.733  52.306  1.00  0.00    -0.268 OA
HETATM    8  N   UNL     1      27.185  43.316  52.045  1.00  0.00    -0.331 N 
HETATM    9  C   UNL     1      28.691  45.451  55.267  1.00  0.00     0.030 A 
HETATM   10  C   UNL     1      29.878  45.039  55.889  1.00  0.00     0.002 A 
HETATM   11  C   UNL     1      30.549  43.905  55.447  1.00  0.00     0.001 A 
HETATM   12  C   UNL     1      30.029  43.177  54.383  1.00  0.00     0.019 A 
HETATM   13  H   UNL     1      26.916  42.814  51.212  1.00  0.00     0.165 HD
ENDROOT
BRANCH   1  14
HETATM   14  C   UNL     1      25.573  44.903  51.403  1.00  0.00     0.034 A 
HETATM   15  C   UNL     1      25.255  45.830  50.370  1.00  0.00     0.122 A 
HETATM   16  N   UNL     1      23.988  45.698  49.950  1.00  0.00    -0.172 NA
HETATM   17  N   UNL     1      23.486  44.726  50.723  1.00  0.00    -0.288 N 
HETATM   18  H   UNL     1      22.516  44.458  50.591  1.00  0.00     0.188 HD
HETATM   19  C   UNL     1      24.383  44.223  51.612  1.00  0.00     0.123 A 
BRANCH  15  20
HETATM   20  C   UNL     1      26.163  46.871  49.795  1.00  0.00     0.106 A 
HETATM   21  O   UNL     1      25.785  48.145  49.466  1.00  0.00    -0.313 OA
HETATM   22  C   UNL     1      26.876  48.783  48.960  1.00  0.00     0.050 A 
HETATM   23  C   UNL     1      26.682  50.181  48.533  1.00  0.00     0.076 C 
HETATM   24  C   UNL     1      27.960  47.933  48.955  1.00  0.00     0.035 A 
HETATM   25  C   UNL     1      27.500  46.704  49.488  1.00  0.00     0.042 A 
ENDBRANCH  15  20
ENDBRANCH   1  14
TORSDOF 2
ENDMDL
MODEL 3
REMARK VINA RESULT:      -8.3      1.830      2.631
REMARK  2 active torsions:
REMARK  status: ('A' for Active; 'I' for Inactive)
REMARK    1  A    between atoms: C_4  and  C_5 
REMARK    2  A    between atoms: C_10  and  C_11 
ROOT
HETATM    1  C   UNL     1      25.552  44.665  52.396  1.00  0.00     0.224 C 
HETATM    2  N   UNL     1      26.998  44.412  52.513  1.00  0.00    -0.359 N 
HETATM    3  C   UNL     1      27.440  43.065  52.151  1.00  0.00     0.152 C 
HETATM    4  C   UNL     1      27.584  45.002  53.655  1.00  0.00     0.047 A 
HETATM    5  C   UNL     1      27.054  46.193  54.188  1.00  0.00     0.058 A 
HETATM    6  C   UNL     1      25.886  46.800  53.525  1.00  0.00     0.255 C 
HETATM    7  O   UNL     1      25.426  47.885  53.863  1.00  0.00    -0.268 OA
HETATM    8  N   UNL     1      25.341  46.084  52.502  1.00  0.00    -0.331 N 
HETATM    9  C   UNL     1      28.730  44.493  54.289  1.00  0.00     0.030 A 
HETATM   10  C   UNL     1      29.293  45.119  55.410  1.00  0.00     0.002 A 
HETATM   11  C   UNL     1      28.734  46.285  55.921  1.00  0.00     0.001 A 
HETATM   12  C   UNL     1      27.613  46.831  55.305  1.00  0.00     0.019 A 
HETATM   13  H   UNL     1      24.468  46.462  52.167  1.00  0.00     0.165 HD
ENDROOT
BRANCH   1  14
HETATM   14  C   UNL     1      24.877  44.239  51.120  1.00  0.00     0.034 A 
HETATM   15  C   UNL     1      24.719  44.986  49.918  1.00  0.00     0.122 A 
HETATM   16  N   UNL     1      24.081  44.282  48.970  1.00  0.00    -0.172 NA
HETATM   17  N   UNL     1      23.801  43.114  49.563  1.00  0.00    -0.288 N 
HETATM   18  H   UNL     1      23.298  42.411  49.030  1.00  0.00     0.188 HD
HETATM   19  C   UNL     1      24.244  43.037  50.845  1.00  0.00     0.123 A 
BRANCH  15  20
HETATM   20  C   UNL     1      25.158  46.396  49.678  1.00  0.00     0.106 A 
HETATM   21  O   UNL     1      26.460  46.800  49.552  1.00  0.00    -0.313 OA
HETATM   22  C   UNL     1      26.458  48.147  49.361  1.00  0.00     0.050 A 
HETATM   23  C   UNL     1      27.776  48.793  49.206  1.00  0.00     0.076 C 
HETATM   24  C   UNL     1      25.165  48.624  49.364  1.00  0.00     0.035 A 
HETATM   25  C   UNL     1      24.331  47.498  49.571  1.00  0.00     0.042 A 
ENDBRANCH  15  20
ENDBRANCH   1  14
TORSDOF 2
ENDMDL
MODEL 4
REMARK VINA RESULT:      -8.1      2.107      6.554
REMARK  2 active torsions:
REMARK  status: ('A' for Active; 'I' for Inactive)
REMARK    1  A    between atoms: C_4  and  C_5 
REMARK    2  A    between atoms: C_10  and  C_11 
ROOT
HETATM    1  C   UNL     1      26.397  46.075  52.743  1.00  0.00     0.224 C 
HETATM    2  N   UNL     1      25.298  45.095  52.749  1.00  0.00    -0.359 N 
HETATM    3  C   UNL     1      25.320  44.121  53.840  1.00  0.00     0.152 C 
HETATM    4  C   UNL     1      24.958  44.619  51.463  1.00  0.00     0.047 A 
HETATM    5  C   UNL     1      25.130  45.443  50.334  1.00  0.00     0.058 A 
HETATM    6  C   UNL     1      25.668  46.802  50.533  1.00  0.00     0.255 C 
HETATM    7  O   UNL     1      25.755  47.616  49.620  1.00  0.00    -0.268 OA
HETATM    8  N   UNL     1      26.062  47.108  51.800  1.00  0.00    -0.331 N 
HETATM    9  C   UNL     1      24.392  43.355  51.228  1.00  0.00     0.030 A 
HETATM   10  C   UNL     1      24.050  42.927  49.937  1.00  0.00     0.002 A 
HETATM   11  C   UNL     1      24.250  43.760  48.842  1.00  0.00     0.001 A 
HETATM   12  C   UNL     1      24.786  45.028  49.040  1.00  0.00     0.019 A 
HETATM   13  H   UNL     1      26.547  47.990  51.868  1.00  0.00     0.165 HD
ENDROOT
BRANCH   1  14
HETATM   14  C   UNL     1      26.703  46.777  54.038  1.00  0.00     0.034 A 
HETATM   15  C   UNL     1      27.730  46.479  54.978  1.00  0.00     0.122 A 
HETATM   16  N   UNL     1      27.721  47.330  56.016  1.00  0.00    -0.172 NA
HETATM   17  N   UNL     1      26.684  48.141  55.766  1.00  0.00    -0.288 N 
HETATM   18  H   UNL     1      26.472  48.872  56.438  1.00  0.00     0.188 HD
HETATM   19  C   UNL     1      26.037  47.851  54.607  1.00  0.00     0.123 A 
BRANCH  15  20
HETATM   20  C   UNL     1      28.715  45.356  54.900  1.00  0.00     0.106 A 
HETATM   21  O   UNL     1      28.799  44.460  53.868  1.00  0.00    -0.313 OA
HETATM   22  C   UNL     1      29.799  43.584  54.163  1.00  0.00     0.050 A 
HETATM   23  C   UNL     1      30.055  42.520  53.174  1.00  0.00     0.076 C 
HETATM   24  C   UNL     1      30.363  43.902  55.379  1.00  0.00     0.035 A 
HETATM   25  C   UNL     1      29.664  45.039  55.853  1.00  0.00     0.042 A 
ENDBRANCH  15  20
ENDBRANCH   1  14
TORSDOF 2
ENDMDL
MODEL 5
REMARK VINA RESULT:      -7.8      2.334      3.658
REMARK  2 active torsions:
REMARK  status: ('A' for Active; 'I' for Inactive)
REMARK    1  A    between atoms: C_4  and  C_5 
REMARK    2  A    between atoms: C_10  and  C_11 
ROOT
HETATM    1  C   UNL     1      27.112  44.046  52.527  1.00  0.00     0.224 C 
HETATM    2  N   UNL     1      27.273  44.847  53.753  1.00  0.00    -0.359 N 
HETATM    3  C   UNL     1      26.879  46.252  53.651  1.00  0.00     0.152 C 
HETATM    4  C   UNL     1      28.456  44.554  54.468  1.00  0.00     0.047 A 
HETATM    5  C   UNL     1      29.011  43.261  54.421  1.00  0.00     0.058 A 
HETATM    6  C   UNL     1      28.329  42.233  53.614  1.00  0.00     0.255 C 
HETATM    7  O   UNL     1      28.688  41.061  53.598  1.00  0.00    -0.268 OA
HETATM    8  N   UNL     1      27.262  42.660  52.883  1.00  0.00    -0.331 N 
HETATM    9  C   UNL     1      29.112  45.483  55.293  1.00  0.00     0.030 A 
HETATM   10  C   UNL     1      30.275  45.148  56.002  1.00  0.00     0.002 A 
HETATM   11  C   UNL     1      30.807  43.866  55.919  1.00  0.00     0.001 A 
HETATM   12  C   UNL     1      30.170  42.914  55.130  1.00  0.00     0.019 A 
HETATM   13  H   UNL     1      26.908  41.965  52.243  1.00  0.00     0.165 HD
ENDROOT
BRANCH   1  14
HETATM   14  C   UNL     1      25.798  44.150  51.802  1.00  0.00     0.034 A 
HETATM   15  C   UNL     1      25.295  43.308  50.770  1.00  0.00     0.122 A 
HETATM   16  N   UNL     1      24.072  43.686  50.366  1.00  0.00    -0.172 NA
HETATM   17  N   UNL     1      23.807  44.774  51.101  1.00  0.00    -0.288 N 
HETATM   18  H   UNL     1      22.921  45.250  50.955  1.00  0.00     0.188 HD
HETATM   19  C   UNL     1      24.803  45.101  51.965  1.00  0.00     0.123 A 
BRANCH  15  20
HETATM   20  C   UNL     1      25.997  42.144  50.145  1.00  0.00     0.106 A 
HETATM   21  O   UNL     1      26.929  42.237  49.147  1.00  0.00    -0.313 OA
HETATM   22  C   UNL     1      27.325  40.974  48.832  1.00  0.00     0.050 A 
HETATM   23  C   UNL     1      28.333  40.845  47.763  1.00  0.00     0.076 C 
HETATM   24  C   UNL     1      26.656  40.060  49.616  1.00  0.00     0.035 A 
HETATM   25  C   UNL     1      25.800  40.813  50.456  1.00  0.00     0.042 A 
ENDBRANCH  15  20
ENDBRANCH   1  14
TORSDOF 2
ENDMDL
MODEL 6
REMARK VINA RESULT:      -7.7      2.813      6.997
REMARK  2 active torsions:
REMARK  status: ('A' for Active; 'I' for Inactive)
REMARK    1  A    between atoms: C_4  and  C_5 
REMARK    2  A    between atoms: C_10  and  C_11 
ROOT
HETATM    1  C   UNL     1      24.452  46.694  49.994  1.00  0.00     0.224 C 
HETATM    2  N   UNL     1      24.972  47.826  49.209  1.00  0.00    -0.359 N 
HETATM    3  C   UNL     1      26.303  48.302  49.583  1.00  0.00     0.152 C 
HETATM    4  C   UNL     1      23.995  48.802  48.910  1.00  0.00     0.047 A 
HETATM    5  C   UNL     1      22.645  48.430  48.758  1.00  0.00     0.058 A 
HETATM    6  C   UNL     1      22.286  47.009  48.918  1.00  0.00     0.255 C 
HETATM    7  O   UNL     1      21.155  46.587  48.706  1.00  0.00    -0.268 OA
HETATM    8  N   UNL     1      23.292  46.181  49.314  1.00  0.00    -0.331 N 
HETATM    9  C   UNL     1      24.294  50.158  48.693  1.00  0.00     0.030 A 
HETATM   10  C   UNL     1      23.296  51.093  48.379  1.00  0.00     0.002 A 
HETATM   11  C   UNL     1      21.970  50.694  48.255  1.00  0.00     0.001 A 
HETATM   12  C   UNL     1      21.641  49.355  48.439  1.00  0.00     0.019 A 
HETATM   13  H   UNL     1      22.980  45.249  49.544  1.00  0.00     0.165 HD
ENDROOT
BRANCH   1  14
HETATM   14  C   UNL     1      25.368  45.518  50.199  1.00  0.00     0.034 A 
HETATM   15  C   UNL     1      26.169  45.215  51.336  1.00  0.00     0.122 A 
HETATM   16  N   UNL     1      26.849  44.069  51.180  1.00  0.00    -0.172 NA
HETATM   17  N   UNL     1      26.519  43.658  49.948  1.00  0.00    -0.288 N 
HETATM   18  H   UNL     1      26.934  42.798  49.601  1.00  0.00     0.188 HD
HETATM   19  C   UNL     1      25.648  44.487  49.316  1.00  0.00     0.123 A 
BRANCH  15  20
HETATM   20  C   UNL     1      26.308  46.041  52.576  1.00  0.00     0.106 A 
HETATM   21  O   UNL     1      27.241  45.833  53.555  1.00  0.00    -0.313 OA
HETATM   22  C   UNL     1      27.042  46.770  54.522  1.00  0.00     0.050 A 
HETATM   23  C   UNL     1      27.947  46.720  55.686  1.00  0.00     0.076 C 
HETATM   24  C   UNL     1      25.984  47.585  54.180  1.00  0.00     0.035 A 
HETATM   25  C   UNL     1      25.511  47.113  52.932  1.00  0.00     0.042 A 
ENDBRANCH  15  20
ENDBRANCH   1  14
TORSDOF 2
ENDMDL
MODEL 7
REMARK VINA RESULT:      -7.7     11.849     14.107
REMARK  2 active torsions:
REMARK  status: ('A' for Active; 'I' for Inactive)
REMARK    1  A    between atoms: C_4  and  C_5 
REMARK    2  A    between atoms: C_10  and  C_11 
ROOT
HETATM    1  C   UNL     1      29.434  51.269  40.039  1.00  0.00     0.224 C 
HETATM    2  N   UNL     1      30.452  50.279  39.651  1.00  0.00    -0.359 N 
HETATM    3  C   UNL     1      31.324  50.664  38.541  1.00  0.00     0.152 C 
HETATM    4  C   UNL     1      29.982  48.947  39.674  1.00  0.00     0.047 A 
HETATM    5  C   UNL     1      28.973  48.567  40.580  1.00  0.00     0.058 A 
HETATM    6  C   UNL     1      28.428  49.589  41.492  1.00  0.00     0.255 C 
HETATM    7  O   UNL     1      27.621  49.322  42.375  1.00  0.00    -0.268 OA
HETATM    8  N   UNL     1      28.879  50.861  41.302  1.00  0.00    -0.331 N 
HETATM    9  C   UNL     1      30.507  47.925  38.865  1.00  0.00     0.030 A 
HETATM   10  C   UNL     1      30.026  46.609  38.933  1.00  0.00     0.002 A 
HETATM   11  C   UNL     1      29.015  46.273  39.826  1.00  0.00     0.001 A 
HETATM   12  C   UNL     1      28.488  47.254  40.660  1.00  0.00     0.019 A 
HETATM   13  H   UNL     1      28.385  51.549  41.849  1.00  0.00     0.165 HD
ENDROOT
BRANCH   1  14
HETATM   14  C   UNL     1      29.890  52.691  40.226  1.00  0.00     0.034 A 
HETATM   15  C   UNL     1      30.997  53.167  40.985  1.00  0.00     0.122 A 
HETATM   16  N   UNL     1      31.119  54.501  40.912  1.00  0.00    -0.172 NA
HETATM   17  N   UNL     1      30.086  54.883  40.148  1.00  0.00    -0.288 N 
HETATM   18  H   UNL     1      29.965  55.874  39.962  1.00  0.00     0.188 HD
HETATM   19  C   UNL     1      29.317  53.848  39.720  1.00  0.00     0.123 A 
BRANCH  15  20
HETATM   20  C   UNL     1      31.935  52.342  41.809  1.00  0.00     0.106 A 
HETATM   21  O   UNL     1      33.157  51.893  41.389  1.00  0.00    -0.313 OA
HETATM   22  C   UNL     1      33.702  51.169  42.405  1.00  0.00     0.050 A 
HETATM   23  C   UNL     1      35.032  50.581  42.157  1.00  0.00     0.076 C 
HETATM   24  C   UNL     1      32.842  51.143  43.481  1.00  0.00     0.035 A 
HETATM   25  C   UNL     1      31.706  51.894  43.096  1.00  0.00     0.042 A 
ENDBRANCH  15  20
ENDBRANCH   1  14
TORSDOF 2
ENDMDL
MODEL 8
REMARK VINA RESULT:      -7.6      3.291      6.080
REMARK  2 active torsions:
REMARK  status: ('A' for Active; 'I' for Inactive)
REMARK    1  A    between atoms: C_4  and  C_5 
REMARK    2  A    between atoms: C_10  and  C_11 
ROOT
HETATM    1  C   UNL     1      24.887  44.677  50.631  1.00  0.00     0.224 C 
HETATM    2  N   UNL     1      25.397  43.295  50.639  1.00  0.00    -0.359 N 
HETATM    3  C   UNL     1      26.825  43.146  50.919  1.00  0.00     0.152 C 
HETATM    4  C   UNL     1      24.848  42.484  49.620  1.00  0.00     0.047 A 
HETATM    5  C   UNL     1      23.544  42.726  49.147  1.00  0.00     0.058 A 
HETATM    6  C   UNL     1      22.777  43.837  49.740  1.00  0.00     0.255 C 
HETATM    7  O   UNL     1      21.604  44.053  49.458  1.00  0.00    -0.268 OA
HETATM    8  N   UNL     1      23.449  44.616  50.633  1.00  0.00    -0.331 N 
HETATM    9  C   UNL     1      25.517  41.381  49.062  1.00  0.00     0.030 A 
HETATM   10  C   UNL     1      24.929  40.589  48.066  1.00  0.00     0.002 A 
HETATM   11  C   UNL     1      23.646  40.867  47.609  1.00  0.00     0.001 A 
HETATM   12  C   UNL     1      22.945  41.937  48.155  1.00  0.00     0.019 A 
HETATM   13  H   UNL     1      22.939  45.441  50.911  1.00  0.00     0.165 HD
ENDROOT
BRANCH   1  14
HETATM   14  C   UNL     1      25.267  45.560  51.787  1.00  0.00     0.034 A 
HETATM   15  C   UNL     1      25.609  46.942  51.763  1.00  0.00     0.122 A 
HETATM   16  N   UNL     1      25.875  47.415  52.991  1.00  0.00    -0.172 NA
HETATM   17  N   UNL     1      25.742  46.347  53.789  1.00  0.00    -0.288 N 
HETATM   18  H   UNL     1      25.912  46.464  54.783  1.00  0.00     0.188 HD
HETATM   19  C   UNL     1      25.390  45.215  53.124  1.00  0.00     0.123 A 
BRANCH  15  20
HETATM   20  C   UNL     1      25.707  47.817  50.553  1.00  0.00     0.106 A 
HETATM   21  O   UNL     1      24.647  48.433  49.945  1.00  0.00    -0.313 OA
HETATM   22  C   UNL     1      25.129  49.123  48.875  1.00  0.00     0.050 A 
HETATM   23  C   UNL     1      24.140  49.862  48.067  1.00  0.00     0.076 C 
HETATM   24  C   UNL     1      26.494  48.957  48.781  1.00  0.00     0.035 A 
HETATM   25  C   UNL     1      26.863  48.115  49.858  1.00  0.00     0.042 A 
ENDBRANCH  15  20
ENDBRANCH   1  14
TORSDOF 2
ENDMDL
MODEL 9
REMARK VINA RESULT:      -7.6     12.018     13.555
REMARK  2 active torsions:
REMARK  status: ('A' for Active; 'I' for Inactive)
REMARK    1  A    between atoms: C_4  and  C_5 
REMARK    2  A    between atoms: C_10  and  C_11 
ROOT
HETATM    1  C   UNL     1      30.669  50.898  41.293  1.00  0.00     0.224 C 
HETATM    2  N   UNL     1      31.584  51.736  40.498  1.00  0.00    -0.359 N 
HETATM    3  C   UNL     1      31.337  51.757  39.057  1.00  0.00     0.152 C 
HETATM    4  C   UNL     1      32.929  51.665  40.924  1.00  0.00     0.047 A 
HETATM    5  C   UNL     1      33.232  51.420  42.278  1.00  0.00     0.058 A 
HETATM    6  C   UNL     1      32.116  51.243  43.225  1.00  0.00     0.255 C 
HETATM    7  O   UNL     1      32.290  51.125  44.433  1.00  0.00    -0.268 OA
HETATM    8  N   UNL     1      30.868  51.222  42.681  1.00  0.00    -0.331 N 
HETATM    9  C   UNL     1      34.025  51.881  40.072  1.00  0.00     0.030 A 
HETATM   10  C   UNL     1      35.346  51.821  40.539  1.00  0.00     0.002 A 
HETATM   11  C   UNL     1      35.609  51.559  41.878  1.00  0.00     0.001 A 
HETATM   12  C   UNL     1      34.549  51.363  42.756  1.00  0.00     0.019 A 
HETATM   13  H   UNL     1      30.147  50.964  43.337  1.00  0.00     0.165 HD
ENDROOT
BRANCH   1  14
HETATM   14  C   UNL     1      29.195  51.052  41.037  1.00  0.00     0.034 A 
HETATM   15  C   UNL     1      28.312  50.132  40.404  1.00  0.00     0.122 A 
HETATM   16  N   UNL     1      27.051  50.592  40.365  1.00  0.00    -0.172 NA
HETATM   17  N   UNL     1      27.128  51.804  40.931  1.00  0.00    -0.288 N 
HETATM   18  H   UNL     1      26.279  52.357  41.001  1.00  0.00     0.188 HD
HETATM   19  C   UNL     1      28.381  52.132  41.341  1.00  0.00     0.123 A 
BRANCH  15  20
HETATM   20  C   UNL     1      28.678  48.810  39.807  1.00  0.00     0.106 A 
HETATM   21  O   UNL     1      28.239  47.596  40.263  1.00  0.00    -0.313 OA
HETATM   22  C   UNL     1      28.796  46.634  39.478  1.00  0.00     0.050 A 
HETATM   23  C   UNL     1      28.455  45.236  39.806  1.00  0.00     0.076 C 
HETATM   24  C   UNL     1      29.596  47.212  38.517  1.00  0.00     0.035 A 
HETATM   25  C   UNL     1      29.522  48.610  38.731  1.00  0.00     0.042 A 
ENDBRANCH  15  20
ENDBRANCH   1  14
TORSDOF 2
ENDMDL
MODEL 10
REMARK VINA RESULT:      -7.5      2.495      4.883
REMARK  2 active torsions:
REMARK  status: ('A' for Active; 'I' for Inactive)
REMARK    1  A    between atoms: C_4  and  C_5 
REMARK    2  A    between atoms: C_10  and  C_11 
ROOT
HETATM    1  C   UNL     1      26.195  44.321  51.740  1.00  0.00     0.224 C 
HETATM    2  N   UNL     1      27.090  43.207  52.095  1.00  0.00    -0.359 N 
HETATM    3  C   UNL     1      28.419  43.587  52.575  1.00  0.00     0.152 C 
HETATM    4  C   UNL     1      27.011  42.113  51.204  1.00  0.00     0.047 A 
HETATM    5  C   UNL     1      25.806  41.831  50.533  1.00  0.00     0.058 A 
HETATM    6  C   UNL     1      24.643  42.701  50.785  1.00  0.00     0.255 C 
HETATM    7  O   UNL     1      23.532  42.468  50.321  1.00  0.00    -0.268 OA
HETATM    8  N   UNL     1      24.869  43.787  51.575  1.00  0.00    -0.331 N 
HETATM    9  C   UNL     1      28.074  41.224  50.973  1.00  0.00     0.030 A 
HETATM   10  C   UNL     1      27.949  40.137  50.095  1.00  0.00     0.002 A 
HETATM   11  C   UNL     1      26.749  39.898  49.435  1.00  0.00     0.001 A 
HETATM   12  C   UNL     1      25.669  40.744  49.658  1.00  0.00     0.019 A 
HETATM   13  H   UNL     1      24.091  44.427  51.613  1.00  0.00     0.165 HD
ENDROOT
BRANCH   1  14
HETATM   14  C   UNL     1      26.069  45.448  52.729  1.00  0.00     0.034 A 
HETATM   15  C   UNL     1      25.782  46.818  52.468  1.00  0.00     0.122 A 
HETATM   16  N   UNL     1      25.725  47.542  53.597  1.00  0.00    -0.172 NA
HETATM   17  N   UNL     1      26.006  46.660  54.566  1.00  0.00    -0.288 N 
HETATM   18  H   UNL     1      26.034  46.991  55.525  1.00  0.00     0.188 HD
HETATM   19  C   UNL     1      26.229  45.401  54.105  1.00  0.00     0.123 A 
BRANCH  15  20
HETATM   20  C   UNL     1      25.584  47.450  51.127  1.00  0.00     0.106 A 
HETATM   21  O   UNL     1      26.499  48.248  50.494  1.00  0.00    -0.313 OA
HETATM   22  C   UNL     1      25.955  48.642  49.311  1.00  0.00     0.050 A 
HETATM   23  C   UNL     1      26.783  49.524  48.466  1.00  0.00     0.076 C 
HETATM   24  C   UNL     1      24.692  48.110  49.170  1.00  0.00     0.035 A 
HETATM   25  C   UNL     1      24.454  47.347  50.338  1.00  0.00     0.042 A 
ENDBRANCH  15  20
ENDBRANCH   1  14
TORSDOF 2
ENDMDL
