MODEL 1
REMARK VINA RESULT:      -8.6      0.000      0.000
REMARK  4 active torsions:
REMARK  status: ('A' for Active; 'I' for Inactive)
REMARK    1  A    between atoms: C_2  and  C_3 
REMARK    2  A    between atoms: C_8  and  C_9 
REMARK       I    between atoms: C_9  and  N_10 
REMARK    3  A    between atoms: C_20  and  C_21 
REMARK    4  A    between atoms: C_23  and  O_24 
ROOT
HETATM    1  C   UNL     1      32.184  49.919  42.316  1.00  0.00     0.258 C 
HETATM    2  N   UNL     1      31.311  50.315  41.296  1.00  0.00    -0.340 N 
HETATM    3  C   UNL     1      31.199  51.640  40.703  1.00  0.00     0.123 C 
HETATM    4  C   UNL     1      30.323  51.454  39.434  1.00  0.00     0.221 C 
HETATM    5  N   UNL     1      29.161  52.458  39.470  1.00  0.00    -0.064 N 
HETATM    6  H   UNL     1      28.587  52.348  38.623  1.00  0.00     0.280 HD
HETATM    7  C   UNL     1      28.232  52.345  40.671  1.00  0.00     0.236 C 
HETATM    8  C   UNL     1      29.084  52.291  41.932  1.00  0.00     0.034 C 
HETATM    9  C   UNL     1      30.532  52.702  41.610  1.00  0.00     0.014 C 
HETATM   10  C   UNL     1      30.490  54.036  40.832  1.00  0.00     0.034 C 
HETATM   11  C   UNL     1      29.751  53.867  39.496  1.00  0.00     0.236 C 
HETATM   12  C   UNL     1      29.998  49.938  39.314  1.00  0.00     0.070 C 
HETATM   13  C   UNL     1      30.940  49.285  40.340  1.00  0.00     0.138 C 
HETATM   14  O   UNL     1      32.103  48.806  42.826  1.00  0.00    -0.267 OA
ENDROOT
BRANCH   1  15
HETATM   15  C   UNL     1      33.300  50.790  42.585  1.00  0.00     0.090 C 
HETATM   16  C   UNL     1      34.464  51.113  41.845  1.00  0.00     0.080 C 
HETATM   17  N   UNL     1      35.263  51.929  42.550  1.00  0.00    -0.132 NA
HETATM   18  O   UNL     1      34.556  52.275  43.680  1.00  0.00    -0.217 OA
HETATM   19  C   UNL     1      33.368  51.623  43.684  1.00  0.00     0.092 C 
HETATM   20  C   UNL     1      32.440  51.938  44.788  1.00  0.00     0.080 C 
BRANCH  16  21
HETATM   21  C   UNL     1      34.890  50.659  40.490  1.00  0.00     0.058 C 
HETATM   22  C   UNL     1      34.572  51.662  39.390  1.00  0.00     0.011 C 
ENDBRANCH  16  21
ENDBRANCH   1  15
BRANCH  12  23
HETATM   23  C   UNL     1      28.553  49.493  39.354  1.00  0.00    -0.048 A 
HETATM   24  C   UNL     1      27.753  49.676  38.210  1.00  0.00     0.044 A 
HETATM   25  C   UNL     1      26.411  49.305  38.226  1.00  0.00     0.066 A 
HETATM   26  C   UNL     1      25.839  48.743  39.358  1.00  0.00     0.036 A 
HETATM   27  C   UNL     1      26.623  48.522  40.485  1.00  0.00     0.003 A 
HETATM   28  C   UNL     1      27.971  48.892  40.485  1.00  0.00     0.008 A 
BRANCH  25  29
HETATM   29  O   UNL     1      25.613  49.493  37.139  1.00  0.00    -0.361 OA
HETATM   30  H   UNL     1      25.440  50.442  37.023  1.00  0.00     0.217 HD
ENDBRANCH  25  29
ENDBRANCH  12  23
TORSDOF 4
ENDMDL
MODEL 2
REMARK VINA RESULT:      -7.9      1.101      2.359
REMARK  4 active torsions:
REMARK  status: ('A' for Active; 'I' for Inactive)
REMARK    1  A    between atoms: C_2  and  C_3 
REMARK    2  A    between atoms: C_8  and  C_9 
REMARK       I    between atoms: C_9  and  N_10 
REMARK    3  A    between atoms: C_20  and  C_21 
REMARK    4  A    between atoms: C_23  and  O_24 
ROOT
HETATM    1  C   UNL     1      31.898  49.813  42.346  1.00  0.00     0.258 C 
HETATM    2  N   UNL     1      31.072  50.164  41.273  1.00  0.00    -0.340 N 
HETATM    3  C   UNL     1      30.973  51.467  40.631  1.00  0.00     0.123 C 
HETATM    4  C   UNL     1      30.164  51.228  39.327  1.00  0.00     0.221 C 
HETATM    5  N   UNL     1      28.989  52.215  39.273  1.00  0.00    -0.064 N 
HETATM    6  H   UNL     1      28.459  52.071  38.403  1.00  0.00     0.280 HD
HETATM    7  C   UNL     1      28.003  52.128  40.430  1.00  0.00     0.236 C 
HETATM    8  C   UNL     1      28.792  52.127  41.732  1.00  0.00     0.034 C 
HETATM    9  C   UNL     1      30.249  52.548  41.468  1.00  0.00     0.014 C 
HETATM   10  C   UNL     1      30.229  53.855  40.645  1.00  0.00     0.034 C 
HETATM   11  C   UNL     1      29.559  53.633  39.281  1.00  0.00     0.236 C 
HETATM   12  C   UNL     1      29.864  49.704  39.242  1.00  0.00     0.070 C 
HETATM   13  C   UNL     1      30.762  49.098  40.333  1.00  0.00     0.138 C 
HETATM   14  O   UNL     1      31.806  48.717  42.889  1.00  0.00    -0.267 OA
ENDROOT
BRANCH   1  15
HETATM   15  C   UNL     1      32.989  50.708  42.642  1.00  0.00     0.090 C 
HETATM   16  C   UNL     1      33.257  51.562  43.741  1.00  0.00     0.080 C 
HETATM   17  N   UNL     1      34.379  52.268  43.530  1.00  0.00    -0.132 NA
HETATM   18  O   UNL     1      34.937  51.764  42.376  1.00  0.00    -0.217 OA
HETATM   19  C   UNL     1      34.125  50.807  41.865  1.00  0.00     0.092 C 
HETATM   20  C   UNL     1      34.608  50.097  40.664  1.00  0.00     0.080 C 
BRANCH  16  21
HETATM   21  C   UNL     1      32.478  51.777  44.994  1.00  0.00     0.058 C 
HETATM   22  C   UNL     1      31.288  52.708  44.812  1.00  0.00     0.011 C 
ENDBRANCH  16  21
ENDBRANCH   1  15
BRANCH  12  23
HETATM   23  C   UNL     1      28.425  49.240  39.226  1.00  0.00    -0.048 A 
HETATM   24  C   UNL     1      27.894  48.629  40.379  1.00  0.00     0.044 A 
HETATM   25  C   UNL     1      26.582  48.162  40.384  1.00  0.00     0.066 A 
HETATM   26  C   UNL     1      25.772  48.295  39.267  1.00  0.00     0.036 A 
HETATM   27  C   UNL     1      26.268  48.928  38.131  1.00  0.00     0.003 A 
HETATM   28  C   UNL     1      27.583  49.399  38.110  1.00  0.00     0.008 A 
BRANCH  25  29
HETATM   29  O   UNL     1      26.056  47.549  41.480  1.00  0.00    -0.361 OA
HETATM   30  H   UNL     1      26.597  47.757  42.260  1.00  0.00     0.217 HD
ENDBRANCH  25  29
ENDBRANCH  12  23
TORSDOF 4
ENDMDL
MODEL 3
REMARK VINA RESULT:      -7.8      2.574      3.295
REMARK  4 active torsions:
REMARK  status: ('A' for Active; 'I' for Inactive)
REMARK    1  A    between atoms: C_2  and  C_3 
REMARK    2  A    between atoms: C_8  and  C_9 
REMARK       I    between atoms: C_9  and  N_10 
REMARK    3  A    between atoms: C_20  and  C_21 
REMARK    4  A    between atoms: C_23  and  O_24 
ROOT
HETATM    1  C   UNL     1      32.068  48.845  40.682  1.00  0.00     0.258 C 
HETATM    2  N   UNL     1      30.804  48.787  40.083  1.00  0.00    -0.340 N 
HETATM    3  C   UNL     1      29.828  49.863  39.988  1.00  0.00     0.123 C 
HETATM    4  C   UNL     1      28.761  49.367  38.975  1.00  0.00     0.221 C 
HETATM    5  N   UNL     1      27.367  49.495  39.607  1.00  0.00    -0.064 N 
HETATM    6  H   UNL     1      26.655  49.182  38.932  1.00  0.00     0.280 HD
HETATM    7  C   UNL     1      27.154  48.711  40.894  1.00  0.00     0.236 C 
HETATM    8  C   UNL     1      28.320  49.000  41.829  1.00  0.00     0.034 C 
HETATM    9  C   UNL     1      29.119  50.213  41.318  1.00  0.00     0.014 C 
HETATM   10  C   UNL     1      28.123  51.361  41.040  1.00  0.00     0.034 C 
HETATM   11  C   UNL     1      27.128  50.967  39.938  1.00  0.00     0.236 C 
HETATM   12  C   UNL     1      29.223  47.975  38.459  1.00  0.00     0.070 C 
HETATM   13  C   UNL     1      30.671  47.866  38.966  1.00  0.00     0.138 C 
HETATM   14  O   UNL     1      32.756  47.838  40.814  1.00  0.00    -0.267 OA
ENDROOT
BRANCH   1  15
HETATM   15  C   UNL     1      32.601  50.159  40.940  1.00  0.00     0.090 C 
HETATM   16  C   UNL     1      33.123  51.165  40.090  1.00  0.00     0.080 C 
HETATM   17  N   UNL     1      33.573  52.205  40.808  1.00  0.00    -0.132 NA
HETATM   18  O   UNL     1      33.201  51.962  42.111  1.00  0.00    -0.217 OA
HETATM   19  C   UNL     1      32.588  50.755  42.185  1.00  0.00     0.092 C 
HETATM   20  C   UNL     1      32.047  50.363  43.501  1.00  0.00     0.080 C 
BRANCH  16  21
HETATM   21  C   UNL     1      33.253  51.186  38.605  1.00  0.00     0.058 C 
HETATM   22  C   UNL     1      31.926  51.382  37.886  1.00  0.00     0.011 C 
ENDBRANCH  16  21
ENDBRANCH   1  15
BRANCH  12  23
HETATM   23  C   UNL     1      28.338  46.773  38.700  1.00  0.00    -0.048 A 
HETATM   24  C   UNL     1      28.731  45.820  39.660  1.00  0.00     0.044 A 
HETATM   25  C   UNL     1      27.954  44.686  39.882  1.00  0.00     0.066 A 
HETATM   26  C   UNL     1      26.779  44.476  39.175  1.00  0.00     0.036 A 
HETATM   27  C   UNL     1      26.357  45.425  38.249  1.00  0.00     0.003 A 
HETATM   28  C   UNL     1      27.128  46.566  38.013  1.00  0.00     0.008 A 
BRANCH  25  29
HETATM   29  O   UNL     1      28.326  43.742  40.788  1.00  0.00    -0.361 OA
HETATM   30  H   UNL     1      27.929  43.945  41.652  1.00  0.00     0.217 HD
ENDBRANCH  25  29
ENDBRANCH  12  23
TORSDOF 4
ENDMDL
MODEL 4
REMARK VINA RESULT:      -7.6      2.764      3.983
REMARK  4 active torsions:
REMARK  status: ('A' for Active; 'I' for Inactive)
REMARK    1  A    between atoms: C_2  and  C_3 
REMARK    2  A    between atoms: C_8  and  C_9 
REMARK       I    between atoms: C_9  and  N_10 
REMARK    3  A    between atoms: C_20  and  C_21 
REMARK    4  A    between atoms: C_23  and  O_24 
ROOT
HETATM    1  C   UNL     1      31.678  48.989  40.631  1.00  0.00     0.258 C 
HETATM    2  N   UNL     1      30.469  48.787  39.955  1.00  0.00    -0.340 N 
HETATM    3  C   UNL     1      29.401  49.757  39.758  1.00  0.00     0.123 C 
HETATM    4  C   UNL     1      28.458  49.126  38.698  1.00  0.00     0.221 C 
HETATM    5  N   UNL     1      27.018  49.133  39.234  1.00  0.00    -0.064 N 
HETATM    6  H   UNL     1      26.388  48.731  38.528  1.00  0.00     0.280 HD
HETATM    7  C   UNL     1      26.798  48.371  40.534  1.00  0.00     0.236 C 
HETATM    8  C   UNL     1      27.864  48.805  41.530  1.00  0.00     0.034 C 
HETATM    9  C   UNL     1      28.574  50.075  41.026  1.00  0.00     0.014 C 
HETATM   10  C   UNL     1      27.491  51.108  40.643  1.00  0.00     0.034 C 
HETATM   11  C   UNL     1      26.616  50.584  39.495  1.00  0.00     0.236 C 
HETATM   12  C   UNL     1      29.087  47.772  38.265  1.00  0.00     0.070 C 
HETATM   13  C   UNL     1      30.502  47.823  38.866  1.00  0.00     0.138 C 
HETATM   14  O   UNL     1      32.451  48.061  40.844  1.00  0.00    -0.267 OA
ENDROOT
BRANCH   1  15
HETATM   15  C   UNL     1      32.062  50.357  40.873  1.00  0.00     0.090 C 
HETATM   16  C   UNL     1      32.251  51.103  42.063  1.00  0.00     0.080 C 
HETATM   17  N   UNL     1      32.540  52.382  41.780  1.00  0.00    -0.132 NA
HETATM   18  O   UNL     1      32.705  52.444  40.414  1.00  0.00    -0.217 OA
HETATM   19  C   UNL     1      32.455  51.225  39.876  1.00  0.00     0.092 C 
HETATM   20  C   UNL     1      32.663  51.087  38.421  1.00  0.00     0.080 C 
BRANCH  16  21
HETATM   21  C   UNL     1      32.139  50.673  43.486  1.00  0.00     0.058 C 
HETATM   22  C   UNL     1      32.659  51.709  44.473  1.00  0.00     0.011 C 
ENDBRANCH  16  21
ENDBRANCH   1  15
BRANCH  12  23
HETATM   23  C   UNL     1      28.309  46.495  38.493  1.00  0.00    -0.048 A 
HETATM   24  C   UNL     1      28.660  45.671  39.580  1.00  0.00     0.044 A 
HETATM   25  C   UNL     1      27.983  44.474  39.798  1.00  0.00     0.066 A 
HETATM   26  C   UNL     1      26.952  44.073  38.962  1.00  0.00     0.036 A 
HETATM   27  C   UNL     1      26.569  44.892  37.904  1.00  0.00     0.003 A 
HETATM   28  C   UNL     1      27.241  46.095  37.671  1.00  0.00     0.008 A 
BRANCH  25  29
HETATM   29  O   UNL     1      28.319  43.651  40.830  1.00  0.00    -0.361 OA
HETATM   30  H   UNL     1      29.043  44.050  41.341  1.00  0.00     0.217 HD
ENDBRANCH  25  29
ENDBRANCH  12  23
TORSDOF 4
ENDMDL
MODEL 5
REMARK VINA RESULT:      -7.5     13.144     15.173
REMARK  4 active torsions:
REMARK  status: ('A' for Active; 'I' for Inactive)
REMARK    1  A    between atoms: C_2  and  C_3 
REMARK    2  A    between atoms: C_8  and  C_9 
REMARK       I    between atoms: C_9  and  N_10 
REMARK    3  A    between atoms: C_20  and  C_21 
REMARK    4  A    between atoms: C_23  and  O_24 
ROOT
HETATM    1  C   UNL     1      28.379  46.473  55.221  1.00  0.00     0.258 C 
HETATM    2  N   UNL     1      27.618  45.535  54.517  1.00  0.00    -0.340 N 
HETATM    3  C   UNL     1      27.662  44.086  54.656  1.00  0.00     0.123 C 
HETATM    4  C   UNL     1      26.420  43.557  53.887  1.00  0.00     0.221 C 
HETATM    5  N   UNL     1      26.867  42.482  52.885  1.00  0.00    -0.064 N 
HETATM    6  H   UNL     1      26.045  42.117  52.385  1.00  0.00     0.280 HD
HETATM    7  C   UNL     1      27.876  42.936  51.840  1.00  0.00     0.236 C 
HETATM    8  C   UNL     1      29.004  43.670  52.551  1.00  0.00     0.034 C 
HETATM    9  C   UNL     1      28.927  43.417  54.067  1.00  0.00     0.014 C 
HETATM   10  C   UNL     1      28.811  41.894  54.294  1.00  0.00     0.034 C 
HETATM   11  C   UNL     1      27.519  41.344  53.669  1.00  0.00     0.236 C 
HETATM   12  C   UNL     1      25.641  44.794  53.357  1.00  0.00     0.070 C 
HETATM   13  C   UNL     1      26.298  45.975  54.092  1.00  0.00     0.138 C 
HETATM   14  O   UNL     1      28.349  47.665  54.932  1.00  0.00    -0.267 OA
ENDROOT
BRANCH   1  15
HETATM   15  C   UNL     1      29.028  46.009  56.422  1.00  0.00     0.090 C 
HETATM   16  C   UNL     1      30.212  45.263  56.644  1.00  0.00     0.080 C 
HETATM   17  N   UNL     1      30.372  45.006  57.951  1.00  0.00    -0.132 NA
HETATM   18  O   UNL     1      29.391  45.717  58.605  1.00  0.00    -0.217 OA
HETATM   19  C   UNL     1      28.609  46.346  57.693  1.00  0.00     0.092 C 
HETATM   20  C   UNL     1      27.548  47.226  58.221  1.00  0.00     0.080 C 
BRANCH  16  21
HETATM   21  C   UNL     1      31.207  44.739  55.665  1.00  0.00     0.058 C 
HETATM   22  C   UNL     1      31.843  43.425  56.096  1.00  0.00     0.011 C 
ENDBRANCH  16  21
ENDBRANCH   1  15
BRANCH  12  23
HETATM   23  C   UNL     1      25.451  44.958  51.866  1.00  0.00    -0.048 A 
HETATM   24  C   UNL     1      26.287  45.850  51.167  1.00  0.00     0.044 A 
HETATM   25  C   UNL     1      26.116  46.046  49.799  1.00  0.00     0.066 A 
HETATM   26  C   UNL     1      25.132  45.365  49.098  1.00  0.00     0.036 A 
HETATM   27  C   UNL     1      24.320  44.453  49.765  1.00  0.00     0.003 A 
HETATM   28  C   UNL     1      24.478  44.249  51.139  1.00  0.00     0.008 A 
BRANCH  25  29
HETATM   29  O   UNL     1      26.898  46.919  49.108  1.00  0.00    -0.361 OA
HETATM   30  H   UNL     1      26.338  47.585  48.675  1.00  0.00     0.217 HD
ENDBRANCH  25  29
ENDBRANCH  12  23
TORSDOF 4
ENDMDL
MODEL 6
REMARK VINA RESULT:      -7.4     25.179     27.050
REMARK  4 active torsions:
REMARK  status: ('A' for Active; 'I' for Inactive)
REMARK    1  A    between atoms: C_2  and  C_3 
REMARK    2  A    between atoms: C_8  and  C_9 
REMARK       I    between atoms: C_9  and  N_10 
REMARK    3  A    between atoms: C_20  and  C_21 
REMARK    4  A    between atoms: C_23  and  O_24 
ROOT
HETATM    1  C   UNL     1      36.814  45.839  65.068  1.00  0.00     0.258 C 
HETATM    2  N   UNL     1      37.732  44.822  65.349  1.00  0.00    -0.340 N 
HETATM    3  C   UNL     1      38.960  44.937  66.122  1.00  0.00     0.123 C 
HETATM    4  C   UNL     1      39.424  43.478  66.386  1.00  0.00     0.221 C 
HETATM    5  N   UNL     1      40.887  43.325  65.944  1.00  0.00    -0.064 N 
HETATM    6  H   UNL     1      41.203  42.364  66.132  1.00  0.00     0.280 HD
HETATM    7  C   UNL     1      41.165  43.621  64.477  1.00  0.00     0.236 C 
HETATM    8  C   UNL     1      40.517  44.953  64.126  1.00  0.00     0.034 C 
HETATM    9  C   UNL     1      40.105  45.696  65.410  1.00  0.00     0.014 C 
HETATM   10  C   UNL     1      41.324  45.723  66.360  1.00  0.00     0.034 C 
HETATM   11  C   UNL     1      41.734  44.298  66.763  1.00  0.00     0.236 C 
HETATM   12  C   UNL     1      38.354  42.534  65.768  1.00  0.00     0.070 C 
HETATM   13  C   UNL     1      37.185  43.478  65.443  1.00  0.00     0.138 C 
HETATM   14  O   UNL     1      35.876  45.657  64.299  1.00  0.00    -0.267 OA
ENDROOT
BRANCH   1  15
HETATM   15  C   UNL     1      36.900  47.029  65.878  1.00  0.00     0.090 C 
HETATM   16  C   UNL     1      37.440  48.316  65.635  1.00  0.00     0.080 C 
HETATM   17  N   UNL     1      37.352  49.082  66.733  1.00  0.00    -0.132 NA
HETATM   18  O   UNL     1      36.609  48.364  67.643  1.00  0.00    -0.217 OA
HETATM   19  C   UNL     1      36.308  47.150  67.118  1.00  0.00     0.092 C 
HETATM   20  C   UNL     1      35.442  46.272  67.930  1.00  0.00     0.080 C 
BRANCH  16  21
HETATM   21  C   UNL     1      38.080  48.866  64.405  1.00  0.00     0.058 C 
HETATM   22  C   UNL     1      39.515  49.323  64.625  1.00  0.00     0.011 C 
ENDBRANCH  16  21
ENDBRANCH   1  15
BRANCH  12  23
HETATM   23  C   UNL     1      38.766  41.577  64.671  1.00  0.00    -0.048 A 
HETATM   24  C   UNL     1      39.428  40.385  65.022  1.00  0.00     0.044 A 
HETATM   25  C   UNL     1      39.848  39.499  64.033  1.00  0.00     0.066 A 
HETATM   26  C   UNL     1      39.618  39.765  62.692  1.00  0.00     0.036 A 
HETATM   27  C   UNL     1      38.934  40.921  62.329  1.00  0.00     0.003 A 
HETATM   28  C   UNL     1      38.509  41.821  63.310  1.00  0.00     0.008 A 
BRANCH  25  29
HETATM   29  O   UNL     1      40.508  38.351  64.348  1.00  0.00    -0.361 OA
HETATM   30  H   UNL     1      40.949  38.002  63.555  1.00  0.00     0.217 HD
ENDBRANCH  25  29
ENDBRANCH  12  23
TORSDOF 4
ENDMDL
MODEL 7
REMARK VINA RESULT:      -7.3      2.696      6.874
REMARK  4 active torsions:
REMARK  status: ('A' for Active; 'I' for Inactive)
REMARK    1  A    between atoms: C_2  and  C_3 
REMARK    2  A    between atoms: C_8  and  C_9 
REMARK       I    between atoms: C_9  and  N_10 
REMARK    3  A    between atoms: C_20  and  C_21 
REMARK    4  A    between atoms: C_23  and  O_24 
ROOT
HETATM    1  C   UNL     1      28.692  46.870  39.704  1.00  0.00     0.258 C 
HETATM    2  N   UNL     1      29.009  48.119  40.250  1.00  0.00    -0.340 N 
HETATM    3  C   UNL     1      28.359  49.390  39.968  1.00  0.00     0.123 C 
HETATM    4  C   UNL     1      28.880  50.373  41.052  1.00  0.00     0.221 C 
HETATM    5  N   UNL     1      29.430  51.634  40.369  1.00  0.00    -0.064 N 
HETATM    6  H   UNL     1      29.762  52.294  41.084  1.00  0.00     0.280 HD
HETATM    7  C   UNL     1      30.574  51.405  39.390  1.00  0.00     0.236 C 
HETATM    8  C   UNL     1      30.180  50.275  38.449  1.00  0.00     0.034 C 
HETATM    9  C   UNL     1      28.673  49.983  38.574  1.00  0.00     0.014 C 
HETATM   10  C   UNL     1      27.913  51.322  38.442  1.00  0.00     0.034 C 
HETATM   11  C   UNL     1      28.293  52.281  39.580  1.00  0.00     0.236 C 
HETATM   12  C   UNL     1      29.815  49.567  41.997  1.00  0.00     0.070 C 
HETATM   13  C   UNL     1      29.557  48.104  41.597  1.00  0.00     0.138 C 
HETATM   14  O   UNL     1      29.391  45.885  39.919  1.00  0.00    -0.267 OA
ENDROOT
BRANCH   1  15
HETATM   15  C   UNL     1      27.408  46.754  39.059  1.00  0.00     0.090 C 
HETATM   16  C   UNL     1      27.029  46.480  37.722  1.00  0.00     0.080 C 
HETATM   17  N   UNL     1      25.696  46.548  37.584  1.00  0.00    -0.132 NA
HETATM   18  O   UNL     1      25.186  46.701  38.854  1.00  0.00    -0.217 OA
HETATM   19  C   UNL     1      26.209  46.787  39.740  1.00  0.00     0.092 C 
HETATM   20  C   UNL     1      25.844  46.874  41.168  1.00  0.00     0.080 C 
BRANCH  16  21
HETATM   21  C   UNL     1      27.876  46.184  36.531  1.00  0.00     0.058 C 
HETATM   22  C   UNL     1      28.461  44.779  36.542  1.00  0.00     0.011 C 
ENDBRANCH  16  21
ENDBRANCH   1  15
BRANCH  12  23
HETATM   23  C   UNL     1      31.264  49.980  42.122  1.00  0.00    -0.048 A 
HETATM   24  C   UNL     1      32.239  49.266  41.399  1.00  0.00     0.044 A 
HETATM   25  C   UNL     1      33.586  49.602  41.517  1.00  0.00     0.066 A 
HETATM   26  C   UNL     1      33.992  50.644  42.337  1.00  0.00     0.036 A 
HETATM   27  C   UNL     1      33.039  51.383  43.031  1.00  0.00     0.003 A 
HETATM   28  C   UNL     1      31.685  51.056  42.924  1.00  0.00     0.008 A 
BRANCH  25  29
HETATM   29  O   UNL     1      34.547  48.912  40.845  1.00  0.00    -0.361 OA
HETATM   30  H   UNL     1      34.182  48.576  40.009  1.00  0.00     0.217 HD
ENDBRANCH  25  29
ENDBRANCH  12  23
TORSDOF 4
ENDMDL
MODEL 8
REMARK VINA RESULT:      -7.1     25.159     27.077
REMARK  4 active torsions:
REMARK  status: ('A' for Active; 'I' for Inactive)
REMARK    1  A    between atoms: C_2  and  C_3 
REMARK    2  A    between atoms: C_8  and  C_9 
REMARK       I    between atoms: C_9  and  N_10 
REMARK    3  A    between atoms: C_20  and  C_21 
REMARK    4  A    between atoms: C_23  and  O_24 
ROOT
HETATM    1  C   UNL     1      37.292  46.543  64.480  1.00  0.00     0.258 C 
HETATM    2  N   UNL     1      37.827  45.366  65.018  1.00  0.00    -0.340 N 
HETATM    3  C   UNL     1      38.708  45.250  66.170  1.00  0.00     0.123 C 
HETATM    4  C   UNL     1      38.742  43.736  66.516  1.00  0.00     0.221 C 
HETATM    5  N   UNL     1      40.202  43.269  66.599  1.00  0.00    -0.064 N 
HETATM    6  H   UNL     1      40.229  42.270  66.844  1.00  0.00     0.280 HD
HETATM    7  C   UNL     1      41.024  43.452  65.331  1.00  0.00     0.236 C 
HETATM    8  C   UNL     1      40.825  44.877  64.834  1.00  0.00     0.034 C 
HETATM    9  C   UNL     1      40.159  45.731  65.928  1.00  0.00     0.014 C 
HETATM   10  C   UNL     1      40.952  45.536  67.239  1.00  0.00     0.034 C 
HETATM   11  C   UNL     1      40.896  44.071  67.699  1.00  0.00     0.236 C 
HETATM   12  C   UNL     1      37.781  43.014  65.529  1.00  0.00     0.070 C 
HETATM   13  C   UNL     1      37.016  44.169  64.861  1.00  0.00     0.138 C 
HETATM   14  O   UNL     1      36.661  46.533  63.429  1.00  0.00    -0.267 OA
ENDROOT
BRANCH   1  15
HETATM   15  C   UNL     1      37.336  47.714  65.319  1.00  0.00     0.090 C 
HETATM   16  C   UNL     1      36.612  48.093  66.476  1.00  0.00     0.080 C 
HETATM   17  N   UNL     1      36.958  49.329  66.869  1.00  0.00    -0.132 NA
HETATM   18  O   UNL     1      38.021  49.700  66.076  1.00  0.00    -0.217 OA
HETATM   19  C   UNL     1      38.271  48.719  65.173  1.00  0.00     0.092 C 
HETATM   20  C   UNL     1      39.437  48.913  64.288  1.00  0.00     0.080 C 
BRANCH  16  21
HETATM   21  C   UNL     1      35.564  47.348  67.231  1.00  0.00     0.058 C 
HETATM   22  C   UNL     1      34.905  48.177  68.325  1.00  0.00     0.011 C 
ENDBRANCH  16  21
ENDBRANCH   1  15
BRANCH  12  23
HETATM   23  C   UNL     1      38.340  41.958  64.602  1.00  0.00    -0.048 A 
HETATM   24  C   UNL     1      38.744  40.722  65.145  1.00  0.00     0.044 A 
HETATM   25  C   UNL     1      39.291  39.741  64.322  1.00  0.00     0.066 A 
HETATM   26  C   UNL     1      39.442  39.953  62.960  1.00  0.00     0.036 A 
HETATM   27  C   UNL     1      39.016  41.155  62.402  1.00  0.00     0.003 A 
HETATM   28  C   UNL     1      38.467  42.150  63.215  1.00  0.00     0.008 A 
BRANCH  25  29
HETATM   29  O   UNL     1      39.708  38.548  64.828  1.00  0.00    -0.361 OA
HETATM   30  H   UNL     1      40.652  38.424  64.632  1.00  0.00     0.217 HD
ENDBRANCH  25  29
ENDBRANCH  12  23
TORSDOF 4
ENDMDL
MODEL 9
REMARK VINA RESULT:      -7.0     11.378     14.983
REMARK  4 active torsions:
REMARK  status: ('A' for Active; 'I' for Inactive)
REMARK    1  A    between atoms: C_2  and  C_3 
REMARK    2  A    between atoms: C_8  and  C_9 
REMARK       I    between atoms: C_9  and  N_10 
REMARK    3  A    between atoms: C_20  and  C_21 
REMARK    4  A    between atoms: C_23  and  O_24 
ROOT
HETATM    1  C   UNL     1      18.294  49.221  45.783  1.00  0.00     0.258 C 
HETATM    2  N   UNL     1      19.080  48.966  46.912  1.00  0.00    -0.340 N 
HETATM    3  C   UNL     1      18.630  48.883  48.294  1.00  0.00     0.123 C 
HETATM    4  C   UNL     1      19.824  48.281  49.084  1.00  0.00     0.221 C 
HETATM    5  N   UNL     1      20.144  49.185  50.284  1.00  0.00    -0.064 N 
HETATM    6  H   UNL     1      20.924  48.780  50.819  1.00  0.00     0.280 HD
HETATM    7  C   UNL     1      20.517  50.621  49.943  1.00  0.00     0.236 C 
HETATM    8  C   UNL     1      19.477  51.169  48.975  1.00  0.00     0.034 C 
HETATM    9  C   UNL     1      18.251  50.239  48.935  1.00  0.00     0.014 C 
HETATM   10  C   UNL     1      17.803  49.972  50.389  1.00  0.00     0.034 C 
HETATM   11  C   UNL     1      18.905  49.247  51.176  1.00  0.00     0.236 C 
HETATM   12  C   UNL     1      20.951  47.974  48.058  1.00  0.00     0.070 C 
HETATM   13  C   UNL     1      20.252  48.132  46.697  1.00  0.00     0.138 C 
HETATM   14  O   UNL     1      18.801  49.394  44.680  1.00  0.00    -0.267 OA
ENDROOT
BRANCH   1  15
HETATM   15  C   UNL     1      16.870  49.063  45.938  1.00  0.00     0.090 C 
HETATM   16  C   UNL     1      15.816  49.993  46.118  1.00  0.00     0.080 C 
HETATM   17  N   UNL     1      14.647  49.358  46.291  1.00  0.00    -0.132 NA
HETATM   18  O   UNL     1      14.898  48.023  46.062  1.00  0.00    -0.217 OA
HETATM   19  C   UNL     1      16.221  47.851  45.815  1.00  0.00     0.092 C 
HETATM   20  C   UNL     1      16.659  46.486  45.467  1.00  0.00     0.080 C 
BRANCH  16  21
HETATM   21  C   UNL     1      15.857  51.483  46.169  1.00  0.00     0.058 C 
HETATM   22  C   UNL     1      15.522  52.049  47.541  1.00  0.00     0.011 C 
ENDBRANCH  16  21
ENDBRANCH   1  15
BRANCH  12  23
HETATM   23  C   UNL     1      22.287  48.665  48.208  1.00  0.00    -0.048 A 
HETATM   24  C   UNL     1      23.269  48.077  49.029  1.00  0.00     0.044 A 
HETATM   25  C   UNL     1      24.498  48.706  49.212  1.00  0.00     0.066 A 
HETATM   26  C   UNL     1      24.784  49.910  48.587  1.00  0.00     0.036 A 
HETATM   27  C   UNL     1      23.840  50.487  47.744  1.00  0.00     0.003 A 
HETATM   28  C   UNL     1      22.601  49.870  47.553  1.00  0.00     0.008 A 
BRANCH  25  29
HETATM   29  O   UNL     1      25.453  48.167  50.019  1.00  0.00    -0.361 OA
HETATM   30  H   UNL     1      25.890  48.874  50.522  1.00  0.00     0.217 HD
ENDBRANCH  25  29
ENDBRANCH  12  23
TORSDOF 4
ENDMDL
MODEL 10
REMARK VINA RESULT:      -6.8      2.960      7.164
REMARK  4 active torsions:
REMARK  status: ('A' for Active; 'I' for Inactive)
REMARK    1  A    between atoms: C_2  and  C_3 
REMARK    2  A    between atoms: C_8  and  C_9 
REMARK       I    between atoms: C_9  and  N_10 
REMARK    3  A    between atoms: C_20  and  C_21 
REMARK    4  A    between atoms: C_23  and  O_24 
ROOT
HETATM    1  C   UNL     1      31.567  53.518  40.624  1.00  0.00     0.258 C 
HETATM    2  N   UNL     1      32.551  52.556  40.370  1.00  0.00    -0.340 N 
HETATM    3  C   UNL     1      32.461  51.123  40.614  1.00  0.00     0.123 C 
HETATM    4  C   UNL     1      33.678  50.499  39.877  1.00  0.00     0.221 C 
HETATM    5  N   UNL     1      34.462  49.613  40.856  1.00  0.00    -0.064 N 
HETATM    6  H   UNL     1      35.260  49.185  40.367  1.00  0.00     0.280 HD
HETATM    7  C   UNL     1      35.005  50.318  42.091  1.00  0.00     0.236 C 
HETATM    8  C   UNL     1      33.878  51.133  42.711  1.00  0.00     0.034 C 
HETATM    9  C   UNL     1      32.527  50.714  42.104  1.00  0.00     0.014 C 
HETATM   10  C   UNL     1      32.422  49.175  42.183  1.00  0.00     0.034 C 
HETATM   11  C   UNL     1      33.527  48.509  41.349  1.00  0.00     0.236 C 
HETATM   12  C   UNL     1      34.425  51.656  39.154  1.00  0.00     0.070 C 
HETATM   13  C   UNL     1      33.446  52.838  39.259  1.00  0.00     0.138 C 
HETATM   14  O   UNL     1      31.800  54.715  40.497  1.00  0.00    -0.267 OA
ENDROOT
BRANCH   1  15
HETATM   15  C   UNL     1      30.227  53.031  40.835  1.00  0.00     0.090 C 
HETATM   16  C   UNL     1      29.185  52.676  39.942  1.00  0.00     0.080 C 
HETATM   17  N   UNL     1      28.075  52.344  40.618  1.00  0.00    -0.132 NA
HETATM   18  O   UNL     1      28.429  52.318  41.949  1.00  0.00    -0.217 OA
HETATM   19  C   UNL     1      29.726  52.694  42.075  1.00  0.00     0.092 C 
HETATM   20  C   UNL     1      30.301  52.647  43.434  1.00  0.00     0.080 C 
BRANCH  16  21
HETATM   21  C   UNL     1      29.169  52.664  38.451  1.00  0.00     0.058 C 
HETATM   22  C   UNL     1      30.060  51.588  37.847  1.00  0.00     0.011 C 
ENDBRANCH  16  21
ENDBRANCH   1  15
BRANCH  12  23
HETATM   23  C   UNL     1      35.863  51.945  39.524  1.00  0.00    -0.048 A 
HETATM   24  C   UNL     1      36.874  51.098  39.030  1.00  0.00     0.044 A 
HETATM   25  C   UNL     1      38.205  51.319  39.378  1.00  0.00     0.066 A 
HETATM   26  C   UNL     1      38.561  52.374  40.205  1.00  0.00     0.036 A 
HETATM   27  C   UNL     1      37.579  53.241  40.673  1.00  0.00     0.003 A 
HETATM   28  C   UNL     1      36.239  53.030  40.334  1.00  0.00     0.008 A 
BRANCH  25  29
HETATM   29  O   UNL     1      39.196  50.501  38.930  1.00  0.00    -0.361 OA
HETATM   30  H   UNL     1      40.031  50.996  38.887  1.00  0.00     0.217 HD
ENDBRANCH  25  29
ENDBRANCH  12  23
TORSDOF 4
ENDMDL
