MODEL 1
REMARK VINA RESULT:     -11.6      0.000      0.000
REMARK  4 active torsions:
REMARK  status: ('A' for Active; 'I' for Inactive)
REMARK    1  A    between atoms: C_2  and  C_3 
REMARK    2  A    between atoms: N_16  and  C_17 
REMARK    3  A    between atoms: C_17  and  C_18 
REMARK       I    between atoms: C_18  and  N_19 
REMARK    4  A    between atoms: N_19  and  C_20 
ROOT
HETATM    1  C   UNL     1      27.409  42.004  51.216  1.00  0.00     0.054 C 
HETATM    2  C   UNL     1      26.734  43.291  51.698  1.00  0.00     0.140 A 
HETATM    3  N   UNL     1      25.335  43.017  51.956  1.00  0.00    -0.321 N 
HETATM    4  C   UNL     1      24.493  43.627  51.059  1.00  0.00     0.326 A 
HETATM    5  O   UNL     1      23.283  43.488  51.066  1.00  0.00    -0.247 OA
HETATM    6  N   UNL     1      25.239  44.361  50.194  1.00  0.00    -0.259 N 
HETATM    7  C   UNL     1      26.564  44.266  50.507  1.00  0.00     0.261 A 
HETATM    8  O   UNL     1      27.455  44.871  49.920  1.00  0.00    -0.270 OA
HETATM    9  H   UNL     1      24.977  42.388  52.662  1.00  0.00     0.165 HD
ENDROOT
BRANCH   6  10
HETATM   10  C   UNL     1      24.690  45.149  49.110  1.00  0.00     0.240 C 
BRANCH  10  11
HETATM   11  C   UNL     1      24.273  46.535  49.602  1.00  0.00     0.240 C 
HETATM   12  N   UNL     1      23.364  47.168  48.765  1.00  0.00    -0.325 N 
HETATM   13  H   UNL     1      22.987  46.603  48.009  1.00  0.00     0.169 HD
HETATM   14  O   UNL     1      24.643  46.944  50.699  1.00  0.00    -0.271 OA
BRANCH  12  15
HETATM   15  C   UNL     1      22.836  48.479  48.903  1.00  0.00     0.047 A 
HETATM   16  C   UNL     1      21.429  48.665  49.088  1.00  0.00     0.019 A 
HETATM   17  C   UNL     1      20.913  49.980  49.196  1.00  0.00     0.069 A 
HETATM   18  C   UNL     1      20.475  47.623  49.199  1.00  0.00     0.017 A 
HETATM   19  N   UNL     1      19.610  50.254  49.387  1.00  0.00    -0.260 NA
HETATM   20  C   UNL     1      21.779  51.057  49.112  1.00  0.00     0.032 A 
HETATM   21  C   UNL     1      18.747  49.224  49.487  1.00  0.00     0.117 A 
HETATM   22  C   UNL     1      19.126  47.904  49.401  1.00  0.00     0.020 A 
HETATM   23  C   UNL     1      23.147  50.883  48.928  1.00  0.00     0.005 A 
HETATM   24  C   UNL     1      23.671  49.599  48.826  1.00  0.00     0.030 A 
ENDBRANCH  12  15
ENDBRANCH  10  11
ENDBRANCH   6  10
BRANCH   2  25
HETATM   25  C   UNL     1      27.451  43.940  52.876  1.00  0.00    -0.020 A 
HETATM   26  C   UNL     1      28.573  43.354  53.492  1.00  0.00     0.022 A 
HETATM   27  C   UNL     1      29.239  43.972  54.567  1.00  0.00    -0.025 A 
HETATM   28  C   UNL     1      28.769  45.211  55.054  1.00  0.00    -0.026 A 
HETATM   29  C   UNL     1      30.365  43.385  55.170  1.00  0.00     0.012 A 
HETATM   30  C   UNL     1      27.642  45.791  54.460  1.00  0.00     0.013 A 
HETATM   31  C   UNL     1      29.435  45.832  56.122  1.00  0.00     0.012 A 
HETATM   32  C   UNL     1      26.992  45.164  53.391  1.00  0.00     0.011 A 
HETATM   33  C   UNL     1      30.554  45.238  56.706  1.00  0.00     0.001 A 
HETATM   34  C   UNL     1      31.018  44.014  56.231  1.00  0.00     0.001 A 
ENDBRANCH   2  25
TORSDOF 4
ENDMDL
MODEL 2
REMARK VINA RESULT:     -11.1      3.673      6.985
REMARK  4 active torsions:
REMARK  status: ('A' for Active; 'I' for Inactive)
REMARK    1  A    between atoms: C_2  and  C_3 
REMARK    2  A    between atoms: N_16  and  C_17 
REMARK    3  A    between atoms: C_17  and  C_18 
REMARK       I    between atoms: C_18  and  N_19 
REMARK    4  A    between atoms: N_19  and  C_20 
ROOT
HETATM    1  C   UNL     1      26.008  47.353  54.886  1.00  0.00     0.054 C 
HETATM    2  C   UNL     1      26.616  46.331  53.920  1.00  0.00     0.140 A 
HETATM    3  N   UNL     1      26.914  46.994  52.667  1.00  0.00    -0.321 N 
HETATM    4  C   UNL     1      26.104  46.585  51.637  1.00  0.00     0.326 A 
HETATM    5  O   UNL     1      26.155  47.050  50.512  1.00  0.00    -0.247 OA
HETATM    6  N   UNL     1      25.265  45.624  52.100  1.00  0.00    -0.259 N 
HETATM    7  C   UNL     1      25.509  45.371  53.418  1.00  0.00     0.261 A 
HETATM    8  O   UNL     1      24.930  44.511  54.074  1.00  0.00    -0.270 OA
HETATM    9  H   UNL     1      27.586  47.737  52.538  1.00  0.00     0.165 HD
ENDROOT
BRANCH   6  10
HETATM   10  C   UNL     1      24.268  44.953  51.291  1.00  0.00     0.240 C 
BRANCH  10  11
HETATM   11  C   UNL     1      24.927  43.986  50.306  1.00  0.00     0.240 C 
HETATM   12  N   UNL     1      25.034  42.690  50.791  1.00  0.00    -0.325 N 
HETATM   13  H   UNL     1      24.558  42.503  51.669  1.00  0.00     0.169 HD
HETATM   14  O   UNL     1      25.202  44.351  49.165  1.00  0.00    -0.271 OA
BRANCH  12  15
HETATM   15  C   UNL     1      25.652  41.582  50.154  1.00  0.00     0.047 A 
HETATM   16  C   UNL     1      26.849  41.021  50.701  1.00  0.00     0.019 A 
HETATM   17  C   UNL     1      27.470  39.933  50.039  1.00  0.00     0.069 A 
HETATM   18  C   UNL     1      27.480  41.449  51.895  1.00  0.00     0.017 A 
HETATM   19  N   UNL     1      28.586  39.330  50.485  1.00  0.00    -0.260 NA
HETATM   20  C   UNL     1      26.911  39.442  48.872  1.00  0.00     0.032 A 
HETATM   21  C   UNL     1      29.143  39.779  51.627  1.00  0.00     0.117 A 
HETATM   22  C   UNL     1      28.633  40.824  52.362  1.00  0.00     0.020 A 
HETATM   23  C   UNL     1      25.749  39.986  48.332  1.00  0.00     0.005 A 
HETATM   24  C   UNL     1      25.124  41.050  48.972  1.00  0.00     0.030 A 
ENDBRANCH  12  15
ENDBRANCH  10  11
ENDBRANCH   6  10
BRANCH   2  25
HETATM   25  C   UNL     1      27.805  45.583  54.508  1.00  0.00    -0.020 A 
HETATM   26  C   UNL     1      28.398  45.950  55.732  1.00  0.00     0.022 A 
HETATM   27  C   UNL     1      29.485  45.239  56.275  1.00  0.00    -0.025 A 
HETATM   28  C   UNL     1      30.008  44.131  55.574  1.00  0.00    -0.026 A 
HETATM   29  C   UNL     1      30.063  45.605  57.502  1.00  0.00     0.012 A 
HETATM   30  C   UNL     1      29.438  43.772  54.347  1.00  0.00     0.013 A 
HETATM   31  C   UNL     1      31.088  43.417  56.116  1.00  0.00     0.012 A 
HETATM   32  C   UNL     1      28.357  44.488  53.822  1.00  0.00     0.011 A 
HETATM   33  C   UNL     1      31.647  43.791  57.338  1.00  0.00     0.001 A 
HETATM   34  C   UNL     1      31.136  44.885  58.030  1.00  0.00     0.001 A 
ENDBRANCH   2  25
TORSDOF 4
ENDMDL
MODEL 3
REMARK VINA RESULT:     -11.0      1.910      3.467
REMARK  4 active torsions:
REMARK  status: ('A' for Active; 'I' for Inactive)
REMARK    1  A    between atoms: C_2  and  C_3 
REMARK    2  A    between atoms: N_16  and  C_17 
REMARK    3  A    between atoms: C_17  and  C_18 
REMARK       I    between atoms: C_18  and  N_19 
REMARK    4  A    between atoms: N_19  and  C_20 
ROOT
HETATM    1  C   UNL     1      25.803  46.946  52.474  1.00  0.00     0.054 C 
HETATM    2  C   UNL     1      26.531  45.600  52.534  1.00  0.00     0.140 A 
HETATM    3  N   UNL     1      27.142  45.341  51.247  1.00  0.00    -0.321 N 
HETATM    4  C   UNL     1      26.548  44.305  50.569  1.00  0.00     0.326 A 
HETATM    5  O   UNL     1      26.876  43.955  49.449  1.00  0.00    -0.247 OA
HETATM    6  N   UNL     1      25.562  43.788  51.344  1.00  0.00    -0.259 N 
HETATM    7  C   UNL     1      25.495  44.449  52.536  1.00  0.00     0.261 A 
HETATM    8  O   UNL     1      24.727  44.154  53.446  1.00  0.00    -0.270 OA
HETATM    9  H   UNL     1      27.877  45.889  50.822  1.00  0.00     0.165 HD
ENDROOT
BRANCH   6  10
HETATM   10  C   UNL     1      24.720  42.675  50.957  1.00  0.00     0.240 C 
BRANCH  10  11
HETATM   11  C   UNL     1      23.495  43.162  50.182  1.00  0.00     0.240 C 
HETATM   12  N   UNL     1      23.816  43.901  49.050  1.00  0.00    -0.325 N 
HETATM   13  H   UNL     1      24.800  43.924  48.798  1.00  0.00     0.169 HD
HETATM   14  O   UNL     1      22.368  42.800  50.506  1.00  0.00    -0.271 OA
BRANCH  12  15
HETATM   15  C   UNL     1      22.916  44.544  48.161  1.00  0.00     0.047 A 
HETATM   16  C   UNL     1      22.746  45.964  48.222  1.00  0.00     0.019 A 
HETATM   17  C   UNL     1      21.824  46.589  47.347  1.00  0.00     0.069 A 
HETATM   18  C   UNL     1      23.454  46.835  49.087  1.00  0.00     0.017 A 
HETATM   19  N   UNL     1      21.608  47.917  47.320  1.00  0.00    -0.260 NA
HETATM   20  C   UNL     1      21.100  45.814  46.458  1.00  0.00     0.032 A 
HETATM   21  C   UNL     1      22.310  48.697  48.164  1.00  0.00     0.117 A 
HETATM   22  C   UNL     1      23.236  48.210  49.057  1.00  0.00     0.020 A 
HETATM   23  C   UNL     1      21.256  44.432  46.397  1.00  0.00     0.005 A 
HETATM   24  C   UNL     1      22.162  43.803  47.244  1.00  0.00     0.030 A 
ENDBRANCH  12  15
ENDBRANCH  10  11
ENDBRANCH   6  10
BRANCH   2  25
HETATM   25  C   UNL     1      27.507  45.497  53.700  1.00  0.00    -0.020 A 
HETATM   26  C   UNL     1      28.393  44.412  53.849  1.00  0.00     0.022 A 
HETATM   27  C   UNL     1      29.304  44.338  54.920  1.00  0.00    -0.025 A 
HETATM   28  C   UNL     1      29.330  45.371  55.881  1.00  0.00    -0.026 A 
HETATM   29  C   UNL     1      30.192  43.257  55.055  1.00  0.00     0.012 A 
HETATM   30  C   UNL     1      28.439  46.443  55.751  1.00  0.00     0.013 A 
HETATM   31  C   UNL     1      30.242  45.301  56.946  1.00  0.00     0.012 A 
HETATM   32  C   UNL     1      27.541  46.503  54.681  1.00  0.00     0.011 A 
HETATM   33  C   UNL     1      31.120  44.223  57.063  1.00  0.00     0.001 A 
HETATM   34  C   UNL     1      31.094  43.201  56.119  1.00  0.00     0.001 A 
ENDBRANCH   2  25
TORSDOF 4
ENDMDL
MODEL 4
REMARK VINA RESULT:     -10.9      1.850      3.445
REMARK  4 active torsions:
REMARK  status: ('A' for Active; 'I' for Inactive)
REMARK    1  A    between atoms: C_2  and  C_3 
REMARK    2  A    between atoms: N_16  and  C_17 
REMARK    3  A    between atoms: C_17  and  C_18 
REMARK       I    between atoms: C_18  and  N_19 
REMARK    4  A    between atoms: N_19  and  C_20 
ROOT
HETATM    1  C   UNL     1      26.467  46.360  52.619  1.00  0.00     0.054 C 
HETATM    2  C   UNL     1      27.000  44.935  52.439  1.00  0.00     0.140 A 
HETATM    3  N   UNL     1      27.423  44.765  51.064  1.00  0.00    -0.321 N 
HETATM    4  C   UNL     1      26.618  43.907  50.356  1.00  0.00     0.326 A 
HETATM    5  O   UNL     1      26.768  43.662  49.173  1.00  0.00    -0.247 OA
HETATM    6  N   UNL     1      25.659  43.426  51.188  1.00  0.00    -0.259 N 
HETATM    7  C   UNL     1      25.818  43.935  52.444  1.00  0.00     0.261 A 
HETATM    8  O   UNL     1      25.121  43.627  53.405  1.00  0.00    -0.270 OA
HETATM    9  H   UNL     1      28.177  45.264  50.613  1.00  0.00     0.165 HD
ENDROOT
BRANCH   6  10
HETATM   10  C   UNL     1      24.631  42.487  50.790  1.00  0.00     0.240 C 
BRANCH  10  11
HETATM   11  C   UNL     1      23.435  43.216  50.177  1.00  0.00     0.240 C 
HETATM   12  N   UNL     1      23.777  44.049  49.120  1.00  0.00    -0.325 N 
HETATM   13  H   UNL     1      24.738  43.982  48.795  1.00  0.00     0.169 HD
HETATM   14  O   UNL     1      22.292  42.957  50.546  1.00  0.00    -0.271 OA
BRANCH  12  15
HETATM   15  C   UNL     1      22.916  44.907  48.388  1.00  0.00     0.047 A 
HETATM   16  C   UNL     1      22.960  46.320  48.610  1.00  0.00     0.019 A 
HETATM   17  C   UNL     1      22.075  47.161  47.892  1.00  0.00     0.069 A 
HETATM   18  C   UNL     1      23.852  46.981  49.491  1.00  0.00     0.017 A 
HETATM   19  N   UNL     1      22.054  48.500  48.020  1.00  0.00    -0.260 NA
HETATM   20  C   UNL     1      21.179  46.599  46.998  1.00  0.00     0.032 A 
HETATM   21  C   UNL     1      22.924  49.075  48.872  1.00  0.00     0.117 A 
HETATM   22  C   UNL     1      23.835  48.367  49.622  1.00  0.00     0.020 A 
HETATM   23  C   UNL     1      21.128  45.225  46.782  1.00  0.00     0.005 A 
HETATM   24  C   UNL     1      21.994  44.385  47.474  1.00  0.00     0.030 A 
ENDBRANCH  12  15
ENDBRANCH  10  11
ENDBRANCH   6  10
BRANCH   2  25
HETATM   25  C   UNL     1      28.074  44.563  53.453  1.00  0.00    -0.020 A 
HETATM   26  C   UNL     1      28.318  45.329  54.610  1.00  0.00     0.022 A 
HETATM   27  C   UNL     1      29.300  44.965  55.550  1.00  0.00    -0.025 A 
HETATM   28  C   UNL     1      30.075  43.805  55.330  1.00  0.00    -0.026 A 
HETATM   29  C   UNL     1      29.529  45.728  56.708  1.00  0.00     0.012 A 
HETATM   30  C   UNL     1      29.853  43.049  54.172  1.00  0.00     0.013 A 
HETATM   31  C   UNL     1      31.050  43.437  56.269  1.00  0.00     0.012 A 
HETATM   32  C   UNL     1      28.872  43.424  53.249  1.00  0.00     0.011 A 
HETATM   33  C   UNL     1      31.262  44.204  57.415  1.00  0.00     0.001 A 
HETATM   34  C   UNL     1      30.502  45.350  57.633  1.00  0.00     0.001 A 
ENDBRANCH   2  25
TORSDOF 4
ENDMDL
MODEL 5
REMARK VINA RESULT:     -10.7      1.964      8.803
REMARK  4 active torsions:
REMARK  status: ('A' for Active; 'I' for Inactive)
REMARK    1  A    between atoms: C_2  and  C_3 
REMARK    2  A    between atoms: N_16  and  C_17 
REMARK    3  A    between atoms: C_17  and  C_18 
REMARK       I    between atoms: C_18  and  N_19 
REMARK    4  A    between atoms: N_19  and  C_20 
ROOT
HETATM    1  C   UNL     1      23.052  43.371  47.566  1.00  0.00     0.054 C 
HETATM    2  C   UNL     1      23.536  44.358  48.633  1.00  0.00     0.140 A 
HETATM    3  N   UNL     1      24.953  44.592  48.445  1.00  0.00    -0.321 N 
HETATM    4  C   UNL     1      25.723  44.061  49.450  1.00  0.00     0.326 A 
HETATM    5  O   UNL     1      26.940  44.103  49.462  1.00  0.00    -0.247 OA
HETATM    6  N   UNL     1      24.903  43.492  50.370  1.00  0.00    -0.259 N 
HETATM    7  C   UNL     1      23.597  43.647  50.007  1.00  0.00     0.261 A 
HETATM    8  O   UNL     1      22.645  43.273  50.684  1.00  0.00    -0.270 OA
HETATM    9  H   UNL     1      25.377  45.026  47.637  1.00  0.00     0.165 HD
ENDROOT
BRANCH   6  10
HETATM   10  C   UNL     1      25.363  42.837  51.577  1.00  0.00     0.240 C 
BRANCH  10  11
HETATM   11  C   UNL     1      25.608  43.855  52.691  1.00  0.00     0.240 C 
HETATM   12  N   UNL     1      26.934  44.253  52.794  1.00  0.00    -0.325 N 
HETATM   13  H   UNL     1      27.554  43.933  52.054  1.00  0.00     0.169 HD
HETATM   14  O   UNL     1      24.666  44.330  53.319  1.00  0.00    -0.271 OA
BRANCH  12  15
HETATM   15  C   UNL     1      27.496  45.129  53.759  1.00  0.00     0.047 A 
HETATM   16  C   UNL     1      28.655  44.728  54.496  1.00  0.00     0.019 A 
HETATM   17  C   UNL     1      29.189  45.601  55.477  1.00  0.00     0.069 A 
HETATM   18  C   UNL     1      29.357  43.511  54.317  1.00  0.00     0.017 A 
HETATM   19  N   UNL     1      30.282  45.319  56.207  1.00  0.00    -0.260 NA
HETATM   20  C   UNL     1      28.572  46.819  55.707  1.00  0.00     0.032 A 
HETATM   21  C   UNL     1      30.911  44.147  55.993  1.00  0.00     0.117 A 
HETATM   22  C   UNL     1      30.493  43.218  55.068  1.00  0.00     0.020 A 
HETATM   23  C   UNL     1      27.442  47.213  54.997  1.00  0.00     0.005 A 
HETATM   24  C   UNL     1      26.909  46.371  54.027  1.00  0.00     0.030 A 
ENDBRANCH  12  15
ENDBRANCH  10  11
ENDBRANCH   6  10
BRANCH   2  25
HETATM   25  C   UNL     1      22.712  45.638  48.683  1.00  0.00    -0.020 A 
HETATM   26  C   UNL     1      23.281  46.890  48.986  1.00  0.00     0.022 A 
HETATM   27  C   UNL     1      22.513  48.070  49.011  1.00  0.00    -0.025 A 
HETATM   28  C   UNL     1      21.131  48.003  48.735  1.00  0.00    -0.026 A 
HETATM   29  C   UNL     1      23.091  49.317  49.304  1.00  0.00     0.012 A 
HETATM   30  C   UNL     1      20.553  46.760  48.452  1.00  0.00     0.013 A 
HETATM   31  C   UNL     1      20.364  49.179  48.753  1.00  0.00     0.012 A 
HETATM   32  C   UNL     1      21.330  45.597  48.430  1.00  0.00     0.011 A 
HETATM   33  C   UNL     1      20.955  50.410  49.042  1.00  0.00     0.001 A 
HETATM   34  C   UNL     1      22.317  50.479  49.318  1.00  0.00     0.001 A 
ENDBRANCH   2  25
TORSDOF 4
ENDMDL
MODEL 6
REMARK VINA RESULT:     -10.5      4.042      7.657
REMARK  4 active torsions:
REMARK  status: ('A' for Active; 'I' for Inactive)
REMARK    1  A    between atoms: C_2  and  C_3 
REMARK    2  A    between atoms: N_16  and  C_17 
REMARK    3  A    between atoms: C_17  and  C_18 
REMARK       I    between atoms: C_18  and  N_19 
REMARK    4  A    between atoms: N_19  and  C_20 
ROOT
HETATM    1  C   UNL     1      25.682  46.616  52.220  1.00  0.00     0.054 C 
HETATM    2  C   UNL     1      26.511  45.332  52.319  1.00  0.00     0.140 A 
HETATM    3  N   UNL     1      27.168  45.102  51.049  1.00  0.00    -0.321 N 
HETATM    4  C   UNL     1      26.672  44.012  50.378  1.00  0.00     0.326 A 
HETATM    5  O   UNL     1      27.050  43.670  49.272  1.00  0.00    -0.247 OA
HETATM    6  N   UNL     1      25.712  43.431  51.142  1.00  0.00    -0.259 N 
HETATM    7  C   UNL     1      25.568  44.104  52.320  1.00  0.00     0.261 A 
HETATM    8  O   UNL     1      24.806  43.764  53.219  1.00  0.00    -0.270 OA
HETATM    9  H   UNL     1      27.868  45.698  50.630  1.00  0.00     0.165 HD
ENDROOT
BRANCH   6  10
HETATM   10  C   UNL     1      24.968  42.250  50.758  1.00  0.00     0.240 C 
BRANCH  10  11
HETATM   11  C   UNL     1      25.911  41.077  50.487  1.00  0.00     0.240 C 
HETATM   12  N   UNL     1      25.868  40.626  49.174  1.00  0.00    -0.325 N 
HETATM   13  H   UNL     1      25.329  41.193  48.526  1.00  0.00     0.169 HD
HETATM   14  O   UNL     1      26.694  40.695  51.352  1.00  0.00    -0.271 OA
BRANCH  12  15
HETATM   15  C   UNL     1      26.567  39.520  48.622  1.00  0.00     0.047 A 
HETATM   16  C   UNL     1      27.111  39.608  47.302  1.00  0.00     0.019 A 
HETATM   17  C   UNL     1      27.782  38.486  46.753  1.00  0.00     0.069 A 
HETATM   18  C   UNL     1      27.062  40.755  46.472  1.00  0.00     0.017 A 
HETATM   19  N   UNL     1      28.339  38.479  45.529  1.00  0.00    -0.260 NA
HETATM   20  C   UNL     1      27.888  37.327  47.503  1.00  0.00     0.032 A 
HETATM   21  C   UNL     1      28.264  39.599  44.785  1.00  0.00     0.117 A 
HETATM   22  C   UNL     1      27.643  40.752  45.207  1.00  0.00     0.020 A 
HETATM   23  C   UNL     1      27.357  37.234  48.785  1.00  0.00     0.005 A 
HETATM   24  C   UNL     1      26.701  38.327  49.341  1.00  0.00     0.030 A 
ENDBRANCH  12  15
ENDBRANCH  10  11
ENDBRANCH   6  10
BRANCH   2  25
HETATM   25  C   UNL     1      27.467  45.325  53.506  1.00  0.00    -0.020 A 
HETATM   26  C   UNL     1      28.387  44.282  53.727  1.00  0.00     0.022 A 
HETATM   27  C   UNL     1      29.279  44.295  54.817  1.00  0.00    -0.025 A 
HETATM   28  C   UNL     1      29.249  45.376  55.723  1.00  0.00    -0.026 A 
HETATM   29  C   UNL     1      30.202  43.255  55.024  1.00  0.00     0.012 A 
HETATM   30  C   UNL     1      28.324  46.408  55.522  1.00  0.00     0.013 A 
HETATM   31  C   UNL     1      30.142  45.395  56.807  1.00  0.00     0.012 A 
HETATM   32  C   UNL     1      27.446  46.380  54.434  1.00  0.00     0.011 A 
HETATM   33  C   UNL     1      31.055  44.357  56.996  1.00  0.00     0.001 A 
HETATM   34  C   UNL     1      31.083  43.287  56.106  1.00  0.00     0.001 A 
ENDBRANCH   2  25
TORSDOF 4
ENDMDL
MODEL 7
REMARK VINA RESULT:     -10.1      3.269      7.552
REMARK  4 active torsions:
REMARK  status: ('A' for Active; 'I' for Inactive)
REMARK    1  A    between atoms: C_2  and  C_3 
REMARK    2  A    between atoms: N_16  and  C_17 
REMARK    3  A    between atoms: C_17  and  C_18 
REMARK       I    between atoms: C_18  and  N_19 
REMARK    4  A    between atoms: N_19  and  C_20 
ROOT
HETATM    1  C   UNL     1      24.064  42.475  49.745  1.00  0.00     0.054 C 
HETATM    2  C   UNL     1      25.431  43.150  49.899  1.00  0.00     0.140 A 
HETATM    3  N   UNL     1      26.376  42.496  49.018  1.00  0.00    -0.321 N 
HETATM    4  C   UNL     1      27.331  41.777  49.694  1.00  0.00     0.326 A 
HETATM    5  O   UNL     1      28.191  41.112  49.144  1.00  0.00    -0.247 OA
HETATM    6  N   UNL     1      27.125  41.927  51.027  1.00  0.00    -0.259 N 
HETATM    7  C   UNL     1      26.059  42.748  51.256  1.00  0.00     0.261 A 
HETATM    8  O   UNL     1      25.684  43.095  52.371  1.00  0.00    -0.270 OA
HETATM    9  H   UNL     1      26.330  42.482  48.009  1.00  0.00     0.165 HD
ENDROOT
BRANCH   6  10
HETATM   10  C   UNL     1      27.943  41.314  52.052  1.00  0.00     0.240 C 
BRANCH  10  11
HETATM   11  C   UNL     1      28.797  42.363  52.766  1.00  0.00     0.240 C 
HETATM   12  N   UNL     1      28.138  42.992  53.814  1.00  0.00    -0.325 N 
HETATM   13  H   UNL     1      27.234  42.605  54.068  1.00  0.00     0.169 HD
HETATM   14  O   UNL     1      29.982  42.503  52.476  1.00  0.00    -0.271 OA
BRANCH  12  15
HETATM   15  C   UNL     1      28.627  44.049  54.626  1.00  0.00     0.047 A 
HETATM   16  C   UNL     1      27.953  45.311  54.634  1.00  0.00     0.019 A 
HETATM   17  C   UNL     1      28.469  46.366  55.427  1.00  0.00     0.069 A 
HETATM   18  C   UNL     1      26.767  45.609  53.920  1.00  0.00     0.017 A 
HETATM   19  N   UNL     1      27.897  47.580  55.513  1.00  0.00    -0.260 NA
HETATM   20  C   UNL     1      29.619  46.156  56.170  1.00  0.00     0.032 A 
HETATM   21  C   UNL     1      26.769  47.807  54.812  1.00  0.00     0.117 A 
HETATM   22  C   UNL     1      26.170  46.864  54.010  1.00  0.00     0.020 A 
HETATM   23  C   UNL     1      30.281  44.933  56.162  1.00  0.00     0.005 A 
HETATM   24  C   UNL     1      29.786  43.885  55.394  1.00  0.00     0.030 A 
ENDBRANCH  12  15
ENDBRANCH  10  11
ENDBRANCH   6  10
BRANCH   2  25
HETATM   25  C   UNL     1      25.377  44.662  49.715  1.00  0.00    -0.020 A 
HETATM   26  C   UNL     1      26.539  45.448  49.584  1.00  0.00     0.022 A 
HETATM   27  C   UNL     1      26.476  46.841  49.396  1.00  0.00    -0.025 A 
HETATM   28  C   UNL     1      25.218  47.479  49.346  1.00  0.00    -0.026 A 
HETATM   29  C   UNL     1      27.640  47.617  49.254  1.00  0.00     0.012 A 
HETATM   30  C   UNL     1      24.059  46.708  49.495  1.00  0.00     0.013 A 
HETATM   31  C   UNL     1      25.153  48.867  49.152  1.00  0.00     0.012 A 
HETATM   32  C   UNL     1      24.138  45.324  49.680  1.00  0.00     0.011 A 
HETATM   33  C   UNL     1      26.319  49.622  49.009  1.00  0.00     0.001 A 
HETATM   34  C   UNL     1      27.561  48.997  49.062  1.00  0.00     0.001 A 
ENDBRANCH   2  25
TORSDOF 4
ENDMDL
MODEL 8
REMARK VINA RESULT:      -9.8      1.413      2.493
REMARK  4 active torsions:
REMARK  status: ('A' for Active; 'I' for Inactive)
REMARK    1  A    between atoms: C_2  and  C_3 
REMARK    2  A    between atoms: N_16  and  C_17 
REMARK    3  A    between atoms: C_17  and  C_18 
REMARK       I    between atoms: C_18  and  N_19 
REMARK    4  A    between atoms: N_19  and  C_20 
ROOT
HETATM    1  C   UNL     1      26.989  41.901  50.598  1.00  0.00     0.054 C 
HETATM    2  C   UNL     1      26.893  43.162  51.463  1.00  0.00     0.140 A 
HETATM    3  N   UNL     1      25.561  43.242  52.026  1.00  0.00    -0.321 N 
HETATM    4  C   UNL     1      24.819  44.274  51.506  1.00  0.00     0.326 A 
HETATM    5  O   UNL     1      23.659  44.489  51.805  1.00  0.00    -0.247 OA
HETATM    6  N   UNL     1      25.588  44.958  50.621  1.00  0.00    -0.259 N 
HETATM    7  C   UNL     1      26.837  44.413  50.553  1.00  0.00     0.261 A 
HETATM    8  O   UNL     1      27.750  44.867  49.870  1.00  0.00    -0.270 OA
HETATM    9  H   UNL     1      25.155  42.584  52.677  1.00  0.00     0.165 HD
ENDROOT
BRANCH   6  10
HETATM   10  C   UNL     1      25.141  46.118  49.878  1.00  0.00     0.240 C 
BRANCH  10  11
HETATM   11  C   UNL     1      23.939  45.771  48.998  1.00  0.00     0.240 C 
HETATM   12  N   UNL     1      22.966  46.760  48.976  1.00  0.00    -0.325 N 
HETATM   13  H   UNL     1      23.211  47.636  49.429  1.00  0.00     0.169 HD
HETATM   14  O   UNL     1      23.948  44.756  48.306  1.00  0.00    -0.271 OA
BRANCH  12  15
HETATM   15  C   UNL     1      21.711  46.716  48.314  1.00  0.00     0.047 A 
HETATM   16  C   UNL     1      20.762  47.768  48.515  1.00  0.00     0.019 A 
HETATM   17  C   UNL     1      19.502  47.697  47.870  1.00  0.00     0.069 A 
HETATM   18  C   UNL     1      20.978  48.924  49.305  1.00  0.00     0.017 A 
HETATM   19  N   UNL     1      18.553  48.644  47.985  1.00  0.00    -0.260 NA
HETATM   20  C   UNL     1      19.213  46.607  47.066  1.00  0.00     0.032 A 
HETATM   21  C   UNL     1      18.814  49.722  48.748  1.00  0.00     0.117 A 
HETATM   22  C   UNL     1      20.000  49.908  49.422  1.00  0.00     0.020 A 
HETATM   23  C   UNL     1      20.129  45.579  46.871  1.00  0.00     0.005 A 
HETATM   24  C   UNL     1      21.372  45.636  47.492  1.00  0.00     0.030 A 
ENDBRANCH  12  15
ENDBRANCH  10  11
ENDBRANCH   6  10
BRANCH   2  25
HETATM   25  C   UNL     1      27.999  43.259  52.508  1.00  0.00    -0.020 A 
HETATM   26  C   UNL     1      27.988  44.228  53.530  1.00  0.00     0.022 A 
HETATM   27  C   UNL     1      29.005  44.296  54.501  1.00  0.00    -0.025 A 
HETATM   28  C   UNL     1      30.075  43.377  54.449  1.00  0.00    -0.026 A 
HETATM   29  C   UNL     1      28.981  45.258  55.525  1.00  0.00     0.012 A 
HETATM   30  C   UNL     1      30.104  42.423  53.424  1.00  0.00     0.013 A 
HETATM   31  C   UNL     1      31.087  43.439  55.420  1.00  0.00     0.012 A 
HETATM   32  C   UNL     1      29.085  42.369  52.468  1.00  0.00     0.011 A 
HETATM   33  C   UNL     1      31.046  44.398  56.432  1.00  0.00     0.001 A 
HETATM   34  C   UNL     1      29.994  45.308  56.483  1.00  0.00     0.001 A 
ENDBRANCH   2  25
TORSDOF 4
ENDMDL
MODEL 9
REMARK VINA RESULT:      -9.7      5.346      8.636
REMARK  4 active torsions:
REMARK  status: ('A' for Active; 'I' for Inactive)
REMARK    1  A    between atoms: C_2  and  C_3 
REMARK    2  A    between atoms: N_16  and  C_17 
REMARK    3  A    between atoms: C_17  and  C_18 
REMARK       I    between atoms: C_18  and  N_19 
REMARK    4  A    between atoms: N_19  and  C_20 
ROOT
HETATM    1  C   UNL     1      20.196  47.894  47.624  1.00  0.00     0.054 C 
HETATM    2  C   UNL     1      20.663  48.966  48.614  1.00  0.00     0.140 A 
HETATM    3  N   UNL     1      20.191  48.616  49.938  1.00  0.00    -0.321 N 
HETATM    4  C   UNL     1      19.219  49.467  50.404  1.00  0.00     0.326 A 
HETATM    5  O   UNL     1      18.654  49.324  51.473  1.00  0.00    -0.247 OA
HETATM    6  N   UNL     1      19.010  50.436  49.478  1.00  0.00    -0.259 N 
HETATM    7  C   UNL     1      19.835  50.259  48.406  1.00  0.00     0.261 A 
HETATM    8  O   UNL     1      19.892  51.021  47.447  1.00  0.00    -0.270 OA
HETATM    9  H   UNL     1      20.465  47.798  50.464  1.00  0.00     0.165 HD
ENDROOT
BRANCH   6  10
HETATM   10  C   UNL     1      18.056  51.516  49.629  1.00  0.00     0.240 C 
BRANCH  10  11
HETATM   11  C   UNL     1      16.928  51.393  48.603  1.00  0.00     0.240 C 
HETATM   12  N   UNL     1      17.024  52.309  47.564  1.00  0.00    -0.325 N 
HETATM   13  H   UNL     1      17.880  52.857  47.531  1.00  0.00     0.169 HD
HETATM   14  O   UNL     1      16.116  50.475  48.678  1.00  0.00    -0.271 OA
BRANCH  12  15
HETATM   15  C   UNL     1      16.106  52.498  46.498  1.00  0.00     0.047 A 
HETATM   16  C   UNL     1      16.474  52.124  45.166  1.00  0.00     0.019 A 
HETATM   17  C   UNL     1      15.559  52.345  44.107  1.00  0.00     0.069 A 
HETATM   18  C   UNL     1      17.699  51.513  44.798  1.00  0.00     0.017 A 
HETATM   19  N   UNL     1      15.808  52.012  42.828  1.00  0.00    -0.260 NA
HETATM   20  C   UNL     1      14.332  52.924  44.381  1.00  0.00     0.032 A 
HETATM   21  C   UNL     1      16.988  51.433  42.536  1.00  0.00     0.117 A 
HETATM   22  C   UNL     1      17.957  51.164  43.475  1.00  0.00     0.020 A 
HETATM   23  C   UNL     1      13.970  53.294  45.673  1.00  0.00     0.005 A 
HETATM   24  C   UNL     1      14.854  53.080  46.725  1.00  0.00     0.030 A 
ENDBRANCH  12  15
ENDBRANCH  10  11
ENDBRANCH   6  10
BRANCH   2  25
HETATM   25  C   UNL     1      22.163  49.227  48.554  1.00  0.00    -0.020 A 
HETATM   26  C   UNL     1      23.097  48.410  49.220  1.00  0.00     0.022 A 
HETATM   27  C   UNL     1      24.482  48.649  49.143  1.00  0.00    -0.025 A 
HETATM   28  C   UNL     1      24.956  49.743  48.387  1.00  0.00    -0.026 A 
HETATM   29  C   UNL     1      25.409  47.822  49.801  1.00  0.00     0.012 A 
HETATM   30  C   UNL     1      24.032  50.572  47.738  1.00  0.00     0.013 A 
HETATM   31  C   UNL     1      26.337  49.979  48.303  1.00  0.00     0.012 A 
HETATM   32  C   UNL     1      22.659  50.319  47.824  1.00  0.00     0.011 A 
HETATM   33  C   UNL     1      27.243  49.146  48.959  1.00  0.00     0.001 A 
HETATM   34  C   UNL     1      26.779  48.069  49.709  1.00  0.00     0.001 A 
ENDBRANCH   2  25
TORSDOF 4
ENDMDL
MODEL 10
REMARK VINA RESULT:      -9.7      5.308      8.604
REMARK  4 active torsions:
REMARK  status: ('A' for Active; 'I' for Inactive)
REMARK    1  A    between atoms: C_2  and  C_3 
REMARK    2  A    between atoms: N_16  and  C_17 
REMARK    3  A    between atoms: C_17  and  C_18 
REMARK       I    between atoms: C_18  and  N_19 
REMARK    4  A    between atoms: N_19  and  C_20 
ROOT
HETATM    1  C   UNL     1      20.139  48.038  47.578  1.00  0.00     0.054 C 
HETATM    2  C   UNL     1      20.643  49.027  48.634  1.00  0.00     0.140 A 
HETATM    3  N   UNL     1      20.172  48.600  49.936  1.00  0.00    -0.321 N 
HETATM    4  C   UNL     1      19.228  49.443  50.469  1.00  0.00     0.326 A 
HETATM    5  O   UNL     1      18.667  49.243  51.531  1.00  0.00    -0.247 OA
HETATM    6  N   UNL     1      19.038  50.479  49.613  1.00  0.00    -0.259 N 
HETATM    7  C   UNL     1      19.850  50.353  48.523  1.00  0.00     0.261 A 
HETATM    8  O   UNL     1      19.921  51.177  47.618  1.00  0.00    -0.270 OA
HETATM    9  H   UNL     1      20.427  47.741  50.403  1.00  0.00     0.165 HD
ENDROOT
BRANCH   6  10
HETATM   10  C   UNL     1      18.117  51.571  49.847  1.00  0.00     0.240 C 
BRANCH  10  11
HETATM   11  C   UNL     1      16.794  51.333  49.116  1.00  0.00     0.240 C 
HETATM   12  N   UNL     1      16.934  50.606  47.942  1.00  0.00    -0.325 N 
HETATM   13  H   UNL     1      17.855  50.210  47.771  1.00  0.00     0.169 HD
HETATM   14  O   UNL     1      15.730  51.670  49.629  1.00  0.00    -0.271 OA
BRANCH  12  15
HETATM   15  C   UNL     1      15.917  50.277  47.008  1.00  0.00     0.047 A 
HETATM   16  C   UNL     1      15.576  51.201  45.971  1.00  0.00     0.019 A 
HETATM   17  C   UNL     1      14.539  50.871  45.063  1.00  0.00     0.069 A 
HETATM   18  C   UNL     1      16.213  52.446  45.743  1.00  0.00     0.017 A 
HETATM   19  N   UNL     1      14.159  51.667  44.047  1.00  0.00    -0.260 NA
HETATM   20  C   UNL     1      13.872  49.666  45.204  1.00  0.00     0.032 A 
HETATM   21  C   UNL     1      14.801  52.839  43.877  1.00  0.00     0.117 A 
HETATM   22  C   UNL     1      15.825  53.270  44.690  1.00  0.00     0.020 A 
HETATM   23  C   UNL     1      14.196  48.765  46.213  1.00  0.00     0.005 A 
HETATM   24  C   UNL     1      15.215  49.070  47.110  1.00  0.00     0.030 A 
ENDBRANCH  12  15
ENDBRANCH  10  11
ENDBRANCH   6  10
BRANCH   2  25
HETATM   25  C   UNL     1      22.149  49.250  48.578  1.00  0.00    -0.020 A 
HETATM   26  C   UNL     1      23.061  48.413  49.250  1.00  0.00     0.022 A 
HETATM   27  C   UNL     1      24.452  48.618  49.176  1.00  0.00    -0.025 A 
HETATM   28  C   UNL     1      24.954  49.695  48.416  1.00  0.00    -0.026 A 
HETATM   29  C   UNL     1      25.356  47.771  49.841  1.00  0.00     0.012 A 
HETATM   30  C   UNL     1      24.054  50.544  47.761  1.00  0.00     0.013 A 
HETATM   31  C   UNL     1      26.341  49.897  48.335  1.00  0.00     0.012 A 
HETATM   32  C   UNL     1      22.675  50.326  47.844  1.00  0.00     0.011 A 
HETATM   33  C   UNL     1      27.225  49.045  48.998  1.00  0.00     0.001 A 
HETATM   34  C   UNL     1      26.732  47.984  49.752  1.00  0.00     0.001 A 
ENDBRANCH   2  25
TORSDOF 4
ENDMDL
