MODEL 1
REMARK VINA RESULT:     -10.0      0.000      0.000
REMARK  9 active torsions:
REMARK  status: ('A' for Active; 'I' for Inactive)
REMARK    1  A    between atoms: O_2  and  C_3 
REMARK    2  A    between atoms: C_5  and  C_15 
REMARK    3  A    between atoms: C_8  and  C_9 
REMARK       I    between atoms: C_15  and  N_17 
REMARK    4  A    between atoms: N_17  and  C_18 
REMARK    5  A    between atoms: C_18  and  C_19 
REMARK    6  A    between atoms: C_23  and  C_25 
REMARK       I    between atoms: C_25  and  N_27 
REMARK    7  A    between atoms: N_27  and  C_28 
REMARK    8  A    between atoms: C_28  and  C_29 
REMARK    9  A    between atoms: C_29  and  O_32 
ROOT
HETATM    1  C   UNL     1      26.050  46.281  52.901  1.00  0.00     0.252 C 
HETATM    2  O   UNL     1      25.333  47.262  53.056  1.00  0.00    -0.268 OA
HETATM    3  N   UNL     1      25.968  45.450  51.806  1.00  0.00    -0.353 N 
HETATM    4  H   UNL     1      26.738  44.827  51.601  1.00  0.00     0.163 HD
ENDROOT
BRANCH   3   5
HETATM    5  C   UNL     1      25.059  45.750  50.723  1.00  0.00     0.161 C 
BRANCH   5   6
HETATM    6  C   UNL     1      25.475  47.016  50.019  1.00  0.00    -0.040 A 
HETATM    7  C   UNL     1      26.829  47.326  49.835  1.00  0.00     0.009 A 
HETATM    8  C   UNL     1      27.202  48.495  49.170  1.00  0.00     0.002 A 
HETATM    9  C   UNL     1      26.226  49.368  48.689  1.00  0.00     0.017 A 
HETATM   10  C   UNL     1      24.869  49.083  48.881  1.00  0.00     0.032 A 
HETATM   11  C   UNL     1      24.497  47.902  49.536  1.00  0.00     0.026 A 
BRANCH  10  12
HETATM   12  C   UNL     1      23.866  50.048  48.354  1.00  0.00     0.251 C 
HETATM   13  O   UNL     1      24.046  50.588  47.268  1.00  0.00    -0.268 OA
HETATM   14  N   UNL     1      22.780  50.313  49.159  1.00  0.00    -0.354 N 
HETATM   15  H   UNL     1      22.726  49.931  50.093  1.00  0.00     0.162 HD
BRANCH  14  16
HETATM   16  C   UNL     1      21.751  51.270  48.774  1.00  0.00     0.159 C 
BRANCH  16  17
HETATM   17  C   UNL     1      20.330  50.840  49.205  1.00  0.00     0.066 C 
HETATM   18  C   UNL     1      19.303  51.968  49.082  1.00  0.00     0.047 C 
HETATM   19  C   UNL     1      19.882  49.639  48.370  1.00  0.00     0.047 C 
BRANCH  17  20
HETATM   20  O   UNL     1      20.372  50.410  50.575  1.00  0.00    -0.389 OA
HETATM   21  H   UNL     1      19.448  50.301  50.861  1.00  0.00     0.210 HD
ENDBRANCH  17  20
ENDBRANCH  16  17
ENDBRANCH  14  16
ENDBRANCH  10  12
ENDBRANCH   5   6
ENDBRANCH   3   5
BRANCH   1  22
HETATM   22  C   UNL     1      27.096  45.952  53.908  1.00  0.00     0.034 A 
HETATM   23  C   UNL     1      27.820  44.752  53.864  1.00  0.00     0.054 A 
HETATM   24  C   UNL     1      28.799  44.476  54.830  1.00  0.00     0.080 A 
HETATM   25  C   UNL     1      29.071  45.420  55.847  1.00  0.00     0.010 A 
HETATM   26  C   UNL     1      28.315  46.605  55.891  1.00  0.00     0.016 A 
HETATM   27  C   UNL     1      27.333  46.867  54.935  1.00  0.00     0.018 A 
BRANCH  24  28
HETATM   28  O   UNL     1      29.560  43.332  54.814  1.00  0.00    -0.355 OA
HETATM   29  C   UNL     1      30.166  42.964  53.580  1.00  0.00     0.210 C 
ENDBRANCH  24  28
BRANCH  25  30
HETATM   30  C   UNL     1      30.089  45.192  56.868  1.00  0.00     0.013 A 
HETATM   31  C   UNL     1      31.115  44.223  56.967  1.00  0.00     0.152 A 
HETATM   32  N   UNL     1      31.845  44.349  58.080  1.00  0.00    -0.187 NA
HETATM   33  N   UNL     1      31.300  45.411  58.691  1.00  0.00    -0.289 N 
HETATM   34  H   UNL     1      31.699  45.714  59.573  1.00  0.00     0.188 HD
HETATM   35  C   UNL     1      30.246  45.948  58.012  1.00  0.00     0.123 A 
ENDBRANCH  25  30
ENDBRANCH   1  22
TORSDOF 9
ENDMDL
MODEL 2
REMARK VINA RESULT:      -9.7      1.695      2.423
REMARK  9 active torsions:
REMARK  status: ('A' for Active; 'I' for Inactive)
REMARK    1  A    between atoms: O_2  and  C_3 
REMARK    2  A    between atoms: C_5  and  C_15 
REMARK    3  A    between atoms: C_8  and  C_9 
REMARK       I    between atoms: C_15  and  N_17 
REMARK    4  A    between atoms: N_17  and  C_18 
REMARK    5  A    between atoms: C_18  and  C_19 
REMARK    6  A    between atoms: C_23  and  C_25 
REMARK       I    between atoms: C_25  and  N_27 
REMARK    7  A    between atoms: N_27  and  C_28 
REMARK    8  A    between atoms: C_28  and  C_29 
REMARK    9  A    between atoms: C_29  and  O_32 
ROOT
HETATM    1  C   UNL     1      27.153  43.940  51.888  1.00  0.00     0.252 C 
HETATM    2  O   UNL     1      26.904  42.811  51.482  1.00  0.00    -0.268 OA
HETATM    3  N   UNL     1      26.671  45.082  51.288  1.00  0.00    -0.353 N 
HETATM    4  H   UNL     1      26.684  45.952  51.803  1.00  0.00     0.163 HD
ENDROOT
BRANCH   3   5
HETATM    5  C   UNL     1      25.762  44.996  50.168  1.00  0.00     0.161 C 
BRANCH   5   6
HETATM    6  C   UNL     1      25.317  46.370  49.740  1.00  0.00    -0.040 A 
HETATM    7  C   UNL     1      26.219  47.443  49.711  1.00  0.00     0.009 A 
HETATM    8  C   UNL     1      25.799  48.709  49.300  1.00  0.00     0.002 A 
HETATM    9  C   UNL     1      24.472  48.916  48.920  1.00  0.00     0.017 A 
HETATM   10  C   UNL     1      23.554  47.860  48.961  1.00  0.00     0.032 A 
HETATM   11  C   UNL     1      23.982  46.588  49.360  1.00  0.00     0.026 A 
BRANCH  10  12
HETATM   12  C   UNL     1      22.150  48.134  48.551  1.00  0.00     0.251 C 
HETATM   13  O   UNL     1      21.856  48.185  47.362  1.00  0.00    -0.268 OA
HETATM   14  N   UNL     1      21.242  48.356  49.564  1.00  0.00    -0.354 N 
HETATM   15  H   UNL     1      21.547  48.413  50.525  1.00  0.00     0.162 HD
BRANCH  14  16
HETATM   16  C   UNL     1      19.847  48.674  49.291  1.00  0.00     0.159 C 
BRANCH  16  17
HETATM   17  C   UNL     1      19.305  49.829  50.165  1.00  0.00     0.066 C 
HETATM   18  C   UNL     1      20.264  51.019  50.241  1.00  0.00     0.047 C 
HETATM   19  C   UNL     1      17.950  50.290  49.623  1.00  0.00     0.047 C 
BRANCH  17  20
HETATM   20  O   UNL     1      19.083  49.337  51.496  1.00  0.00    -0.389 OA
HETATM   21  H   UNL     1      19.258  48.379  51.472  1.00  0.00     0.210 HD
ENDBRANCH  17  20
ENDBRANCH  16  17
ENDBRANCH  14  16
ENDBRANCH  10  12
ENDBRANCH   5   6
ENDBRANCH   3   5
BRANCH   1  22
HETATM   22  C   UNL     1      27.988  44.131  53.105  1.00  0.00     0.034 A 
HETATM   23  C   UNL     1      27.779  45.197  53.992  1.00  0.00     0.054 A 
HETATM   24  C   UNL     1      28.586  45.346  55.130  1.00  0.00     0.080 A 
HETATM   25  C   UNL     1      29.608  44.406  55.395  1.00  0.00     0.010 A 
HETATM   26  C   UNL     1      29.822  43.360  54.480  1.00  0.00     0.016 A 
HETATM   27  C   UNL     1      29.024  43.226  53.343  1.00  0.00     0.018 A 
BRANCH  24  28
HETATM   28  O   UNL     1      28.402  46.351  56.047  1.00  0.00    -0.355 OA
HETATM   29  C   UNL     1      27.490  47.389  55.710  1.00  0.00     0.210 C 
ENDBRANCH  24  28
BRANCH  25  30
HETATM   30  C   UNL     1      30.468  44.503  56.571  1.00  0.00     0.013 A 
HETATM   31  C   UNL     1      31.565  43.718  56.996  1.00  0.00     0.152 A 
HETATM   32  N   UNL     1      32.089  44.136  58.153  1.00  0.00    -0.187 NA
HETATM   33  N   UNL     1      31.338  45.202  58.467  1.00  0.00    -0.289 N 
HETATM   34  H   UNL     1      31.555  45.707  59.320  1.00  0.00     0.188 HD
HETATM   35  C   UNL     1      30.354  45.462  57.558  1.00  0.00     0.123 A 
ENDBRANCH  25  30
ENDBRANCH   1  22
TORSDOF 9
ENDMDL
MODEL 3
REMARK VINA RESULT:      -9.4      1.899      3.241
REMARK  9 active torsions:
REMARK  status: ('A' for Active; 'I' for Inactive)
REMARK    1  A    between atoms: O_2  and  C_3 
REMARK    2  A    between atoms: C_5  and  C_15 
REMARK    3  A    between atoms: C_8  and  C_9 
REMARK       I    between atoms: C_15  and  N_17 
REMARK    4  A    between atoms: N_17  and  C_18 
REMARK    5  A    between atoms: C_18  and  C_19 
REMARK    6  A    between atoms: C_23  and  C_25 
REMARK       I    between atoms: C_25  and  N_27 
REMARK    7  A    between atoms: N_27  and  C_28 
REMARK    8  A    between atoms: C_28  and  C_29 
REMARK    9  A    between atoms: C_29  and  O_32 
ROOT
HETATM    1  C   UNL     1      28.082  42.866  51.662  1.00  0.00     0.252 C 
HETATM    2  O   UNL     1      28.246  41.687  51.371  1.00  0.00    -0.268 OA
HETATM    3  N   UNL     1      27.378  43.749  50.873  1.00  0.00    -0.353 N 
HETATM    4  H   UNL     1      27.053  44.617  51.275  1.00  0.00     0.163 HD
ENDROOT
BRANCH   3   5
HETATM    5  C   UNL     1      26.719  43.294  49.671  1.00  0.00     0.161 C 
BRANCH   5   6
HETATM    6  C   UNL     1      25.445  44.065  49.442  1.00  0.00    -0.040 A 
HETATM    7  C   UNL     1      24.278  43.417  49.014  1.00  0.00     0.009 A 
HETATM    8  C   UNL     1      23.099  44.139  48.817  1.00  0.00     0.002 A 
HETATM    9  C   UNL     1      23.078  45.516  49.040  1.00  0.00     0.017 A 
HETATM   10  C   UNL     1      24.239  46.182  49.449  1.00  0.00     0.032 A 
HETATM   11  C   UNL     1      25.416  45.453  49.660  1.00  0.00     0.026 A 
BRANCH  10  12
HETATM   12  C   UNL     1      24.166  47.652  49.668  1.00  0.00     0.251 C 
HETATM   13  O   UNL     1      24.998  48.210  50.376  1.00  0.00    -0.268 OA
HETATM   14  N   UNL     1      23.115  48.315  49.074  1.00  0.00    -0.354 N 
HETATM   15  H   UNL     1      22.391  47.803  48.590  1.00  0.00     0.162 HD
BRANCH  14  16
HETATM   16  C   UNL     1      22.911  49.747  49.247  1.00  0.00     0.159 C 
BRANCH  16  17
HETATM   17  C   UNL     1      21.425  50.130  49.434  1.00  0.00     0.066 C 
HETATM   18  C   UNL     1      20.969  51.235  48.478  1.00  0.00     0.047 C 
HETATM   19  C   UNL     1      20.547  48.890  49.248  1.00  0.00     0.047 C 
BRANCH  17  20
HETATM   20  O   UNL     1      21.231  50.586  50.782  1.00  0.00    -0.389 OA
HETATM   21  H   UNL     1      21.869  50.101  51.335  1.00  0.00     0.210 HD
ENDBRANCH  17  20
ENDBRANCH  16  17
ENDBRANCH  14  16
ENDBRANCH  10  12
ENDBRANCH   5   6
ENDBRANCH   3   5
BRANCH   1  22
HETATM   22  C   UNL     1      28.627  43.404  52.938  1.00  0.00     0.034 A 
HETATM   23  C   UNL     1      28.022  44.474  53.613  1.00  0.00     0.054 A 
HETATM   24  C   UNL     1      28.564  44.956  54.814  1.00  0.00     0.080 A 
HETATM   25  C   UNL     1      29.718  44.349  55.359  1.00  0.00     0.010 A 
HETATM   26  C   UNL     1      30.328  43.296  54.653  1.00  0.00     0.016 A 
HETATM   27  C   UNL     1      29.792  42.831  53.452  1.00  0.00     0.018 A 
BRANCH  24  28
HETATM   28  O   UNL     1      27.992  45.978  55.532  1.00  0.00    -0.355 OA
HETATM   29  C   UNL     1      27.752  47.204  54.852  1.00  0.00     0.210 C 
ENDBRANCH  24  28
BRANCH  25  30
HETATM   30  C   UNL     1      30.316  44.799  56.613  1.00  0.00     0.013 A 
HETATM   31  C   UNL     1      30.136  45.984  57.363  1.00  0.00     0.152 A 
HETATM   32  N   UNL     1      30.885  46.019  58.470  1.00  0.00    -0.187 NA
HETATM   33  N   UNL     1      31.537  44.847  58.442  1.00  0.00    -0.289 N 
HETATM   34  H   UNL     1      32.174  44.635  59.202  1.00  0.00     0.188 HD
HETATM   35  C   UNL     1      31.236  44.083  57.353  1.00  0.00     0.123 A 
ENDBRANCH  25  30
ENDBRANCH   1  22
TORSDOF 9
ENDMDL
MODEL 4
REMARK VINA RESULT:      -9.4      2.049      2.985
REMARK  9 active torsions:
REMARK  status: ('A' for Active; 'I' for Inactive)
REMARK    1  A    between atoms: O_2  and  C_3 
REMARK    2  A    between atoms: C_5  and  C_15 
REMARK    3  A    between atoms: C_8  and  C_9 
REMARK       I    between atoms: C_15  and  N_17 
REMARK    4  A    between atoms: N_17  and  C_18 
REMARK    5  A    between atoms: C_18  and  C_19 
REMARK    6  A    between atoms: C_23  and  C_25 
REMARK       I    between atoms: C_25  and  N_27 
REMARK    7  A    between atoms: N_27  and  C_28 
REMARK    8  A    between atoms: C_28  and  C_29 
REMARK    9  A    between atoms: C_29  and  O_32 
ROOT
HETATM    1  C   UNL     1      24.922  45.650  51.740  1.00  0.00     0.252 C 
HETATM    2  O   UNL     1      24.167  44.687  51.682  1.00  0.00    -0.268 OA
HETATM    3  N   UNL     1      24.905  46.680  50.825  1.00  0.00    -0.353 N 
HETATM    4  H   UNL     1      25.352  47.555  51.061  1.00  0.00     0.163 HD
ENDROOT
BRANCH   3   5
HETATM    5  C   UNL     1      23.917  46.709  49.771  1.00  0.00     0.161 C 
BRANCH   5   6
HETATM    6  C   UNL     1      23.788  48.100  49.206  1.00  0.00    -0.040 A 
HETATM    7  C   UNL     1      24.924  48.871  48.922  1.00  0.00     0.009 A 
HETATM    8  C   UNL     1      24.793  50.153  48.387  1.00  0.00     0.002 A 
HETATM    9  C   UNL     1      23.526  50.679  48.134  1.00  0.00     0.017 A 
HETATM   10  C   UNL     1      22.380  49.931  48.428  1.00  0.00     0.032 A 
HETATM   11  C   UNL     1      22.515  48.639  48.953  1.00  0.00     0.026 A 
BRANCH  10  12
HETATM   12  C   UNL     1      21.051  50.538  48.146  1.00  0.00     0.251 C 
HETATM   13  O   UNL     1      20.491  50.320  47.078  1.00  0.00    -0.268 OA
HETATM   14  N   UNL     1      20.529  51.364  49.118  1.00  0.00    -0.354 N 
HETATM   15  H   UNL     1      21.073  51.604  49.935  1.00  0.00     0.162 HD
BRANCH  14  16
HETATM   16  C   UNL     1      19.257  52.051  48.943  1.00  0.00     0.159 C 
BRANCH  16  17
HETATM   17  C   UNL     1      18.057  51.260  49.512  1.00  0.00     0.066 C 
HETATM   18  C   UNL     1      17.155  50.677  48.422  1.00  0.00     0.047 C 
HETATM   19  C   UNL     1      18.566  50.136  50.418  1.00  0.00     0.047 C 
BRANCH  17  20
HETATM   20  O   UNL     1      17.270  52.139  50.332  1.00  0.00    -0.389 OA
HETATM   21  H   UNL     1      17.229  51.733  51.216  1.00  0.00     0.210 HD
ENDBRANCH  17  20
ENDBRANCH  16  17
ENDBRANCH  14  16
ENDBRANCH  10  12
ENDBRANCH   5   6
ENDBRANCH   3   5
BRANCH   1  22
HETATM   22  C   UNL     1      25.901  45.768  52.855  1.00  0.00     0.034 A 
HETATM   23  C   UNL     1      26.181  46.995  53.473  1.00  0.00     0.054 A 
HETATM   24  C   UNL     1      27.110  47.068  54.521  1.00  0.00     0.080 A 
HETATM   25  C   UNL     1      27.758  45.895  54.971  1.00  0.00     0.010 A 
HETATM   26  C   UNL     1      27.486  44.679  54.320  1.00  0.00     0.016 A 
HETATM   27  C   UNL     1      26.571  44.615  53.268  1.00  0.00     0.018 A 
BRANCH  24  28
HETATM   28  O   UNL     1      27.395  48.238  55.183  1.00  0.00    -0.355 OA
HETATM   29  C   UNL     1      26.366  48.807  55.983  1.00  0.00     0.210 C 
ENDBRANCH  24  28
BRANCH  25  30
HETATM   30  C   UNL     1      28.722  45.910  56.067  1.00  0.00     0.013 A 
HETATM   31  C   UNL     1      28.557  46.125  57.456  1.00  0.00     0.152 A 
HETATM   32  N   UNL     1      29.708  46.063  58.133  1.00  0.00    -0.187 NA
HETATM   33  N   UNL     1      30.615  45.793  57.182  1.00  0.00    -0.289 N 
HETATM   34  H   UNL     1      31.584  45.688  57.461  1.00  0.00     0.188 HD
HETATM   35  C   UNL     1      30.079  45.696  55.931  1.00  0.00     0.123 A 
ENDBRANCH  25  30
ENDBRANCH   1  22
TORSDOF 9
ENDMDL
MODEL 5
REMARK VINA RESULT:      -9.2      1.955      2.700
REMARK  9 active torsions:
REMARK  status: ('A' for Active; 'I' for Inactive)
REMARK    1  A    between atoms: O_2  and  C_3 
REMARK    2  A    between atoms: C_5  and  C_15 
REMARK    3  A    between atoms: C_8  and  C_9 
REMARK       I    between atoms: C_15  and  N_17 
REMARK    4  A    between atoms: N_17  and  C_18 
REMARK    5  A    between atoms: C_18  and  C_19 
REMARK    6  A    between atoms: C_23  and  C_25 
REMARK       I    between atoms: C_25  and  N_27 
REMARK    7  A    between atoms: N_27  and  C_28 
REMARK    8  A    between atoms: C_28  and  C_29 
REMARK    9  A    between atoms: C_29  and  O_32 
ROOT
HETATM    1  C   UNL     1      24.524  45.397  51.206  1.00  0.00     0.252 C 
HETATM    2  O   UNL     1      23.756  44.455  51.057  1.00  0.00    -0.268 OA
HETATM    3  N   UNL     1      24.498  46.526  50.417  1.00  0.00    -0.353 N 
HETATM    4  H   UNL     1      24.961  47.364  50.741  1.00  0.00     0.163 HD
ENDROOT
BRANCH   3   5
HETATM    5  C   UNL     1      23.485  46.688  49.400  1.00  0.00     0.161 C 
BRANCH   5   6
HETATM    6  C   UNL     1      23.378  48.132  48.983  1.00  0.00    -0.040 A 
HETATM    7  C   UNL     1      24.518  48.942  48.897  1.00  0.00     0.009 A 
HETATM    8  C   UNL     1      24.410  50.275  48.498  1.00  0.00     0.002 A 
HETATM    9  C   UNL     1      23.161  50.812  48.185  1.00  0.00     0.017 A 
HETATM   10  C   UNL     1      22.009  50.022  48.284  1.00  0.00     0.032 A 
HETATM   11  C   UNL     1      22.123  48.681  48.671  1.00  0.00     0.026 A 
BRANCH  10  12
HETATM   12  C   UNL     1      20.700  50.642  47.946  1.00  0.00     0.251 C 
HETATM   13  O   UNL     1      20.110  50.313  46.922  1.00  0.00    -0.268 OA
HETATM   14  N   UNL     1      20.229  51.606  48.811  1.00  0.00    -0.354 N 
HETATM   15  H   UNL     1      20.797  51.925  49.583  1.00  0.00     0.162 HD
BRANCH  14  16
HETATM   16  C   UNL     1      18.980  52.315  48.569  1.00  0.00     0.159 C 
BRANCH  16  17
HETATM   17  C   UNL     1      17.779  51.709  49.330  1.00  0.00     0.066 C 
HETATM   18  C   UNL     1      16.857  52.772  49.932  1.00  0.00     0.047 C 
HETATM   19  C   UNL     1      16.980  50.804  48.390  1.00  0.00     0.047 C 
BRANCH  17  20
HETATM   20  O   UNL     1      18.275  50.882  50.394  1.00  0.00    -0.389 OA
HETATM   21  H   UNL     1      19.189  50.642  50.157  1.00  0.00     0.210 HD
ENDBRANCH  17  20
ENDBRANCH  16  17
ENDBRANCH  14  16
ENDBRANCH  10  12
ENDBRANCH   5   6
ENDBRANCH   3   5
BRANCH   1  22
HETATM   22  C   UNL     1      25.531  45.375  52.302  1.00  0.00     0.034 A 
HETATM   23  C   UNL     1      25.966  44.179  52.889  1.00  0.00     0.054 A 
HETATM   24  C   UNL     1      26.917  44.196  53.921  1.00  0.00     0.080 A 
HETATM   25  C   UNL     1      27.455  45.427  54.361  1.00  0.00     0.010 A 
HETATM   26  C   UNL     1      26.985  46.618  53.780  1.00  0.00     0.016 A 
HETATM   27  C   UNL     1      26.029  46.595  52.765  1.00  0.00     0.018 A 
BRANCH  24  28
HETATM   28  O   UNL     1      27.401  43.052  54.506  1.00  0.00    -0.355 OA
HETATM   29  C   UNL     1      28.040  42.102  53.662  1.00  0.00     0.210 C 
ENDBRANCH  24  28
BRANCH  25  30
HETATM   30  C   UNL     1      28.458  45.503  55.419  1.00  0.00     0.013 A 
HETATM   31  C   UNL     1      29.724  44.887  55.556  1.00  0.00     0.152 A 
HETATM   32  N   UNL     1      30.342  45.213  56.695  1.00  0.00    -0.187 NA
HETATM   33  N   UNL     1      29.481  46.054  57.287  1.00  0.00    -0.289 N 
HETATM   34  H   UNL     1      29.740  46.452  58.183  1.00  0.00     0.188 HD
HETATM   35  C   UNL     1      28.339  46.257  56.570  1.00  0.00     0.123 A 
ENDBRANCH  25  30
ENDBRANCH   1  22
TORSDOF 9
ENDMDL
MODEL 6
REMARK VINA RESULT:      -9.2      3.835      7.145
REMARK  9 active torsions:
REMARK  status: ('A' for Active; 'I' for Inactive)
REMARK    1  A    between atoms: O_2  and  C_3 
REMARK    2  A    between atoms: C_5  and  C_15 
REMARK    3  A    between atoms: C_8  and  C_9 
REMARK       I    between atoms: C_15  and  N_17 
REMARK    4  A    between atoms: N_17  and  C_18 
REMARK    5  A    between atoms: C_18  and  C_19 
REMARK    6  A    between atoms: C_23  and  C_25 
REMARK       I    between atoms: C_25  and  N_27 
REMARK    7  A    between atoms: N_27  and  C_28 
REMARK    8  A    between atoms: C_28  and  C_29 
REMARK    9  A    between atoms: C_29  and  O_32 
ROOT
HETATM    1  C   UNL     1      26.169  46.318  52.787  1.00  0.00     0.252 C 
HETATM    2  O   UNL     1      26.059  47.474  52.394  1.00  0.00    -0.268 OA
HETATM    3  N   UNL     1      25.408  45.279  52.298  1.00  0.00    -0.353 N 
HETATM    4  H   UNL     1      25.712  44.329  52.458  1.00  0.00     0.163 HD
ENDROOT
BRANCH   3   5
HETATM    5  C   UNL     1      24.475  45.497  51.217  1.00  0.00     0.161 C 
BRANCH   5   6
HETATM    6  C   UNL     1      24.231  44.216  50.461  1.00  0.00    -0.040 A 
HETATM    7  C   UNL     1      23.145  44.093  49.585  1.00  0.00     0.009 A 
HETATM    8  C   UNL     1      22.936  42.906  48.880  1.00  0.00     0.002 A 
HETATM    9  C   UNL     1      23.807  41.830  49.050  1.00  0.00     0.017 A 
HETATM   10  C   UNL     1      24.887  41.930  49.935  1.00  0.00     0.032 A 
HETATM   11  C   UNL     1      25.102  43.126  50.630  1.00  0.00     0.026 A 
BRANCH  10  12
HETATM   12  C   UNL     1      25.784  40.752  50.085  1.00  0.00     0.251 C 
HETATM   13  O   UNL     1      26.387  40.569  51.138  1.00  0.00    -0.268 OA
HETATM   14  N   UNL     1      25.917  39.931  48.987  1.00  0.00    -0.354 N 
HETATM   15  H   UNL     1      25.489  40.177  48.105  1.00  0.00     0.162 HD
BRANCH  14  16
HETATM   16  C   UNL     1      26.797  38.771  48.994  1.00  0.00     0.159 C 
BRANCH  16  17
HETATM   17  C   UNL     1      28.248  39.106  48.579  1.00  0.00     0.066 C 
HETATM   18  C   UNL     1      28.990  37.908  47.982  1.00  0.00     0.047 C 
HETATM   19  C   UNL     1      28.240  40.261  47.575  1.00  0.00     0.047 C 
BRANCH  17  20
HETATM   20  O   UNL     1      28.968  39.557  49.736  1.00  0.00    -0.389 OA
HETATM   21  H   UNL     1      28.305  39.730  50.427  1.00  0.00     0.210 HD
ENDBRANCH  17  20
ENDBRANCH  16  17
ENDBRANCH  14  16
ENDBRANCH  10  12
ENDBRANCH   5   6
ENDBRANCH   3   5
BRANCH   1  22
HETATM   22  C   UNL     1      27.183  45.972  53.820  1.00  0.00     0.034 A 
HETATM   23  C   UNL     1      27.858  44.743  53.816  1.00  0.00     0.054 A 
HETATM   24  C   UNL     1      28.808  44.450  54.806  1.00  0.00     0.080 A 
HETATM   25  C   UNL     1      29.101  45.406  55.806  1.00  0.00     0.010 A 
HETATM   26  C   UNL     1      28.393  46.621  55.809  1.00  0.00     0.016 A 
HETATM   27  C   UNL     1      27.440  46.900  54.830  1.00  0.00     0.018 A 
BRANCH  24  28
HETATM   28  O   UNL     1      29.521  43.276  54.830  1.00  0.00    -0.355 OA
HETATM   29  C   UNL     1      30.171  42.878  53.629  1.00  0.00     0.210 C 
ENDBRANCH  24  28
BRANCH  25  30
HETATM   30  C   UNL     1      30.091  45.161  56.850  1.00  0.00     0.013 A 
HETATM   31  C   UNL     1      31.096  44.173  56.974  1.00  0.00     0.152 A 
HETATM   32  N   UNL     1      31.803  44.288  58.103  1.00  0.00    -0.187 NA
HETATM   33  N   UNL     1      31.264  45.361  58.700  1.00  0.00    -0.289 N 
HETATM   34  H   UNL     1      31.649  45.658  59.591  1.00  0.00     0.188 HD
HETATM   35  C   UNL     1      30.236  45.916  57.996  1.00  0.00     0.123 A 
ENDBRANCH  25  30
ENDBRANCH   1  22
TORSDOF 9
ENDMDL
MODEL 7
REMARK VINA RESULT:      -9.0      2.917     11.451
REMARK  9 active torsions:
REMARK  status: ('A' for Active; 'I' for Inactive)
REMARK    1  A    between atoms: O_2  and  C_3 
REMARK    2  A    between atoms: C_5  and  C_15 
REMARK    3  A    between atoms: C_8  and  C_9 
REMARK       I    between atoms: C_15  and  N_17 
REMARK    4  A    between atoms: N_17  and  C_18 
REMARK    5  A    between atoms: C_18  and  C_19 
REMARK    6  A    between atoms: C_23  and  C_25 
REMARK       I    between atoms: C_25  and  N_27 
REMARK    7  A    between atoms: N_27  and  C_28 
REMARK    8  A    between atoms: C_28  and  C_29 
REMARK    9  A    between atoms: C_29  and  O_32 
ROOT
HETATM    1  C   UNL     1      22.934  49.475  49.317  1.00  0.00     0.252 C 
HETATM    2  O   UNL     1      23.851  50.277  49.188  1.00  0.00    -0.268 OA
HETATM    3  N   UNL     1      23.130  48.140  49.592  1.00  0.00    -0.353 N 
HETATM    4  H   UNL     1      22.358  47.591  49.943  1.00  0.00     0.163 HD
ENDROOT
BRANCH   3   5
HETATM    5  C   UNL     1      24.460  47.626  49.825  1.00  0.00     0.161 C 
BRANCH   5   6
HETATM    6  C   UNL     1      24.399  46.211  50.339  1.00  0.00    -0.040 A 
HETATM    7  C   UNL     1      23.603  45.248  49.705  1.00  0.00     0.009 A 
HETATM    8  C   UNL     1      23.563  43.937  50.182  1.00  0.00     0.002 A 
HETATM    9  C   UNL     1      24.314  43.578  51.302  1.00  0.00     0.017 A 
HETATM   10  C   UNL     1      25.100  44.532  51.959  1.00  0.00     0.032 A 
HETATM   11  C   UNL     1      25.149  45.842  51.469  1.00  0.00     0.026 A 
BRANCH  10  12
HETATM   12  C   UNL     1      25.878  44.100  53.152  1.00  0.00     0.251 C 
HETATM   13  O   UNL     1      25.670  44.622  54.242  1.00  0.00    -0.268 OA
HETATM   14  N   UNL     1      26.841  43.136  52.948  1.00  0.00    -0.354 N 
HETATM   15  H   UNL     1      27.055  42.811  52.015  1.00  0.00     0.162 HD
BRANCH  14  16
HETATM   16  C   UNL     1      27.696  42.660  54.027  1.00  0.00     0.159 C 
BRANCH  16  17
HETATM   17  C   UNL     1      29.078  43.352  54.057  1.00  0.00     0.066 C 
HETATM   18  C   UNL     1      29.994  42.808  55.155  1.00  0.00     0.047 C 
HETATM   19  C   UNL     1      29.757  43.199  52.694  1.00  0.00     0.047 C 
BRANCH  17  20
HETATM   20  O   UNL     1      28.887  44.758  54.278  1.00  0.00    -0.389 OA
HETATM   21  H   UNL     1      29.744  45.186  54.102  1.00  0.00     0.210 HD
ENDBRANCH  17  20
ENDBRANCH  16  17
ENDBRANCH  14  16
ENDBRANCH  10  12
ENDBRANCH   5   6
ENDBRANCH   3   5
BRANCH   1  22
HETATM   22  C   UNL     1      21.521  49.931  49.208  1.00  0.00     0.034 A 
HETATM   23  C   UNL     1      20.441  49.069  49.449  1.00  0.00     0.054 A 
HETATM   24  C   UNL     1      19.122  49.533  49.337  1.00  0.00     0.080 A 
HETATM   25  C   UNL     1      18.877  50.883  48.995  1.00  0.00     0.010 A 
HETATM   26  C   UNL     1      19.972  51.724  48.729  1.00  0.00     0.016 A 
HETATM   27  C   UNL     1      21.282  51.252  48.829  1.00  0.00     0.018 A 
BRANCH  24  28
HETATM   28  O   UNL     1      18.029  48.741  49.594  1.00  0.00    -0.355 OA
HETATM   29  C   UNL     1      17.972  47.473  48.952  1.00  0.00     0.210 C 
ENDBRANCH  24  28
BRANCH  25  30
HETATM   30  C   UNL     1      17.526  51.423  48.879  1.00  0.00     0.013 A 
HETATM   31  C   UNL     1      16.616  51.447  47.796  1.00  0.00     0.152 A 
HETATM   32  N   UNL     1      15.463  52.052  48.097  1.00  0.00    -0.187 NA
HETATM   33  N   UNL     1      15.622  52.405  49.381  1.00  0.00    -0.289 N 
HETATM   34  H   UNL     1      14.857  52.883  49.845  1.00  0.00     0.188 HD
HETATM   35  C   UNL     1      16.837  52.057  49.894  1.00  0.00     0.123 A 
ENDBRANCH  25  30
ENDBRANCH   1  22
TORSDOF 9
ENDMDL
MODEL 8
REMARK VINA RESULT:      -8.9      3.227      9.794
REMARK  9 active torsions:
REMARK  status: ('A' for Active; 'I' for Inactive)
REMARK    1  A    between atoms: O_2  and  C_3 
REMARK    2  A    between atoms: C_5  and  C_15 
REMARK    3  A    between atoms: C_8  and  C_9 
REMARK       I    between atoms: C_15  and  N_17 
REMARK    4  A    between atoms: N_17  and  C_18 
REMARK    5  A    between atoms: C_18  and  C_19 
REMARK    6  A    between atoms: C_23  and  C_25 
REMARK       I    between atoms: C_25  and  N_27 
REMARK    7  A    between atoms: N_27  and  C_28 
REMARK    8  A    between atoms: C_28  and  C_29 
REMARK    9  A    between atoms: C_29  and  O_32 
ROOT
HETATM    1  C   UNL     1      25.825  46.938  52.342  1.00  0.00     0.252 C 
HETATM    2  O   UNL     1      26.586  47.879  52.147  1.00  0.00    -0.268 OA
HETATM    3  N   UNL     1      25.702  46.305  53.559  1.00  0.00    -0.353 N 
HETATM    4  H   UNL     1      24.891  45.727  53.734  1.00  0.00     0.163 HD
ENDROOT
BRANCH   3   5
HETATM    5  C   UNL     1      26.428  46.784  54.713  1.00  0.00     0.161 C 
BRANCH   5   6
HETATM    6  C   UNL     1      27.662  45.952  54.944  1.00  0.00    -0.040 A 
HETATM    7  C   UNL     1      28.569  46.276  55.963  1.00  0.00     0.009 A 
HETATM    8  C   UNL     1      29.703  45.491  56.177  1.00  0.00     0.002 A 
HETATM    9  C   UNL     1      29.944  44.378  55.372  1.00  0.00     0.017 A 
HETATM   10  C   UNL     1      29.059  44.050  54.338  1.00  0.00     0.032 A 
HETATM   11  C   UNL     1      27.915  44.831  54.135  1.00  0.00     0.026 A 
BRANCH  10  12
HETATM   12  C   UNL     1      29.363  42.856  53.504  1.00  0.00     0.251 C 
HETATM   13  O   UNL     1      30.510  42.651  53.120  1.00  0.00    -0.268 OA
HETATM   14  N   UNL     1      28.300  42.045  53.171  1.00  0.00    -0.354 N 
HETATM   15  H   UNL     1      27.356  42.309  53.415  1.00  0.00     0.162 HD
BRANCH  14  16
HETATM   16  C   UNL     1      28.462  40.871  52.325  1.00  0.00     0.159 C 
BRANCH  16  17
HETATM   17  C   UNL     1      27.509  40.863  51.108  1.00  0.00     0.066 C 
HETATM   18  C   UNL     1      27.116  42.269  50.649  1.00  0.00     0.047 C 
HETATM   19  C   UNL     1      28.163  40.105  49.950  1.00  0.00     0.047 C 
BRANCH  17  20
HETATM   20  O   UNL     1      26.314  40.148  51.459  1.00  0.00    -0.389 OA
HETATM   21  H   UNL     1      25.571  40.762  51.319  1.00  0.00     0.210 HD
ENDBRANCH  17  20
ENDBRANCH  16  17
ENDBRANCH  14  16
ENDBRANCH  10  12
ENDBRANCH   5   6
ENDBRANCH   3   5
BRANCH   1  22
HETATM   22  C   UNL     1      24.949  46.444  51.244  1.00  0.00     0.034 A 
HETATM   23  C   UNL     1      24.399  47.307  50.286  1.00  0.00     0.054 A 
HETATM   24  C   UNL     1      23.578  46.806  49.265  1.00  0.00     0.080 A 
HETATM   25  C   UNL     1      23.315  45.419  49.189  1.00  0.00     0.010 A 
HETATM   26  C   UNL     1      23.853  44.573  50.176  1.00  0.00     0.016 A 
HETATM   27  C   UNL     1      24.657  45.080  51.197  1.00  0.00     0.018 A 
BRANCH  24  28
HETATM   28  O   UNL     1      23.041  47.603  48.282  1.00  0.00    -0.355 OA
HETATM   29  C   UNL     1      22.046  48.542  48.670  1.00  0.00     0.210 C 
ENDBRANCH  24  28
BRANCH  25  30
HETATM   30  C   UNL     1      22.481  44.841  48.140  1.00  0.00     0.013 A 
HETATM   31  C   UNL     1      22.816  44.192  46.929  1.00  0.00     0.152 A 
HETATM   32  N   UNL     1      21.744  43.808  46.229  1.00  0.00    -0.187 NA
HETATM   33  N   UNL     1      20.715  44.196  46.998  1.00  0.00    -0.289 N 
HETATM   34  H   UNL     1      19.774  44.001  46.674  1.00  0.00     0.188 HD
HETATM   35  C   UNL     1      21.101  44.821  48.147  1.00  0.00     0.123 A 
ENDBRANCH  25  30
ENDBRANCH   1  22
TORSDOF 9
ENDMDL
MODEL 9
REMARK VINA RESULT:      -8.9      3.653     11.410
REMARK  9 active torsions:
REMARK  status: ('A' for Active; 'I' for Inactive)
REMARK    1  A    between atoms: O_2  and  C_3 
REMARK    2  A    between atoms: C_5  and  C_15 
REMARK    3  A    between atoms: C_8  and  C_9 
REMARK       I    between atoms: C_15  and  N_17 
REMARK    4  A    between atoms: N_17  and  C_18 
REMARK    5  A    between atoms: C_18  and  C_19 
REMARK    6  A    between atoms: C_23  and  C_25 
REMARK       I    between atoms: C_25  and  N_27 
REMARK    7  A    between atoms: N_27  and  C_28 
REMARK    8  A    between atoms: C_28  and  C_29 
REMARK    9  A    between atoms: C_29  and  O_32 
ROOT
HETATM    1  C   UNL     1      23.083  49.171  48.977  1.00  0.00     0.252 C 
HETATM    2  O   UNL     1      23.981  49.609  48.267  1.00  0.00    -0.268 OA
HETATM    3  N   UNL     1      23.251  48.108  49.837  1.00  0.00    -0.353 N 
HETATM    4  H   UNL     1      22.576  47.961  50.575  1.00  0.00     0.163 HD
ENDROOT
BRANCH   3   5
HETATM    5  C   UNL     1      24.548  47.494  50.001  1.00  0.00     0.161 C 
BRANCH   5   6
HETATM    6  C   UNL     1      24.494  46.035  49.627  1.00  0.00    -0.040 A 
HETATM    7  C   UNL     1      23.344  45.483  49.046  1.00  0.00     0.009 A 
HETATM    8  C   UNL     1      23.309  44.133  48.692  1.00  0.00     0.002 A 
HETATM    9  C   UNL     1      24.421  43.322  48.919  1.00  0.00     0.017 A 
HETATM   10  C   UNL     1      25.571  43.853  49.515  1.00  0.00     0.032 A 
HETATM   11  C   UNL     1      25.608  45.210  49.857  1.00  0.00     0.026 A 
BRANCH  10  12
HETATM   12  C   UNL     1      26.728  42.945  49.742  1.00  0.00     0.251 C 
HETATM   13  O   UNL     1      27.227  42.338  48.800  1.00  0.00    -0.268 OA
HETATM   14  N   UNL     1      27.162  42.808  51.043  1.00  0.00    -0.354 N 
HETATM   15  H   UNL     1      26.655  43.240  51.802  1.00  0.00     0.162 HD
BRANCH  14  16
HETATM   16  C   UNL     1      28.258  41.918  51.400  1.00  0.00     0.159 C 
BRANCH  16  17
HETATM   17  C   UNL     1      28.571  41.916  52.914  1.00  0.00     0.066 C 
HETATM   18  C   UNL     1      29.978  42.429  53.232  1.00  0.00     0.047 C 
HETATM   19  C   UNL     1      27.533  42.762  53.653  1.00  0.00     0.047 C 
BRANCH  17  20
HETATM   20  O   UNL     1      28.453  40.574  53.409  1.00  0.00    -0.389 OA
HETATM   21  H   UNL     1      28.265  40.644  54.362  1.00  0.00     0.210 HD
ENDBRANCH  17  20
ENDBRANCH  16  17
ENDBRANCH  14  16
ENDBRANCH  10  12
ENDBRANCH   5   6
ENDBRANCH   3   5
BRANCH   1  22
HETATM   22  C   UNL     1      21.739  49.810  48.964  1.00  0.00     0.034 A 
HETATM   23  C   UNL     1      20.581  49.115  49.341  1.00  0.00     0.054 A 
HETATM   24  C   UNL     1      19.330  49.750  49.316  1.00  0.00     0.080 A 
HETATM   25  C   UNL     1      19.236  51.105  48.925  1.00  0.00     0.010 A 
HETATM   26  C   UNL     1      20.405  51.777  48.523  1.00  0.00     0.016 A 
HETATM   27  C   UNL     1      21.643  51.136  48.537  1.00  0.00     0.018 A 
BRANCH  24  28
HETATM   28  O   UNL     1      18.171  49.126  49.707  1.00  0.00    -0.355 OA
HETATM   29  C   UNL     1      17.814  47.924  49.036  1.00  0.00     0.210 C 
ENDBRANCH  24  28
BRANCH  25  30
HETATM   30  C   UNL     1      17.964  51.820  48.895  1.00  0.00     0.013 A 
HETATM   31  C   UNL     1      17.256  52.515  49.904  1.00  0.00     0.152 A 
HETATM   32  N   UNL     1      16.104  53.035  49.469  1.00  0.00    -0.187 NA
HETATM   33  N   UNL     1      16.076  52.689  48.173  1.00  0.00    -0.289 N 
HETATM   34  H   UNL     1      15.282  52.985  47.615  1.00  0.00     0.188 HD
HETATM   35  C   UNL     1      17.160  51.959  47.781  1.00  0.00     0.123 A 
ENDBRANCH  25  30
ENDBRANCH   1  22
TORSDOF 9
ENDMDL
MODEL 10
REMARK VINA RESULT:      -8.4     12.503     14.577
REMARK  9 active torsions:
REMARK  status: ('A' for Active; 'I' for Inactive)
REMARK    1  A    between atoms: O_2  and  C_3 
REMARK    2  A    between atoms: C_5  and  C_15 
REMARK    3  A    between atoms: C_8  and  C_9 
REMARK       I    between atoms: C_15  and  N_17 
REMARK    4  A    between atoms: N_17  and  C_18 
REMARK    5  A    between atoms: C_18  and  C_19 
REMARK    6  A    between atoms: C_23  and  C_25 
REMARK       I    between atoms: C_25  and  N_27 
REMARK    7  A    between atoms: N_27  and  C_28 
REMARK    8  A    between atoms: C_28  and  C_29 
REMARK    9  A    between atoms: C_29  and  O_32 
ROOT
HETATM    1  C   UNL     1      37.170  53.074  43.271  1.00  0.00     0.252 C 
HETATM    2  O   UNL     1      36.750  53.826  42.399  1.00  0.00    -0.268 OA
HETATM    3  N   UNL     1      36.734  51.776  43.423  1.00  0.00    -0.353 N 
HETATM    4  H   UNL     1      37.288  51.132  43.971  1.00  0.00     0.163 HD
ENDROOT
BRANCH   3   5
HETATM    5  C   UNL     1      35.794  51.203  42.489  1.00  0.00     0.161 C 
BRANCH   5   6
HETATM    6  C   UNL     1      34.390  51.290  43.030  1.00  0.00    -0.040 A 
HETATM    7  C   UNL     1      34.109  52.030  44.187  1.00  0.00     0.009 A 
HETATM    8  C   UNL     1      32.803  52.114  44.673  1.00  0.00     0.002 A 
HETATM    9  C   UNL     1      31.767  51.456  44.010  1.00  0.00     0.017 A 
HETATM   10  C   UNL     1      32.033  50.697  42.864  1.00  0.00     0.032 A 
HETATM   11  C   UNL     1      33.341  50.626  42.371  1.00  0.00     0.026 A 
BRANCH  10  12
HETATM   12  C   UNL     1      30.895  50.009  42.197  1.00  0.00     0.251 C 
HETATM   13  O   UNL     1      30.560  48.885  42.557  1.00  0.00    -0.268 OA
HETATM   14  N   UNL     1      30.287  50.681  41.158  1.00  0.00    -0.354 N 
HETATM   15  H   UNL     1      30.663  51.556  40.822  1.00  0.00     0.162 HD
BRANCH  14  16
HETATM   16  C   UNL     1      29.191  50.096  40.399  1.00  0.00     0.159 C 
BRANCH  16  17
HETATM   17  C   UNL     1      27.798  50.540  40.903  1.00  0.00     0.066 C 
HETATM   18  C   UNL     1      27.720  52.041  41.193  1.00  0.00     0.047 C 
HETATM   19  C   UNL     1      26.733  50.156  39.873  1.00  0.00     0.047 C 
BRANCH  17  20
HETATM   20  O   UNL     1      27.494  49.826  42.112  1.00  0.00    -0.389 OA
HETATM   21  H   UNL     1      28.242  49.225  42.276  1.00  0.00     0.210 HD
ENDBRANCH  17  20
ENDBRANCH  16  17
ENDBRANCH  14  16
ENDBRANCH  10  12
ENDBRANCH   5   6
ENDBRANCH   3   5
BRANCH   1  22
HETATM   22  C   UNL     1      38.225  53.536  44.213  1.00  0.00     0.034 A 
HETATM   23  C   UNL     1      38.172  54.794  44.832  1.00  0.00     0.054 A 
HETATM   24  C   UNL     1      39.185  55.197  45.714  1.00  0.00     0.080 A 
HETATM   25  C   UNL     1      40.260  54.323  45.998  1.00  0.00     0.010 A 
HETATM   26  C   UNL     1      40.311  53.078  45.346  1.00  0.00     0.016 A 
HETATM   27  C   UNL     1      39.308  52.690  44.458  1.00  0.00     0.018 A 
BRANCH  24  28
HETATM   28  O   UNL     1      39.164  56.402  46.372  1.00  0.00    -0.355 OA
HETATM   29  C   UNL     1      39.391  57.575  45.600  1.00  0.00     0.210 C 
ENDBRANCH  24  28
BRANCH  25  30
HETATM   30  C   UNL     1      41.333  54.683  46.919  1.00  0.00     0.013 A 
HETATM   31  C   UNL     1      42.422  55.577  46.786  1.00  0.00     0.152 A 
HETATM   32  N   UNL     1      43.198  55.620  47.873  1.00  0.00    -0.187 NA
HETATM   33  N   UNL     1      42.600  54.765  48.716  1.00  0.00    -0.289 N 
HETATM   34  H   UNL     1      43.010  54.631  49.635  1.00  0.00     0.188 HD
HETATM   35  C   UNL     1      41.485  54.176  48.194  1.00  0.00     0.123 A 
ENDBRANCH  25  30
ENDBRANCH   1  22
TORSDOF 9
ENDMDL
