MODEL 1
REMARK VINA RESULT:      -9.5      0.000      0.000
REMARK  6 active torsions:
REMARK  status: ('A' for Active; 'I' for Inactive)
REMARK    1  A    between atoms: C_2  and  C_3 
REMARK    2  A    between atoms: C_3  and  C_4 
REMARK       I    between atoms: C_4  and  N_5 
REMARK    3  A    between atoms: N_5  and  C_6 
REMARK    4  A    between atoms: C_8  and  C_9 
REMARK    5  A    between atoms: C_9  and  N_10 
REMARK       I    between atoms: N_10  and  C_11 
REMARK    6  A    between atoms: C_11  and  C_12 
ROOT
HETATM    1  C   UNL     1      25.898  46.903  50.232  1.00  0.00     0.161 C 
ENDROOT
BRANCH   1   2
HETATM    2  C   UNL     1      25.262  48.035  49.473  1.00  0.00    -0.038 A 
HETATM    3  C   UNL     1      23.865  48.170  49.435  1.00  0.00     0.038 A 
HETATM    4  C   UNL     1      23.266  49.277  48.827  1.00  0.00     0.035 A 
HETATM    5  C   UNL     1      24.079  50.249  48.234  1.00  0.00     0.029 A 
HETATM    6  C   UNL     1      25.468  50.102  48.225  1.00  0.00     0.003 A 
HETATM    7  C   UNL     1      26.058  49.001  48.842  1.00  0.00     0.009 A 
BRANCH   4   8
HETATM    8  N   UNL     1      21.874  49.508  48.837  1.00  0.00    -0.327 N 
HETATM    9  C   UNL     1      21.198  50.441  49.603  1.00  0.00     0.226 C 
HETATM   10  O   UNL     1      21.711  51.103  50.503  1.00  0.00    -0.273 OA
HETATM   11  H   UNL     1      21.324  48.840  48.321  1.00  0.00     0.169 HD
BRANCH   9  12
HETATM   12  C   UNL     1      19.737  50.696  49.180  1.00  0.00     0.074 C 
HETATM   13  C   UNL     1      19.596  52.116  48.618  1.00  0.00     0.020 C 
BRANCH  12  14
HETATM   14  C   UNL     1      18.644  50.406  50.223  1.00  0.00     0.009 C 
HETATM   15  C   UNL     1      18.725  49.033  50.873  1.00  0.00     0.006 C 
ENDBRANCH  12  14
ENDBRANCH   9  12
ENDBRANCH   4   8
ENDBRANCH   1   2
BRANCH   1  16
HETATM   16  N   UNL     1      26.202  47.250  51.593  1.00  0.00    -0.351 N 
HETATM   17  C   UNL     1      25.816  46.411  52.619  1.00  0.00     0.273 C 
HETATM   18  O   UNL     1      25.023  45.487  52.462  1.00  0.00    -0.266 OA
HETATM   19  H   UNL     1      26.982  47.865  51.803  1.00  0.00     0.163 HD
BRANCH  17  20
HETATM   20  C   UNL     1      26.468  46.703  53.906  1.00  0.00     0.157 A 
HETATM   21  N   UNL     1      26.091  47.749  54.674  1.00  0.00    -0.168 NA
HETATM   22  N   UNL     1      26.923  47.686  55.728  1.00  0.00    -0.277 N 
HETATM   23  H   UNL     1      26.828  48.385  56.456  1.00  0.00     0.189 HD
HETATM   24  C   UNL     1      27.827  46.661  55.680  1.00  0.00     0.063 A 
HETATM   25  C   UNL     1      27.554  45.990  54.494  1.00  0.00     0.029 A 
HETATM   26  C   UNL     1      28.843  46.275  56.558  1.00  0.00     0.032 A 
HETATM   27  C   UNL     1      28.335  44.869  54.154  1.00  0.00     0.023 A 
HETATM   28  C   UNL     1      29.368  44.455  55.013  1.00  0.00    -0.061 A 
HETATM   29  C   UNL     1      29.609  45.158  56.199  1.00  0.00     0.009 A 
HETATM   30  C   UNL     1      30.200  43.262  54.638  1.00  0.00     0.048 C 
ENDBRANCH  17  20
ENDBRANCH   1  16
TORSDOF 6
ENDMDL
MODEL 2
REMARK VINA RESULT:      -9.3      1.882      2.748
REMARK  6 active torsions:
REMARK  status: ('A' for Active; 'I' for Inactive)
REMARK    1  A    between atoms: C_2  and  C_3 
REMARK    2  A    between atoms: C_3  and  C_4 
REMARK       I    between atoms: C_4  and  N_5 
REMARK    3  A    between atoms: N_5  and  C_6 
REMARK    4  A    between atoms: C_8  and  C_9 
REMARK    5  A    between atoms: C_9  and  N_10 
REMARK       I    between atoms: N_10  and  C_11 
REMARK    6  A    between atoms: C_11  and  C_12 
ROOT
HETATM    1  C   UNL     1      24.928  45.469  50.803  1.00  0.00     0.161 C 
ENDROOT
BRANCH   1   2
HETATM    2  C   UNL     1      24.959  46.774  50.055  1.00  0.00    -0.038 A 
HETATM    3  C   UNL     1      23.763  47.384  49.641  1.00  0.00     0.038 A 
HETATM    4  C   UNL     1      23.771  48.648  49.044  1.00  0.00     0.035 A 
HETATM    5  C   UNL     1      24.994  49.296  48.844  1.00  0.00     0.029 A 
HETATM    6  C   UNL     1      26.193  48.680  49.209  1.00  0.00     0.003 A 
HETATM    7  C   UNL     1      26.176  47.424  49.813  1.00  0.00     0.009 A 
BRANCH   4   8
HETATM    8  N   UNL     1      22.596  49.345  48.690  1.00  0.00    -0.327 N 
HETATM    9  C   UNL     1      22.060  50.442  49.340  1.00  0.00     0.226 C 
HETATM   10  O   UNL     1      22.460  50.872  50.420  1.00  0.00    -0.273 OA
HETATM   11  H   UNL     1      22.045  48.915  47.963  1.00  0.00     0.169 HD
BRANCH   9  12
HETATM   12  C   UNL     1      20.963  51.192  48.556  1.00  0.00     0.074 C 
HETATM   13  C   UNL     1      19.823  51.587  49.502  1.00  0.00     0.020 C 
BRANCH  12  14
HETATM   14  C   UNL     1      20.417  50.511  47.290  1.00  0.00     0.009 C 
HETATM   15  C   UNL     1      18.955  50.800  46.986  1.00  0.00     0.006 C 
ENDBRANCH  12  14
ENDBRANCH   9  12
ENDBRANCH   4   8
ENDBRANCH   1   2
BRANCH   1  16
HETATM   16  N   UNL     1      26.207  45.114  51.352  1.00  0.00    -0.351 N 
HETATM   17  C   UNL     1      26.277  44.446  52.557  1.00  0.00     0.273 C 
HETATM   18  O   UNL     1      25.314  44.329  53.312  1.00  0.00    -0.266 OA
HETATM   19  H   UNL     1      27.014  45.002  50.745  1.00  0.00     0.163 HD
BRANCH  17  20
HETATM   20  C   UNL     1      27.595  43.856  52.838  1.00  0.00     0.157 A 
HETATM   21  N   UNL     1      28.130  42.898  52.050  1.00  0.00    -0.168 NA
HETATM   22  N   UNL     1      29.303  42.615  52.642  1.00  0.00    -0.277 N 
HETATM   23  H   UNL     1      29.895  41.908  52.221  1.00  0.00     0.189 HD
HETATM   24  C   UNL     1      29.554  43.331  53.780  1.00  0.00     0.063 A 
HETATM   25  C   UNL     1      28.452  44.162  53.938  1.00  0.00     0.029 A 
HETATM   26  C   UNL     1      30.633  43.320  54.668  1.00  0.00     0.032 A 
HETATM   27  C   UNL     1      28.412  45.034  55.043  1.00  0.00     0.023 A 
HETATM   28  C   UNL     1      29.479  45.045  55.958  1.00  0.00    -0.061 A 
HETATM   29  C   UNL     1      30.572  44.193  55.761  1.00  0.00     0.009 A 
HETATM   30  C   UNL     1      29.424  45.974  57.137  1.00  0.00     0.048 C 
ENDBRANCH  17  20
ENDBRANCH   1  16
TORSDOF 6
ENDMDL
MODEL 3
REMARK VINA RESULT:      -9.0      1.179      1.501
REMARK  6 active torsions:
REMARK  status: ('A' for Active; 'I' for Inactive)
REMARK    1  A    between atoms: C_2  and  C_3 
REMARK    2  A    between atoms: C_3  and  C_4 
REMARK       I    between atoms: C_4  and  N_5 
REMARK    3  A    between atoms: N_5  and  C_6 
REMARK    4  A    between atoms: C_8  and  C_9 
REMARK    5  A    between atoms: C_9  and  N_10 
REMARK       I    between atoms: N_10  and  C_11 
REMARK    6  A    between atoms: C_11  and  C_12 
ROOT
HETATM    1  C   UNL     1      24.223  46.741  49.993  1.00  0.00     0.161 C 
ENDROOT
BRANCH   1   2
HETATM    2  C   UNL     1      23.928  48.011  49.244  1.00  0.00    -0.038 A 
HETATM    3  C   UNL     1      22.613  48.318  48.856  1.00  0.00     0.038 A 
HETATM    4  C   UNL     1      22.308  49.544  48.258  1.00  0.00     0.035 A 
HETATM    5  C   UNL     1      23.338  50.463  48.030  1.00  0.00     0.029 A 
HETATM    6  C   UNL     1      24.656  50.150  48.369  1.00  0.00     0.003 A 
HETATM    7  C   UNL     1      24.950  48.930  48.974  1.00  0.00     0.009 A 
BRANCH   4   8
HETATM    8  N   UNL     1      20.995  49.941  47.930  1.00  0.00    -0.327 N 
HETATM    9  C   UNL     1      20.002  50.321  48.815  1.00  0.00     0.226 C 
HETATM   10  O   UNL     1      20.086  50.218  50.038  1.00  0.00    -0.273 OA
HETATM   11  H   UNL     1      20.736  49.814  46.963  1.00  0.00     0.169 HD
BRANCH   9  12
HETATM   12  C   UNL     1      18.781  51.007  48.169  1.00  0.00     0.074 C 
HETATM   13  C   UNL     1      18.811  50.805  46.649  1.00  0.00     0.020 C 
BRANCH  12  14
HETATM   14  C   UNL     1      18.539  52.485  48.523  1.00  0.00     0.009 C 
HETATM   15  C   UNL     1      17.497  52.723  49.605  1.00  0.00     0.006 C 
ENDBRANCH  12  14
ENDBRANCH   9  12
ENDBRANCH   4   8
ENDBRANCH   1   2
BRANCH   1  16
HETATM   16  N   UNL     1      24.606  46.978  51.358  1.00  0.00    -0.351 N 
HETATM   17  C   UNL     1      25.405  46.065  52.017  1.00  0.00     0.273 C 
HETATM   18  O   UNL     1      25.629  44.939  51.581  1.00  0.00    -0.266 OA
HETATM   19  H   UNL     1      24.630  47.924  51.728  1.00  0.00     0.163 HD
BRANCH  17  20
HETATM   20  C   UNL     1      25.990  46.576  53.266  1.00  0.00     0.157 A 
HETATM   21  N   UNL     1      25.550  47.715  53.845  1.00  0.00    -0.168 NA
HETATM   22  N   UNL     1      26.336  47.845  54.929  1.00  0.00    -0.277 N 
HETATM   23  H   UNL     1      26.190  48.645  55.534  1.00  0.00     0.189 HD
HETATM   24  C   UNL     1      27.269  46.857  55.078  1.00  0.00     0.063 A 
HETATM   25  C   UNL     1      27.068  46.001  54.002  1.00  0.00     0.029 A 
HETATM   26  C   UNL     1      28.255  46.646  56.045  1.00  0.00     0.032 A 
HETATM   27  C   UNL     1      27.894  44.867  53.874  1.00  0.00     0.023 A 
HETATM   28  C   UNL     1      28.898  44.627  54.827  1.00  0.00    -0.061 A 
HETATM   29  C   UNL     1      29.067  45.514  55.897  1.00  0.00     0.009 A 
HETATM   30  C   UNL     1      29.778  43.419  54.678  1.00  0.00     0.048 C 
ENDBRANCH  17  20
ENDBRANCH   1  16
TORSDOF 6
ENDMDL
MODEL 4
REMARK VINA RESULT:      -8.9      2.947      3.921
REMARK  6 active torsions:
REMARK  status: ('A' for Active; 'I' for Inactive)
REMARK    1  A    between atoms: C_2  and  C_3 
REMARK    2  A    between atoms: C_3  and  C_4 
REMARK       I    between atoms: C_4  and  N_5 
REMARK    3  A    between atoms: N_5  and  C_6 
REMARK    4  A    between atoms: C_8  and  C_9 
REMARK    5  A    between atoms: C_9  and  N_10 
REMARK       I    between atoms: N_10  and  C_11 
REMARK    6  A    between atoms: C_11  and  C_12 
ROOT
HETATM    1  C   UNL     1      24.857  43.744  49.709  1.00  0.00     0.161 C 
ENDROOT
BRANCH   1   2
HETATM    2  C   UNL     1      25.033  45.238  49.691  1.00  0.00    -0.038 A 
HETATM    3  C   UNL     1      23.916  46.084  49.593  1.00  0.00     0.038 A 
HETATM    4  C   UNL     1      24.056  47.472  49.687  1.00  0.00     0.035 A 
HETATM    5  C   UNL     1      25.333  48.015  49.862  1.00  0.00     0.029 A 
HETATM    6  C   UNL     1      26.456  47.186  49.914  1.00  0.00     0.003 A 
HETATM    7  C   UNL     1      26.307  45.803  49.830  1.00  0.00     0.009 A 
BRANCH   4   8
HETATM    8  N   UNL     1      22.962  48.363  49.685  1.00  0.00    -0.327 N 
HETATM    9  C   UNL     1      22.146  48.665  48.610  1.00  0.00     0.226 C 
HETATM   10  O   UNL     1      22.360  48.306  47.453  1.00  0.00    -0.273 OA
HETATM   11  H   UNL     1      22.854  48.911  50.524  1.00  0.00     0.169 HD
BRANCH   9  12
HETATM   12  C   UNL     1      20.845  49.412  48.969  1.00  0.00     0.074 C 
HETATM   13  C   UNL     1      19.793  49.184  47.877  1.00  0.00     0.020 C 
BRANCH  12  14
HETATM   14  C   UNL     1      20.967  50.907  49.311  1.00  0.00     0.009 C 
HETATM   15  C   UNL     1      20.014  51.819  48.554  1.00  0.00     0.006 C 
ENDBRANCH  12  14
ENDBRANCH   9  12
ENDBRANCH   4   8
ENDBRANCH   1   2
BRANCH   1  16
HETATM   16  N   UNL     1      25.752  43.090  50.623  1.00  0.00    -0.351 N 
HETATM   17  C   UNL     1      26.970  42.621  50.176  1.00  0.00     0.273 C 
HETATM   18  O   UNL     1      27.250  42.525  48.983  1.00  0.00    -0.266 OA
HETATM   19  H   UNL     1      25.698  43.282  51.619  1.00  0.00     0.163 HD
BRANCH  17  20
HETATM   20  C   UNL     1      27.913  42.283  51.254  1.00  0.00     0.157 A 
HETATM   21  N   UNL     1      28.588  41.113  51.269  1.00  0.00    -0.168 NA
HETATM   22  N   UNL     1      29.311  41.177  52.401  1.00  0.00    -0.277 N 
HETATM   23  H   UNL     1      29.911  40.393  52.631  1.00  0.00     0.189 HD
HETATM   24  C   UNL     1      29.132  42.321  53.127  1.00  0.00     0.063 A 
HETATM   25  C   UNL     1      28.220  43.076  52.400  1.00  0.00     0.029 A 
HETATM   26  C   UNL     1      29.681  42.750  54.339  1.00  0.00     0.032 A 
HETATM   27  C   UNL     1      27.824  44.331  52.902  1.00  0.00     0.023 A 
HETATM   28  C   UNL     1      28.353  44.791  54.120  1.00  0.00    -0.061 A 
HETATM   29  C   UNL     1      29.272  44.000  54.821  1.00  0.00     0.009 A 
HETATM   30  C   UNL     1      27.920  46.127  54.650  1.00  0.00     0.048 C 
ENDBRANCH  17  20
ENDBRANCH   1  16
TORSDOF 6
ENDMDL
MODEL 5
REMARK VINA RESULT:      -8.8      3.386      5.963
REMARK  6 active torsions:
REMARK  status: ('A' for Active; 'I' for Inactive)
REMARK    1  A    between atoms: C_2  and  C_3 
REMARK    2  A    between atoms: C_3  and  C_4 
REMARK       I    between atoms: C_4  and  N_5 
REMARK    3  A    between atoms: N_5  and  C_6 
REMARK    4  A    between atoms: C_8  and  C_9 
REMARK    5  A    between atoms: C_9  and  N_10 
REMARK       I    between atoms: N_10  and  C_11 
REMARK    6  A    between atoms: C_11  and  C_12 
ROOT
HETATM    1  C   UNL     1      28.108  41.102  52.436  1.00  0.00     0.161 C 
ENDROOT
BRANCH   1   2
HETATM    2  C   UNL     1      27.027  41.641  51.540  1.00  0.00    -0.038 A 
HETATM    3  C   UNL     1      26.760  43.020  51.500  1.00  0.00     0.038 A 
HETATM    4  C   UNL     1      25.836  43.546  50.593  1.00  0.00     0.035 A 
HETATM    5  C   UNL     1      25.159  42.675  49.732  1.00  0.00     0.029 A 
HETATM    6  C   UNL     1      25.381  41.298  49.796  1.00  0.00     0.003 A 
HETATM    7  C   UNL     1      26.312  40.783  50.695  1.00  0.00     0.009 A 
BRANCH   4   8
HETATM    8  N   UNL     1      25.594  44.928  50.446  1.00  0.00    -0.327 N 
HETATM    9  C   UNL     1      26.402  45.843  49.795  1.00  0.00     0.226 C 
HETATM   10  O   UNL     1      27.533  45.597  49.378  1.00  0.00    -0.273 OA
HETATM   11  H   UNL     1      24.814  45.286  50.976  1.00  0.00     0.169 HD
BRANCH   9  12
HETATM   12  C   UNL     1      25.743  47.208  49.511  1.00  0.00     0.074 C 
HETATM   13  C   UNL     1      26.760  48.335  49.730  1.00  0.00     0.020 C 
BRANCH  12  14
HETATM   14  C   UNL     1      24.421  47.513  50.235  1.00  0.00     0.009 C 
HETATM   15  C   UNL     1      23.296  48.007  49.338  1.00  0.00     0.006 C 
ENDBRANCH  12  14
ENDBRANCH   9  12
ENDBRANCH   4   8
ENDBRANCH   1   2
BRANCH   1  16
HETATM   16  N   UNL     1      28.376  41.957  53.560  1.00  0.00    -0.351 N 
HETATM   17  C   UNL     1      29.580  42.625  53.644  1.00  0.00     0.273 C 
HETATM   18  O   UNL     1      30.541  42.360  52.926  1.00  0.00    -0.266 OA
HETATM   19  H   UNL     1      27.610  42.371  54.083  1.00  0.00     0.163 HD
BRANCH  17  20
HETATM   20  C   UNL     1      29.596  43.704  54.644  1.00  0.00     0.157 A 
HETATM   21  N   UNL     1      30.474  43.710  55.671  1.00  0.00    -0.168 NA
HETATM   22  N   UNL     1      30.157  44.824  56.355  1.00  0.00    -0.277 N 
HETATM   23  H   UNL     1      30.692  45.045  57.187  1.00  0.00     0.189 HD
HETATM   24  C   UNL     1      29.113  45.535  55.832  1.00  0.00     0.063 A 
HETATM   25  C   UNL     1      28.720  44.829  54.702  1.00  0.00     0.029 A 
HETATM   26  C   UNL     1      28.489  46.715  56.247  1.00  0.00     0.032 A 
HETATM   27  C   UNL     1      27.644  45.317  53.935  1.00  0.00     0.023 A 
HETATM   28  C   UNL     1      26.992  46.499  54.327  1.00  0.00    -0.061 A 
HETATM   29  C   UNL     1      27.420  47.182  55.472  1.00  0.00     0.009 A 
HETATM   30  C   UNL     1      25.842  47.009  53.507  1.00  0.00     0.048 C 
ENDBRANCH  17  20
ENDBRANCH   1  16
TORSDOF 6
ENDMDL
MODEL 6
REMARK VINA RESULT:      -8.6      4.422      7.480
REMARK  6 active torsions:
REMARK  status: ('A' for Active; 'I' for Inactive)
REMARK    1  A    between atoms: C_2  and  C_3 
REMARK    2  A    between atoms: C_3  and  C_4 
REMARK       I    between atoms: C_4  and  N_5 
REMARK    3  A    between atoms: N_5  and  C_6 
REMARK    4  A    between atoms: C_8  and  C_9 
REMARK    5  A    between atoms: C_9  and  N_10 
REMARK       I    between atoms: N_10  and  C_11 
REMARK    6  A    between atoms: C_11  and  C_12 
ROOT
HETATM    1  C   UNL     1      25.803  46.608  51.924  1.00  0.00     0.161 C 
ENDROOT
BRANCH   1   2
HETATM    2  C   UNL     1      25.515  45.303  51.234  1.00  0.00    -0.038 A 
HETATM    3  C   UNL     1      26.569  44.478  50.806  1.00  0.00     0.038 A 
HETATM    4  C   UNL     1      26.317  43.215  50.264  1.00  0.00     0.035 A 
HETATM    5  C   UNL     1      24.992  42.784  50.132  1.00  0.00     0.029 A 
HETATM    6  C   UNL     1      23.935  43.615  50.510  1.00  0.00     0.003 A 
HETATM    7  C   UNL     1      24.195  44.868  51.059  1.00  0.00     0.009 A 
BRANCH   4   8
HETATM    8  N   UNL     1      27.337  42.310  49.901  1.00  0.00    -0.327 N 
HETATM    9  C   UNL     1      27.547  41.048  50.429  1.00  0.00     0.226 C 
HETATM   10  O   UNL     1      26.954  40.598  51.408  1.00  0.00    -0.273 OA
HETATM   11  H   UNL     1      28.041  42.682  49.283  1.00  0.00     0.169 HD
BRANCH   9  12
HETATM   12  C   UNL     1      28.523  40.162  49.629  1.00  0.00     0.074 C 
HETATM   13  C   UNL     1      28.337  40.403  48.126  1.00  0.00     0.020 C 
BRANCH  12  14
HETATM   14  C   UNL     1      28.526  38.657  49.948  1.00  0.00     0.009 C 
HETATM   15  C   UNL     1      29.809  38.135  50.575  1.00  0.00     0.006 C 
ENDBRANCH  12  14
ENDBRANCH   9  12
ENDBRANCH   4   8
ENDBRANCH   1   2
BRANCH   1  16
HETATM   16  N   UNL     1      26.893  46.515  52.855  1.00  0.00    -0.351 N 
HETATM   17  C   UNL     1      26.667  46.714  54.202  1.00  0.00     0.273 C 
HETATM   18  O   UNL     1      25.623  47.193  54.638  1.00  0.00    -0.266 OA
HETATM   19  H   UNL     1      27.716  45.963  52.629  1.00  0.00     0.163 HD
BRANCH  17  20
HETATM   20  C   UNL     1      27.771  46.268  55.066  1.00  0.00     0.157 A 
HETATM   21  N   UNL     1      28.109  46.936  56.191  1.00  0.00    -0.168 NA
HETATM   22  N   UNL     1      29.154  46.240  56.672  1.00  0.00    -0.277 N 
HETATM   23  H   UNL     1      29.587  46.558  57.532  1.00  0.00     0.189 HD
HETATM   24  C   UNL     1      29.518  45.162  55.914  1.00  0.00     0.063 A 
HETATM   25  C   UNL     1      28.626  45.147  54.849  1.00  0.00     0.029 A 
HETATM   26  C   UNL     1      30.536  44.217  56.068  1.00  0.00     0.032 A 
HETATM   27  C   UNL     1      28.750  44.138  53.875  1.00  0.00     0.023 A 
HETATM   28  C   UNL     1      29.765  43.174  53.997  1.00  0.00    -0.061 A 
HETATM   29  C   UNL     1      30.642  43.223  55.087  1.00  0.00     0.009 A 
HETATM   30  C   UNL     1      29.893  42.106  52.949  1.00  0.00     0.048 C 
ENDBRANCH  17  20
ENDBRANCH   1  16
TORSDOF 6
ENDMDL
MODEL 7
REMARK VINA RESULT:      -8.5      2.579      3.904
REMARK  6 active torsions:
REMARK  status: ('A' for Active; 'I' for Inactive)
REMARK    1  A    between atoms: C_2  and  C_3 
REMARK    2  A    between atoms: C_3  and  C_4 
REMARK       I    between atoms: C_4  and  N_5 
REMARK    3  A    between atoms: N_5  and  C_6 
REMARK    4  A    between atoms: C_8  and  C_9 
REMARK    5  A    between atoms: C_9  and  N_10 
REMARK       I    between atoms: N_10  and  C_11 
REMARK    6  A    between atoms: C_11  and  C_12 
ROOT
HETATM    1  C   UNL     1      26.830  43.668  51.181  1.00  0.00     0.161 C 
ENDROOT
BRANCH   1   2
HETATM    2  C   UNL     1      25.423  43.875  50.692  1.00  0.00    -0.038 A 
HETATM    3  C   UNL     1      24.957  45.167  50.395  1.00  0.00     0.038 A 
HETATM    4  C   UNL     1      23.691  45.363  49.836  1.00  0.00     0.035 A 
HETATM    5  C   UNL     1      22.877  44.251  49.592  1.00  0.00     0.029 A 
HETATM    6  C   UNL     1      23.311  42.967  49.927  1.00  0.00     0.003 A 
HETATM    7  C   UNL     1      24.578  42.779  50.474  1.00  0.00     0.009 A 
BRANCH   4   8
HETATM    8  N   UNL     1      23.208  46.627  49.436  1.00  0.00    -0.327 N 
HETATM    9  C   UNL     1      23.955  47.776  49.251  1.00  0.00     0.226 C 
HETATM   10  O   UNL     1      25.140  47.890  49.563  1.00  0.00    -0.273 OA
HETATM   11  H   UNL     1      22.203  46.711  49.400  1.00  0.00     0.169 HD
BRANCH   9  12
HETATM   12  C   UNL     1      23.228  48.914  48.507  1.00  0.00     0.074 C 
HETATM   13  C   UNL     1      24.166  50.117  48.348  1.00  0.00     0.020 C 
BRANCH  12  14
HETATM   14  C   UNL     1      21.861  49.352  49.058  1.00  0.00     0.009 C 
HETATM   15  C   UNL     1      21.838  50.730  49.700  1.00  0.00     0.006 C 
ENDBRANCH  12  14
ENDBRANCH   9  12
ENDBRANCH   4   8
ENDBRANCH   1   2
BRANCH   1  16
HETATM   16  N   UNL     1      27.028  44.146  52.521  1.00  0.00    -0.351 N 
HETATM   17  C   UNL     1      28.300  44.192  53.054  1.00  0.00     0.273 C 
HETATM   18  O   UNL     1      29.262  43.634  52.532  1.00  0.00    -0.266 OA
HETATM   19  H   UNL     1      26.355  44.778  52.945  1.00  0.00     0.163 HD
BRANCH  17  20
HETATM   20  C   UNL     1      28.405  44.998  54.281  1.00  0.00     0.157 A 
HETATM   21  N   UNL     1      27.620  46.076  54.494  1.00  0.00    -0.168 NA
HETATM   22  N   UNL     1      28.031  46.539  55.688  1.00  0.00    -0.277 N 
HETATM   23  H   UNL     1      27.576  47.363  56.066  1.00  0.00     0.189 HD
HETATM   24  C   UNL     1      29.048  45.823  56.257  1.00  0.00     0.063 A 
HETATM   25  C   UNL     1      29.318  44.798  55.359  1.00  0.00     0.029 A 
HETATM   26  C   UNL     1      29.742  45.986  57.458  1.00  0.00     0.032 A 
HETATM   27  C   UNL     1      30.339  43.878  55.667  1.00  0.00     0.023 A 
HETATM   28  C   UNL     1      31.060  44.015  56.866  1.00  0.00    -0.061 A 
HETATM   29  C   UNL     1      30.755  45.062  57.744  1.00  0.00     0.009 A 
HETATM   30  C   UNL     1      32.151  43.033  57.182  1.00  0.00     0.048 C 
ENDBRANCH  17  20
ENDBRANCH   1  16
TORSDOF 6
ENDMDL
MODEL 8
REMARK VINA RESULT:      -8.4      4.450      8.523
REMARK  6 active torsions:
REMARK  status: ('A' for Active; 'I' for Inactive)
REMARK    1  A    between atoms: C_2  and  C_3 
REMARK    2  A    between atoms: C_3  and  C_4 
REMARK       I    between atoms: C_4  and  N_5 
REMARK    3  A    between atoms: N_5  and  C_6 
REMARK    4  A    between atoms: C_8  and  C_9 
REMARK    5  A    between atoms: C_9  and  N_10 
REMARK       I    between atoms: N_10  and  C_11 
REMARK    6  A    between atoms: C_11  and  C_12 
ROOT
HETATM    1  C   UNL     1      25.636  46.759  51.787  1.00  0.00     0.161 C 
ENDROOT
BRANCH   1   2
HETATM    2  C   UNL     1      26.047  46.983  53.216  1.00  0.00    -0.038 A 
HETATM    3  C   UNL     1      26.901  46.073  53.861  1.00  0.00     0.038 A 
HETATM    4  C   UNL     1      27.378  46.326  55.151  1.00  0.00     0.035 A 
HETATM    5  C   UNL     1      26.978  47.496  55.805  1.00  0.00     0.029 A 
HETATM    6  C   UNL     1      26.092  48.384  55.192  1.00  0.00     0.003 A 
HETATM    7  C   UNL     1      25.629  48.130  53.903  1.00  0.00     0.009 A 
BRANCH   4   8
HETATM    8  N   UNL     1      28.307  45.494  55.811  1.00  0.00    -0.327 N 
HETATM    9  C   UNL     1      29.660  45.731  55.971  1.00  0.00     0.226 C 
HETATM   10  O   UNL     1      30.275  46.643  55.420  1.00  0.00    -0.273 OA
HETATM   11  H   UNL     1      27.956  44.588  56.080  1.00  0.00     0.169 HD
BRANCH   9  12
HETATM   12  C   UNL     1      30.364  44.824  57.001  1.00  0.00     0.074 C 
HETATM   13  C   UNL     1      30.623  45.606  58.295  1.00  0.00     0.020 C 
BRANCH  12  14
HETATM   14  C   UNL     1      31.634  44.091  56.538  1.00  0.00     0.009 C 
HETATM   15  C   UNL     1      31.899  42.764  57.233  1.00  0.00     0.006 C 
ENDBRANCH  12  14
ENDBRANCH   9  12
ENDBRANCH   4   8
ENDBRANCH   1   2
BRANCH   1  16
HETATM   16  N   UNL     1      25.814  45.396  51.366  1.00  0.00    -0.351 N 
HETATM   17  C   UNL     1      26.564  45.116  50.242  1.00  0.00     0.273 C 
HETATM   18  O   UNL     1      26.909  45.980  49.438  1.00  0.00    -0.266 OA
HETATM   19  H   UNL     1      25.735  44.637  52.036  1.00  0.00     0.163 HD
BRANCH  17  20
HETATM   20  C   UNL     1      26.943  43.700  50.114  1.00  0.00     0.157 A 
HETATM   21  N   UNL     1      26.613  42.971  49.026  1.00  0.00    -0.168 NA
HETATM   22  N   UNL     1      27.109  41.751  49.297  1.00  0.00    -0.277 N 
HETATM   23  H   UNL     1      26.982  41.017  48.609  1.00  0.00     0.189 HD
HETATM   24  C   UNL     1      27.735  41.648  50.508  1.00  0.00     0.063 A 
HETATM   25  C   UNL     1      27.648  42.914  51.073  1.00  0.00     0.029 A 
HETATM   26  C   UNL     1      28.357  40.571  51.146  1.00  0.00     0.032 A 
HETATM   27  C   UNL     1      28.208  43.129  52.347  1.00  0.00     0.023 A 
HETATM   28  C   UNL     1      28.837  42.067  53.018  1.00  0.00    -0.061 A 
HETATM   29  C   UNL     1      28.905  40.806  52.413  1.00  0.00     0.009 A 
HETATM   30  C   UNL     1      29.425  42.304  54.379  1.00  0.00     0.048 C 
ENDBRANCH  17  20
ENDBRANCH   1  16
TORSDOF 6
ENDMDL
MODEL 9
REMARK VINA RESULT:      -8.3      2.256      3.322
REMARK  6 active torsions:
REMARK  status: ('A' for Active; 'I' for Inactive)
REMARK    1  A    between atoms: C_2  and  C_3 
REMARK    2  A    between atoms: C_3  and  C_4 
REMARK       I    between atoms: C_4  and  N_5 
REMARK    3  A    between atoms: N_5  and  C_6 
REMARK    4  A    between atoms: C_8  and  C_9 
REMARK    5  A    between atoms: C_9  and  N_10 
REMARK       I    between atoms: N_10  and  C_11 
REMARK    6  A    between atoms: C_11  and  C_12 
ROOT
HETATM    1  C   UNL     1      24.245  47.906  49.581  1.00  0.00     0.161 C 
ENDROOT
BRANCH   1   2
HETATM    2  C   UNL     1      22.864  47.572  49.089  1.00  0.00    -0.038 A 
HETATM    3  C   UNL     1      21.806  48.479  49.269  1.00  0.00     0.038 A 
HETATM    4  C   UNL     1      20.545  48.229  48.720  1.00  0.00     0.035 A 
HETATM    5  C   UNL     1      20.340  47.048  48.000  1.00  0.00     0.029 A 
HETATM    6  C   UNL     1      21.370  46.117  47.855  1.00  0.00     0.003 A 
HETATM    7  C   UNL     1      22.627  46.377  48.396  1.00  0.00     0.009 A 
BRANCH   4   8
HETATM    8  N   UNL     1      19.474  49.145  48.793  1.00  0.00    -0.327 N 
HETATM    9  C   UNL     1      18.736  49.465  49.919  1.00  0.00     0.226 C 
HETATM   10  O   UNL     1      18.819  48.873  50.994  1.00  0.00    -0.273 OA
HETATM   11  H   UNL     1      19.152  49.501  47.906  1.00  0.00     0.169 HD
BRANCH   9  12
HETATM   12  C   UNL     1      17.851  50.720  49.782  1.00  0.00     0.074 C 
HETATM   13  C   UNL     1      16.907  50.567  48.583  1.00  0.00     0.020 C 
BRANCH  12  14
HETATM   14  C   UNL     1      18.565  52.082  49.749  1.00  0.00     0.009 C 
HETATM   15  C   UNL     1      18.979  52.557  48.365  1.00  0.00     0.006 C 
ENDBRANCH  12  14
ENDBRANCH   9  12
ENDBRANCH   4   8
ENDBRANCH   1   2
BRANCH   1  16
HETATM   16  N   UNL     1      24.936  46.765  50.114  1.00  0.00    -0.351 N 
HETATM   17  C   UNL     1      25.191  46.685  51.468  1.00  0.00     0.273 C 
HETATM   18  O   UNL     1      25.063  47.642  52.228  1.00  0.00    -0.266 OA
HETATM   19  H   UNL     1      24.915  45.876  49.622  1.00  0.00     0.163 HD
BRANCH  17  20
HETATM   20  C   UNL     1      25.593  45.344  51.922  1.00  0.00     0.157 A 
HETATM   21  N   UNL     1      25.025  44.224  51.426  1.00  0.00    -0.168 NA
HETATM   22  N   UNL     1      25.636  43.232  52.097  1.00  0.00    -0.277 N 
HETATM   23  H   UNL     1      25.369  42.276  51.889  1.00  0.00     0.189 HD
HETATM   24  C   UNL     1      26.564  43.650  53.010  1.00  0.00     0.063 A 
HETATM   25  C   UNL     1      26.565  45.036  52.920  1.00  0.00     0.029 A 
HETATM   26  C   UNL     1      27.386  42.943  53.892  1.00  0.00     0.032 A 
HETATM   27  C   UNL     1      27.430  45.770  53.755  1.00  0.00     0.023 A 
HETATM   28  C   UNL     1      28.267  45.091  54.657  1.00  0.00    -0.061 A 
HETATM   29  C   UNL     1      28.237  43.693  54.715  1.00  0.00     0.009 A 
HETATM   30  C   UNL     1      29.181  45.882  55.548  1.00  0.00     0.048 C 
ENDBRANCH  17  20
ENDBRANCH   1  16
TORSDOF 6
ENDMDL
MODEL 10
REMARK VINA RESULT:      -8.1      2.224      9.982
REMARK  6 active torsions:
REMARK  status: ('A' for Active; 'I' for Inactive)
REMARK    1  A    between atoms: C_2  and  C_3 
REMARK    2  A    between atoms: C_3  and  C_4 
REMARK       I    between atoms: C_4  and  N_5 
REMARK    3  A    between atoms: N_5  and  C_6 
REMARK    4  A    between atoms: C_8  and  C_9 
REMARK    5  A    between atoms: C_9  and  N_10 
REMARK       I    between atoms: N_10  and  C_11 
REMARK    6  A    between atoms: C_11  and  C_12 
ROOT
HETATM    1  C   UNL     1      24.524  47.578  49.964  1.00  0.00     0.161 C 
ENDROOT
BRANCH   1   2
HETATM    2  C   UNL     1      24.904  46.266  50.595  1.00  0.00    -0.038 A 
HETATM    3  C   UNL     1      25.732  46.237  51.729  1.00  0.00     0.038 A 
HETATM    4  C   UNL     1      26.003  45.035  52.390  1.00  0.00     0.035 A 
HETATM    5  C   UNL     1      25.450  43.849  51.895  1.00  0.00     0.029 A 
HETATM    6  C   UNL     1      24.664  43.860  50.742  1.00  0.00     0.003 A 
HETATM    7  C   UNL     1      24.390  45.063  50.094  1.00  0.00     0.009 A 
BRANCH   4   8
HETATM    8  N   UNL     1      26.753  44.959  53.583  1.00  0.00    -0.327 N 
HETATM    9  C   UNL     1      28.045  44.484  53.716  1.00  0.00     0.226 C 
HETATM   10  O   UNL     1      28.671  43.915  52.822  1.00  0.00    -0.273 OA
HETATM   11  H   UNL     1      26.240  45.162  54.427  1.00  0.00     0.169 HD
BRANCH   9  12
HETATM   12  C   UNL     1      28.726  44.814  55.060  1.00  0.00     0.074 C 
HETATM   13  C   UNL     1      28.384  46.249  55.480  1.00  0.00     0.020 C 
BRANCH  12  14
HETATM   14  C   UNL     1      30.240  44.558  55.161  1.00  0.00     0.009 C 
HETATM   15  C   UNL     1      30.625  43.207  55.743  1.00  0.00     0.006 C 
ENDBRANCH  12  14
ENDBRANCH   9  12
ENDBRANCH   4   8
ENDBRANCH   1   2
BRANCH   1  16
HETATM   16  N   UNL     1      23.103  47.792  49.942  1.00  0.00    -0.351 N 
HETATM   17  C   UNL     1      22.465  48.047  48.745  1.00  0.00     0.273 C 
HETATM   18  O   UNL     1      23.070  48.328  47.713  1.00  0.00    -0.266 OA
HETATM   19  H   UNL     1      22.515  47.410  50.676  1.00  0.00     0.163 HD
BRANCH  17  20
HETATM   20  C   UNL     1      21.001  47.915  48.809  1.00  0.00     0.157 A 
HETATM   21  N   UNL     1      20.398  46.711  48.919  1.00  0.00    -0.168 NA
HETATM   22  N   UNL     1      19.087  47.010  48.923  1.00  0.00    -0.277 N 
HETATM   23  H   UNL     1      18.422  46.249  48.999  1.00  0.00     0.189 HD
HETATM   24  C   UNL     1      18.807  48.343  48.811  1.00  0.00     0.063 A 
HETATM   25  C   UNL     1      20.044  48.971  48.737  1.00  0.00     0.029 A 
HETATM   26  C   UNL     1      17.596  49.040  48.767  1.00  0.00     0.032 A 
HETATM   27  C   UNL     1      20.088  50.373  48.609  1.00  0.00     0.023 A 
HETATM   28  C   UNL     1      18.888  51.104  48.558  1.00  0.00    -0.061 A 
HETATM   29  C   UNL     1      17.662  50.433  48.637  1.00  0.00     0.009 A 
HETATM   30  C   UNL     1      18.945  52.598  48.415  1.00  0.00     0.048 C 
ENDBRANCH  17  20
ENDBRANCH   1  16
TORSDOF 6
ENDMDL
