MODEL 1
REMARK VINA RESULT:      -9.3      0.000      0.000
REMARK  4 active torsions:
REMARK  status: ('A' for Active; 'I' for Inactive)
REMARK    1  A    between atoms: O_2  and  C_3 
REMARK    2  A    between atoms: C_6  and  C_7 
REMARK    3  A    between atoms: C_12  and  N_13 
REMARK    4  A    between atoms: C_15  and  C_16 
ROOT
HETATM    1  C   UNL     1      26.389  46.486  50.528  1.00  0.00     0.135 C 
HETATM    2  N   UNL     1      26.673  45.343  49.667  1.00  0.00    -0.214 N 
HETATM    3  C   UNL     1      26.825  44.115  50.200  1.00  0.00     0.736 A 
HETATM    4  N   UNL     1      26.483  43.855  51.498  1.00  0.00    -0.074 N 
HETATM    5  N   UNL     1      26.678  42.564  51.814  1.00  0.00     0.037 NA
HETATM    6  C   UNL     1      27.148  42.099  50.657  1.00  0.00     0.753 A 
HETATM    7  N   UNL     1      27.280  43.017  49.657  1.00  0.00     0.131 NA
HETATM    8  C   UNL     1      25.987  44.853  52.433  1.00  0.00     0.164 C 
HETATM    9  C   UNL     1      25.435  46.066  51.665  1.00  0.00     0.063 C 
HETATM   10  H   UNL     1      27.160  45.540  48.795  1.00  0.00     0.178 HD
ENDROOT
BRANCH   1  11
HETATM   11  C   UNL     1      25.773  47.623  49.730  1.00  0.00    -0.035 A 
HETATM   12  C   UNL     1      24.385  47.762  49.583  1.00  0.00     0.012 A 
HETATM   13  C   UNL     1      23.847  48.847  48.886  1.00  0.00     0.037 A 
HETATM   14  C   UNL     1      24.677  49.827  48.343  1.00  0.00     0.068 A 
HETATM   15  C   UNL     1      26.059  49.698  48.478  1.00  0.00     0.037 A 
HETATM   16  C   UNL     1      26.601  48.606  49.167  1.00  0.00     0.012 A 
BRANCH  14  17
HETATM   17  O   UNL     1      24.024  50.844  47.706  1.00  0.00    -0.356 OA
HETATM   18  C   UNL     1      22.748  51.204  48.220  1.00  0.00     0.210 C 
ENDBRANCH  14  17
ENDBRANCH   1  11
BRANCH   8  19
HETATM   19  C   UNL     1      27.024  45.266  53.475  1.00  0.00    -0.031 A 
HETATM   20  C   UNL     1      28.077  44.427  53.883  1.00  0.00     0.028 A 
HETATM   21  C   UNL     1      29.009  44.870  54.824  1.00  0.00     0.011 A 
HETATM   22 BR   UNL     1      30.413  43.721  55.360  1.00  0.00    -0.051 Br
HETATM   23  C   UNL     1      28.918  46.147  55.369  1.00  0.00     0.019 A 
HETATM   24  C   UNL     1      27.886  46.992  54.970  1.00  0.00     0.002 A 
HETATM   25  C   UNL     1      26.948  46.557  54.030  1.00  0.00     0.009 A 
ENDBRANCH   8  19
BRANCH   6  26
HETATM   26  N   UNL     1      27.522  40.844  50.426  1.00  0.00    -0.229 N 
HETATM   27  H   UNL     1      27.458  40.517  49.473  1.00  0.00     0.174 HD
HETATM   28  H   UNL     1      27.282  40.162  51.132  1.00  0.00     0.174 HD
ENDBRANCH   6  26
TORSDOF 4
ENDMDL
MODEL 2
REMARK VINA RESULT:      -8.9      1.492      2.333
REMARK  4 active torsions:
REMARK  status: ('A' for Active; 'I' for Inactive)
REMARK    1  A    between atoms: O_2  and  C_3 
REMARK    2  A    between atoms: C_6  and  C_7 
REMARK    3  A    between atoms: C_12  and  N_13 
REMARK    4  A    between atoms: C_15  and  C_16 
ROOT
HETATM    1  C   UNL     1      26.803  44.939  51.669  1.00  0.00     0.135 C 
HETATM    2  N   UNL     1      27.211  43.780  50.882  1.00  0.00    -0.214 N 
HETATM    3  C   UNL     1      27.706  42.687  51.494  1.00  0.00     0.736 A 
HETATM    4  N   UNL     1      27.617  42.528  52.849  1.00  0.00    -0.074 N 
HETATM    5  N   UNL     1      28.137  41.354  53.247  1.00  0.00     0.037 NA
HETATM    6  C   UNL     1      28.530  40.854  52.077  1.00  0.00     0.753 A 
HETATM    7  N   UNL     1      28.313  41.646  50.987  1.00  0.00     0.131 NA
HETATM    8  C   UNL     1      27.048  43.512  53.757  1.00  0.00     0.164 C 
HETATM    9  C   UNL     1      26.137  44.479  52.981  1.00  0.00     0.063 C 
HETATM   10  H   UNL     1      27.513  43.961  49.928  1.00  0.00     0.178 HD
ENDROOT
BRANCH   1  11
HETATM   11  C   UNL     1      25.843  45.815  50.881  1.00  0.00    -0.035 A 
HETATM   12  C   UNL     1      26.118  47.165  50.611  1.00  0.00     0.012 A 
HETATM   13  C   UNL     1      25.240  47.931  49.841  1.00  0.00     0.037 A 
HETATM   14  C   UNL     1      24.084  47.364  49.304  1.00  0.00     0.068 A 
HETATM   15  C   UNL     1      23.797  46.026  49.568  1.00  0.00     0.037 A 
HETATM   16  C   UNL     1      24.670  45.258  50.349  1.00  0.00     0.012 A 
BRANCH  14  17
HETATM   17  O   UNL     1      23.323  48.215  48.553  1.00  0.00    -0.356 OA
HETATM   18  C   UNL     1      23.856  49.514  48.324  1.00  0.00     0.210 C 
ENDBRANCH  14  17
ENDBRANCH   1  11
BRANCH   8  19
HETATM   19  C   UNL     1      28.104  44.257  54.570  1.00  0.00    -0.031 A 
HETATM   20  C   UNL     1      29.202  43.617  55.173  1.00  0.00     0.028 A 
HETATM   21  C   UNL     1      30.148  44.356  55.885  1.00  0.00     0.011 A 
HETATM   22 BR   UNL     1      31.613  43.470  56.689  1.00  0.00    -0.051 Br
HETATM   23  C   UNL     1      30.026  45.737  56.008  1.00  0.00     0.019 A 
HETATM   24  C   UNL     1      28.949  46.387  55.413  1.00  0.00     0.002 A 
HETATM   25  C   UNL     1      27.997  45.655  54.699  1.00  0.00     0.009 A 
ENDBRANCH   8  19
BRANCH   6  26
HETATM   26  N   UNL     1      29.138  39.684  51.904  1.00  0.00    -0.229 N 
HETATM   27  H   UNL     1      30.063  39.587  52.298  1.00  0.00     0.174 HD
HETATM   28  H   UNL     1      29.001  39.228  51.013  1.00  0.00     0.174 HD
ENDBRANCH   6  26
TORSDOF 4
ENDMDL
MODEL 3
REMARK VINA RESULT:      -8.8      1.308      2.110
REMARK  4 active torsions:
REMARK  status: ('A' for Active; 'I' for Inactive)
REMARK    1  A    between atoms: O_2  and  C_3 
REMARK    2  A    between atoms: C_6  and  C_7 
REMARK    3  A    between atoms: C_12  and  N_13 
REMARK    4  A    between atoms: C_15  and  C_16 
ROOT
HETATM    1  C   UNL     1      26.721  45.410  50.483  1.00  0.00     0.135 C 
HETATM    2  N   UNL     1      26.736  44.433  49.399  1.00  0.00    -0.214 N 
HETATM    3  C   UNL     1      26.863  43.120  49.674  1.00  0.00     0.736 A 
HETATM    4  N   UNL     1      26.735  42.643  50.949  1.00  0.00    -0.074 N 
HETATM    5  N   UNL     1      26.859  41.306  50.994  1.00  0.00     0.037 NA
HETATM    6  C   UNL     1      27.068  41.038  49.707  1.00  0.00     0.753 A 
HETATM    7  N   UNL     1      27.107  42.116  48.872  1.00  0.00     0.131 NA
HETATM    8  C   UNL     1      26.511  43.478  52.120  1.00  0.00     0.164 C 
HETATM    9  C   UNL     1      25.949  44.845  51.692  1.00  0.00     0.063 C 
HETATM   10  H   UNL     1      27.076  44.759  48.498  1.00  0.00     0.178 HD
ENDROOT
BRANCH   1  11
HETATM   11  C   UNL     1      26.084  46.712  50.026  1.00  0.00    -0.035 A 
HETATM   12  C   UNL     1      26.844  47.772  49.511  1.00  0.00     0.012 A 
HETATM   13  C   UNL     1      26.225  48.937  49.051  1.00  0.00     0.037 A 
HETATM   14  C   UNL     1      24.836  49.060  49.073  1.00  0.00     0.068 A 
HETATM   15  C   UNL     1      24.068  48.016  49.586  1.00  0.00     0.037 A 
HETATM   16  C   UNL     1      24.688  46.851  50.057  1.00  0.00     0.012 A 
BRANCH  14  17
HETATM   17  O   UNL     1      24.357  50.239  48.575  1.00  0.00    -0.356 OA
HETATM   18  C   UNL     1      23.169  50.168  47.797  1.00  0.00     0.210 C 
ENDBRANCH  14  17
ENDBRANCH   1  11
BRANCH   8  19
HETATM   19  C   UNL     1      27.752  43.624  52.997  1.00  0.00    -0.031 A 
HETATM   20  C   UNL     1      27.837  44.540  54.061  1.00  0.00     0.028 A 
HETATM   21  C   UNL     1      28.992  44.612  54.842  1.00  0.00     0.011 A 
HETATM   22 BR   UNL     1      29.082  45.855  56.264  1.00  0.00    -0.051 Br
HETATM   23  C   UNL     1      30.075  43.776  54.588  1.00  0.00     0.019 A 
HETATM   24  C   UNL     1      30.005  42.859  53.543  1.00  0.00     0.002 A 
HETATM   25  C   UNL     1      28.853  42.782  52.755  1.00  0.00     0.009 A 
ENDBRANCH   8  19
BRANCH   6  26
HETATM   26  N   UNL     1      27.274  39.828  49.196  1.00  0.00    -0.229 N 
HETATM   27  H   UNL     1      28.211  39.457  49.262  1.00  0.00     0.174 HD
HETATM   28  H   UNL     1      26.785  39.607  48.340  1.00  0.00     0.174 HD
ENDBRANCH   6  26
TORSDOF 4
ENDMDL
MODEL 4
REMARK VINA RESULT:      -8.6      3.861      7.077
REMARK  4 active torsions:
REMARK  status: ('A' for Active; 'I' for Inactive)
REMARK    1  A    between atoms: O_2  and  C_3 
REMARK    2  A    between atoms: C_6  and  C_7 
REMARK    3  A    between atoms: C_12  and  N_13 
REMARK    4  A    between atoms: C_15  and  C_16 
ROOT
HETATM    1  C   UNL     1      27.329  43.716  52.414  1.00  0.00     0.135 C 
HETATM    2  N   UNL     1      27.009  42.305  52.224  1.00  0.00    -0.214 N 
HETATM    3  C   UNL     1      26.542  41.870  51.036  1.00  0.00     0.736 A 
HETATM    4  N   UNL     1      26.586  42.661  49.922  1.00  0.00    -0.074 N 
HETATM    5  N   UNL     1      26.108  42.023  48.841  1.00  0.00     0.037 NA
HETATM    6  C   UNL     1      25.784  40.847  49.376  1.00  0.00     0.753 A 
HETATM    7  N   UNL     1      26.006  40.722  50.717  1.00  0.00     0.131 NA
HETATM    8  C   UNL     1      27.072  44.033  49.905  1.00  0.00     0.164 C 
HETATM    9  C   UNL     1      27.965  44.290  51.131  1.00  0.00     0.063 C 
HETATM   10  H   UNL     1      26.736  41.785  53.054  1.00  0.00     0.178 HD
ENDROOT
BRANCH   1  11
HETATM   11  C   UNL     1      28.276  43.900  53.587  1.00  0.00    -0.035 A 
HETATM   12  C   UNL     1      29.318  42.999  53.852  1.00  0.00     0.012 A 
HETATM   13  C   UNL     1      30.204  43.223  54.909  1.00  0.00     0.037 A 
HETATM   14  C   UNL     1      30.086  44.361  55.707  1.00  0.00     0.068 A 
HETATM   15  C   UNL     1      29.053  45.263  55.457  1.00  0.00     0.037 A 
HETATM   16  C   UNL     1      28.156  45.034  54.406  1.00  0.00     0.012 A 
BRANCH  14  17
HETATM   17  O   UNL     1      31.028  44.471  56.691  1.00  0.00    -0.356 OA
HETATM   18  C   UNL     1      31.642  43.264  57.126  1.00  0.00     0.210 C 
ENDBRANCH  14  17
ENDBRANCH   1  11
BRANCH   8  19
HETATM   19  C   UNL     1      25.951  45.064  49.795  1.00  0.00    -0.031 A 
HETATM   20  C   UNL     1      24.670  44.755  49.300  1.00  0.00     0.028 A 
HETATM   21  C   UNL     1      23.678  45.735  49.244  1.00  0.00     0.011 A 
HETATM   22 BR   UNL     1      21.966  45.296  48.571  1.00  0.00    -0.051 Br
HETATM   23  C   UNL     1      23.934  47.032  49.681  1.00  0.00     0.019 A 
HETATM   24  C   UNL     1      25.194  47.352  50.180  1.00  0.00     0.002 A 
HETATM   25  C   UNL     1      26.193  46.377  50.238  1.00  0.00     0.009 A 
ENDBRANCH   8  19
BRANCH   6  26
HETATM   26  N   UNL     1      25.240  39.826  48.722  1.00  0.00    -0.229 N 
HETATM   27  H   UNL     1      25.593  39.637  47.794  1.00  0.00     0.174 HD
HETATM   28  H   UNL     1      24.246  39.689  48.838  1.00  0.00     0.174 HD
ENDBRANCH   6  26
TORSDOF 4
ENDMDL
MODEL 5
REMARK VINA RESULT:      -8.6      4.562      7.328
REMARK  4 active torsions:
REMARK  status: ('A' for Active; 'I' for Inactive)
REMARK    1  A    between atoms: O_2  and  C_3 
REMARK    2  A    between atoms: C_6  and  C_7 
REMARK    3  A    between atoms: C_12  and  N_13 
REMARK    4  A    between atoms: C_15  and  C_16 
ROOT
HETATM    1  C   UNL     1      27.921  43.467  52.453  1.00  0.00     0.135 C 
HETATM    2  N   UNL     1      26.839  44.424  52.245  1.00  0.00    -0.214 N 
HETATM    3  C   UNL     1      25.752  44.073  51.531  1.00  0.00     0.736 A 
HETATM    4  N   UNL     1      25.511  42.769  51.195  1.00  0.00    -0.074 N 
HETATM    5  N   UNL     1      24.358  42.635  50.519  1.00  0.00     0.037 NA
HETATM    6  C   UNL     1      23.954  43.903  50.475  1.00  0.00     0.753 A 
HETATM    7  N   UNL     1      24.787  44.815  51.054  1.00  0.00     0.131 NA
HETATM    8  C   UNL     1      26.400  41.661  51.511  1.00  0.00     0.164 C 
HETATM    9  C   UNL     1      27.341  42.053  52.663  1.00  0.00     0.063 C 
HETATM   10  H   UNL     1      27.095  45.409  52.257  1.00  0.00     0.178 HD
ENDROOT
BRANCH   1  11
HETATM   11  C   UNL     1      28.768  43.862  53.650  1.00  0.00    -0.035 A 
HETATM   12  C   UNL     1      28.442  44.958  54.463  1.00  0.00     0.012 A 
HETATM   13  C   UNL     1      29.212  45.266  55.588  1.00  0.00     0.037 A 
HETATM   14  C   UNL     1      30.306  44.475  55.939  1.00  0.00     0.068 A 
HETATM   15  C   UNL     1      30.643  43.385  55.138  1.00  0.00     0.037 A 
HETATM   16  C   UNL     1      29.879  43.081  54.004  1.00  0.00     0.012 A 
BRANCH  14  17
HETATM   17  O   UNL     1      30.960  44.871  57.072  1.00  0.00    -0.356 OA
HETATM   18  C   UNL     1      30.330  45.879  57.853  1.00  0.00     0.210 C 
ENDBRANCH  14  17
ENDBRANCH   1  11
BRANCH   8  19
HETATM   19  C   UNL     1      27.173  41.149  50.298  1.00  0.00    -0.031 A 
HETATM   20  C   UNL     1      28.049  40.049  50.353  1.00  0.00     0.028 A 
HETATM   21  C   UNL     1      28.710  39.613  49.204  1.00  0.00     0.011 A 
HETATM   22 BR   UNL     1      29.885  38.135  49.306  1.00  0.00    -0.051 Br
HETATM   23  C   UNL     1      28.511  40.252  47.984  1.00  0.00     0.019 A 
HETATM   24  C   UNL     1      27.643  41.338  47.911  1.00  0.00     0.002 A 
HETATM   25  C   UNL     1      26.978  41.781  49.056  1.00  0.00     0.009 A 
ENDBRANCH   8  19
BRANCH   6  26
HETATM   26  N   UNL     1      22.842  44.337  49.889  1.00  0.00    -0.229 N 
HETATM   27  H   UNL     1      22.150  43.642  49.650  1.00  0.00     0.174 HD
HETATM   28  H   UNL     1      22.945  45.088  49.220  1.00  0.00     0.174 HD
ENDBRANCH   6  26
TORSDOF 4
ENDMDL
MODEL 6
REMARK VINA RESULT:      -8.3      4.114      7.274
REMARK  4 active torsions:
REMARK  status: ('A' for Active; 'I' for Inactive)
REMARK    1  A    between atoms: O_2  and  C_3 
REMARK    2  A    between atoms: C_6  and  C_7 
REMARK    3  A    between atoms: C_12  and  N_13 
REMARK    4  A    between atoms: C_15  and  C_16 
ROOT
HETATM    1  C   UNL     1      26.916  44.747  51.263  1.00  0.00     0.135 C 
HETATM    2  N   UNL     1      27.317  45.010  52.641  1.00  0.00    -0.214 N 
HETATM    3  C   UNL     1      26.803  46.063  53.306  1.00  0.00     0.736 A 
HETATM    4  N   UNL     1      25.731  46.759  52.819  1.00  0.00    -0.074 N 
HETATM    5  N   UNL     1      25.356  47.742  53.654  1.00  0.00     0.037 NA
HETATM    6  C   UNL     1      26.252  47.588  54.628  1.00  0.00     0.753 A 
HETATM    7  N   UNL     1      27.169  46.595  54.442  1.00  0.00     0.131 NA
HETATM    8  C   UNL     1      25.084  46.486  51.544  1.00  0.00     0.164 C 
HETATM    9  C   UNL     1      25.416  45.057  51.081  1.00  0.00     0.063 C 
HETATM   10  H   UNL     1      28.242  44.688  52.914  1.00  0.00     0.178 HD
ENDROOT
BRANCH   1  11
HETATM   11  C   UNL     1      27.194  43.301  50.886  1.00  0.00    -0.035 A 
HETATM   12  C   UNL     1      26.880  42.789  49.618  1.00  0.00     0.012 A 
HETATM   13  C   UNL     1      27.195  41.469  49.285  1.00  0.00     0.037 A 
HETATM   14  C   UNL     1      27.849  40.641  50.197  1.00  0.00     0.068 A 
HETATM   15  C   UNL     1      28.163  41.137  51.462  1.00  0.00     0.037 A 
HETATM   16  C   UNL     1      27.839  42.456  51.802  1.00  0.00     0.012 A 
BRANCH  14  17
HETATM   17  O   UNL     1      28.118  39.382  49.739  1.00  0.00    -0.356 OA
HETATM   18  C   UNL     1      26.998  38.541  49.489  1.00  0.00     0.210 C 
ENDBRANCH  14  17
ENDBRANCH   1  11
BRANCH   8  19
HETATM   19  C   UNL     1      25.414  47.521  50.472  1.00  0.00    -0.031 A 
HETATM   20  C   UNL     1      24.430  48.242  49.771  1.00  0.00     0.028 A 
HETATM   21  C   UNL     1      24.795  49.193  48.817  1.00  0.00     0.011 A 
HETATM   22 BR   UNL     1      23.452  50.145  47.886  1.00  0.00    -0.051 Br
HETATM   23  C   UNL     1      26.135  49.450  48.545  1.00  0.00     0.019 A 
HETATM   24  C   UNL     1      27.122  48.749  49.234  1.00  0.00     0.002 A 
HETATM   25  C   UNL     1      26.765  47.795  50.190  1.00  0.00     0.009 A 
ENDBRANCH   8  19
BRANCH   6  26
HETATM   26  N   UNL     1      26.336  48.338  55.723  1.00  0.00    -0.229 N 
HETATM   27  H   UNL     1      26.592  47.869  56.579  1.00  0.00     0.174 HD
HETATM   28  H   UNL     1      25.650  49.073  55.824  1.00  0.00     0.174 HD
ENDBRANCH   6  26
TORSDOF 4
ENDMDL
MODEL 7
REMARK VINA RESULT:      -8.2      1.493      1.751
REMARK  4 active torsions:
REMARK  status: ('A' for Active; 'I' for Inactive)
REMARK    1  A    between atoms: O_2  and  C_3 
REMARK    2  A    between atoms: C_6  and  C_7 
REMARK    3  A    between atoms: C_12  and  N_13 
REMARK    4  A    between atoms: C_15  and  C_16 
ROOT
HETATM    1  C   UNL     1      25.704  45.200  50.619  1.00  0.00     0.135 C 
HETATM    2  N   UNL     1      26.241  44.222  49.679  1.00  0.00    -0.214 N 
HETATM    3  C   UNL     1      26.841  43.104  50.133  1.00  0.00     0.736 A 
HETATM    4  N   UNL     1      26.752  42.732  51.446  1.00  0.00    -0.074 N 
HETATM    5  N   UNL     1      27.388  41.571  51.677  1.00  0.00     0.037 NA
HETATM    6  C   UNL     1      27.847  41.298  50.457  1.00  0.00     0.753 A 
HETATM    7  N   UNL     1      27.560  42.220  49.493  1.00  0.00     0.131 NA
HETATM    8  C   UNL     1      26.072  43.504  52.475  1.00  0.00     0.164 C 
HETATM    9  C   UNL     1      25.074  44.479  51.828  1.00  0.00     0.063 C 
HETATM   10  H   UNL     1      26.534  44.576  48.771  1.00  0.00     0.178 HD
ENDROOT
BRANCH   1  11
HETATM   11  C   UNL     1      24.667  46.083  49.946  1.00  0.00    -0.035 A 
HETATM   12  C   UNL     1      23.666  45.555  49.116  1.00  0.00     0.012 A 
HETATM   13  C   UNL     1      22.696  46.387  48.552  1.00  0.00     0.037 A 
HETATM   14  C   UNL     1      22.688  47.756  48.821  1.00  0.00     0.068 A 
HETATM   15  C   UNL     1      23.679  48.294  49.640  1.00  0.00     0.037 A 
HETATM   16  C   UNL     1      24.660  47.463  50.198  1.00  0.00     0.012 A 
BRANCH  14  17
HETATM   17  O   UNL     1      21.674  48.451  48.226  1.00  0.00    -0.356 OA
HETATM   18  C   UNL     1      21.264  49.655  48.863  1.00  0.00     0.210 C 
ENDBRANCH  14  17
ENDBRANCH   1  11
BRANCH   8  19
HETATM   19  C   UNL     1      27.033  44.220  53.421  1.00  0.00    -0.031 A 
HETATM   20  C   UNL     1      28.211  43.627  53.912  1.00  0.00     0.028 A 
HETATM   21  C   UNL     1      29.063  44.341  54.756  1.00  0.00     0.011 A 
HETATM   22 BR   UNL     1      30.637  43.520  55.407  1.00  0.00    -0.051 Br
HETATM   23  C   UNL     1      28.768  45.652  55.122  1.00  0.00     0.019 A 
HETATM   24  C   UNL     1      27.609  46.255  54.639  1.00  0.00     0.002 A 
HETATM   25  C   UNL     1      26.751  45.547  53.794  1.00  0.00     0.009 A 
ENDBRANCH   8  19
BRANCH   6  26
HETATM   26  N   UNL     1      28.576  40.237  50.128  1.00  0.00    -0.229 N 
HETATM   27  H   UNL     1      29.166  40.322  49.312  1.00  0.00     0.174 HD
HETATM   28  H   UNL     1      28.143  39.332  50.251  1.00  0.00     0.174 HD
ENDBRANCH   6  26
TORSDOF 4
ENDMDL
MODEL 8
REMARK VINA RESULT:      -7.9      6.400      9.521
REMARK  4 active torsions:
REMARK  status: ('A' for Active; 'I' for Inactive)
REMARK    1  A    between atoms: O_2  and  C_3 
REMARK    2  A    between atoms: C_6  and  C_7 
REMARK    3  A    between atoms: C_12  and  N_13 
REMARK    4  A    between atoms: C_15  and  C_16 
ROOT
HETATM    1  C   UNL     1      21.535  49.083  48.677  1.00  0.00     0.135 C 
HETATM    2  N   UNL     1      21.107  47.707  48.903  1.00  0.00    -0.214 N 
HETATM    3  C   UNL     1      19.862  47.320  48.563  1.00  0.00     0.736 A 
HETATM    4  N   UNL     1      19.058  48.109  47.787  1.00  0.00    -0.074 N 
HETATM    5  N   UNL     1      17.878  47.519  47.536  1.00  0.00     0.037 NA
HETATM    6  C   UNL     1      18.032  46.374  48.198  1.00  0.00     0.753 A 
HETATM    7  N   UNL     1      19.215  46.224  48.861  1.00  0.00     0.131 NA
HETATM    8  C   UNL     1      19.423  49.433  47.307  1.00  0.00     0.164 C 
HETATM    9  C   UNL     1      20.951  49.606  47.349  1.00  0.00     0.063 C 
HETATM   10  H   UNL     1      21.562  47.209  49.665  1.00  0.00     0.178 HD
ENDROOT
BRANCH   1  11
HETATM   11  C   UNL     1      23.050  49.180  48.649  1.00  0.00    -0.035 A 
HETATM   12  C   UNL     1      23.720  50.156  47.896  1.00  0.00     0.012 A 
HETATM   13  C   UNL     1      25.113  50.252  47.930  1.00  0.00     0.037 A 
HETATM   14  C   UNL     1      25.866  49.395  48.733  1.00  0.00     0.068 A 
HETATM   15  C   UNL     1      25.213  48.417  49.483  1.00  0.00     0.037 A 
HETATM   16  C   UNL     1      23.817  48.312  49.441  1.00  0.00     0.012 A 
BRANCH  14  17
HETATM   17  O   UNL     1      27.215  49.608  48.693  1.00  0.00    -0.356 OA
HETATM   18  C   UNL     1      28.043  48.544  49.145  1.00  0.00     0.210 C 
ENDBRANCH  14  17
ENDBRANCH   1  11
BRANCH   8  19
HETATM   19  C   UNL     1      18.705  50.558  48.049  1.00  0.00    -0.031 A 
HETATM   20  C   UNL     1      17.464  51.079  47.638  1.00  0.00     0.028 A 
HETATM   21  C   UNL     1      16.845  52.093  48.372  1.00  0.00     0.011 A 
HETATM   22 BR   UNL     1      15.180  52.779  47.796  1.00  0.00    -0.051 Br
HETATM   23  C   UNL     1      17.439  52.602  49.523  1.00  0.00     0.019 A 
HETATM   24  C   UNL     1      18.664  52.093  49.946  1.00  0.00     0.002 A 
HETATM   25  C   UNL     1      19.291  51.079  49.217  1.00  0.00     0.009 A 
ENDBRANCH   8  19
BRANCH   6  26
HETATM   26  N   UNL     1      17.124  45.407  48.286  1.00  0.00    -0.229 N 
HETATM   27  H   UNL     1      17.391  44.574  48.791  1.00  0.00     0.174 HD
HETATM   28  H   UNL     1      16.548  45.248  47.471  1.00  0.00     0.174 HD
ENDBRANCH   6  26
TORSDOF 4
ENDMDL
MODEL 9
REMARK VINA RESULT:      -7.9      4.753      7.275
REMARK  4 active torsions:
REMARK  status: ('A' for Active; 'I' for Inactive)
REMARK    1  A    between atoms: O_2  and  C_3 
REMARK    2  A    between atoms: C_6  and  C_7 
REMARK    3  A    between atoms: C_12  and  N_13 
REMARK    4  A    between atoms: C_15  and  C_16 
ROOT
HETATM    1  C   UNL     1      27.809  42.701  52.429  1.00  0.00     0.135 C 
HETATM    2  N   UNL     1      28.443  41.419  52.138  1.00  0.00    -0.214 N 
HETATM    3  C   UNL     1      28.296  40.851  50.925  1.00  0.00     0.736 A 
HETATM    4  N   UNL     1      27.773  41.549  49.871  1.00  0.00    -0.074 N 
HETATM    5  N   UNL     1      27.752  40.810  48.749  1.00  0.00     0.037 NA
HETATM    6  C   UNL     1      28.272  39.669  49.199  1.00  0.00     0.753 A 
HETATM    7  N   UNL     1      28.591  39.642  50.525  1.00  0.00     0.131 NA
HETATM    8  C   UNL     1      27.281  42.916  49.952  1.00  0.00     0.164 C 
HETATM    9  C   UNL     1      27.872  43.615  51.189  1.00  0.00     0.063 C 
HETATM   10  H   UNL     1      28.602  40.801  52.930  1.00  0.00     0.178 HD
ENDROOT
BRANCH   1  11
HETATM   11  C   UNL     1      28.484  43.382  53.608  1.00  0.00    -0.035 A 
HETATM   12  C   UNL     1      29.677  42.896  54.164  1.00  0.00     0.012 A 
HETATM   13  C   UNL     1      30.301  43.573  55.214  1.00  0.00     0.037 A 
HETATM   14  C   UNL     1      29.765  44.759  55.715  1.00  0.00     0.068 A 
HETATM   15  C   UNL     1      28.577  45.251  55.175  1.00  0.00     0.037 A 
HETATM   16  C   UNL     1      27.944  44.568  54.129  1.00  0.00     0.012 A 
BRANCH  14  17
HETATM   17  O   UNL     1      30.484  45.332  56.727  1.00  0.00    -0.356 OA
HETATM   18  C   UNL     1      31.091  44.446  57.659  1.00  0.00     0.210 C 
ENDBRANCH  14  17
ENDBRANCH   1  11
BRANCH   8  19
HETATM   19  C   UNL     1      25.758  43.006  49.924  1.00  0.00    -0.031 A 
HETATM   20  C   UNL     1      24.954  42.182  49.115  1.00  0.00     0.028 A 
HETATM   21  C   UNL     1      23.564  42.296  49.149  1.00  0.00     0.011 A 
HETATM   22 BR   UNL     1      22.507  41.179  48.049  1.00  0.00    -0.051 Br
HETATM   23  C   UNL     1      22.946  43.220  49.987  1.00  0.00     0.019 A 
HETATM   24  C   UNL     1      23.727  44.039  50.798  1.00  0.00     0.002 A 
HETATM   25  C   UNL     1      25.119  43.932  50.769  1.00  0.00     0.009 A 
ENDBRANCH   8  19
BRANCH   6  26
HETATM   26  N   UNL     1      28.463  38.571  48.475  1.00  0.00    -0.229 N 
HETATM   27  H   UNL     1      28.518  38.688  47.473  1.00  0.00     0.174 HD
HETATM   28  H   UNL     1      27.987  37.734  48.784  1.00  0.00     0.174 HD
ENDBRANCH   6  26
TORSDOF 4
ENDMDL
MODEL 10
REMARK VINA RESULT:      -7.6      7.328     11.353
REMARK  4 active torsions:
REMARK  status: ('A' for Active; 'I' for Inactive)
REMARK    1  A    between atoms: O_2  and  C_3 
REMARK    2  A    between atoms: C_6  and  C_7 
REMARK    3  A    between atoms: C_12  and  N_13 
REMARK    4  A    between atoms: C_15  and  C_16 
ROOT
HETATM    1  C   UNL     1      20.803  50.459  47.945  1.00  0.00     0.135 C 
HETATM    2  N   UNL     1      20.328  51.321  49.022  1.00  0.00    -0.214 N 
HETATM    3  C   UNL     1      19.009  51.542  49.180  1.00  0.00     0.736 A 
HETATM    4  N   UNL     1      18.077  50.793  48.517  1.00  0.00    -0.074 N 
HETATM    5  N   UNL     1      16.825  51.153  48.847  1.00  0.00     0.037 NA
HETATM    6  C   UNL     1      17.074  52.133  49.714  1.00  0.00     0.753 A 
HETATM    7  N   UNL     1      18.390  52.421  49.924  1.00  0.00     0.131 NA
HETATM    8  C   UNL     1      18.394  49.748  47.555  1.00  0.00     0.164 C 
HETATM    9  C   UNL     1      19.841  49.268  47.759  1.00  0.00     0.063 C 
HETATM   10  H   UNL     1      20.968  52.046  49.339  1.00  0.00     0.178 HD
ENDROOT
BRANCH   1  11
HETATM   11  C   UNL     1      22.204  49.950  48.238  1.00  0.00    -0.035 A 
HETATM   12  C   UNL     1      23.349  50.602  47.755  1.00  0.00     0.012 A 
HETATM   13  C   UNL     1      24.625  50.140  48.084  1.00  0.00     0.037 A 
HETATM   14  C   UNL     1      24.789  49.035  48.921  1.00  0.00     0.068 A 
HETATM   15  C   UNL     1      23.660  48.376  49.404  1.00  0.00     0.037 A 
HETATM   16  C   UNL     1      22.379  48.831  49.066  1.00  0.00     0.012 A 
BRANCH  14  17
HETATM   17  O   UNL     1      26.088  48.700  49.181  1.00  0.00    -0.356 OA
HETATM   18  C   UNL     1      26.300  47.635  50.099  1.00  0.00     0.210 C 
ENDBRANCH  14  17
ENDBRANCH   1  11
BRANCH   8  19
HETATM   19  C   UNL     1      18.134  50.166  46.110  1.00  0.00    -0.031 A 
HETATM   20  C   UNL     1      17.642  51.435  45.754  1.00  0.00     0.028 A 
HETATM   21  C   UNL     1      17.446  51.767  44.412  1.00  0.00     0.011 A 
HETATM   22 BR   UNL     1      16.779  53.478  43.960  1.00  0.00    -0.051 Br
HETATM   23  C   UNL     1      17.738  50.853  43.404  1.00  0.00     0.019 A 
HETATM   24  C   UNL     1      18.232  49.595  43.738  1.00  0.00     0.002 A 
HETATM   25  C   UNL     1      18.430  49.255  45.079  1.00  0.00     0.009 A 
ENDBRANCH   8  19
BRANCH   6  26
HETATM   26  N   UNL     1      16.153  52.856  50.344  1.00  0.00    -0.229 N 
HETATM   27  H   UNL     1      16.324  53.065  51.317  1.00  0.00     0.174 HD
HETATM   28  H   UNL     1      15.189  52.669  50.108  1.00  0.00     0.174 HD
ENDBRANCH   6  26
TORSDOF 4
ENDMDL
