MODEL 1
REMARK VINA RESULT:      -9.9      0.000      0.000
REMARK  5 active torsions:
REMARK  status: ('A' for Active; 'I' for Inactive)
REMARK    1  A    between atoms: C_7  and  C_8 
REMARK    2  A    between atoms: C_16  and  C_17 
REMARK    3  A    between atoms: C_20  and  O_21 
REMARK    4  A    between atoms: C_24  and  C_25 
REMARK       I    between atoms: C_25  and  N_26 
REMARK    5  A    between atoms: N_26  and  C_27 
ROOT
HETATM    1  C   UNL     1      25.392  40.911  49.266  1.00  0.00     0.070 C 
HETATM    2  C   UNL     1      25.766  42.021  50.218  1.00  0.00     0.037 C 
HETATM    3  N   UNL     1      27.005  41.886  50.845  1.00  0.00    -0.192 N 
HETATM    4  C   UNL     1      27.383  42.658  51.885  1.00  0.00     0.726 A 
HETATM    5  N   UNL     1      26.616  43.731  52.225  1.00  0.00    -0.083 N 
HETATM    6  N   UNL     1      27.098  44.366  53.310  1.00  0.00    -0.135 NA
HETATM    7  C   UNL     1      28.195  43.631  53.575  1.00  0.00     0.200 A 
HETATM    8  N   UNL     1      28.398  42.578  52.702  1.00  0.00    -0.041 NA
HETATM    9  C   UNL     1      25.444  44.174  51.467  1.00  0.00     0.202 C 
HETATM   10  C   UNL     1      24.980  43.096  50.491  1.00  0.00     0.062 C 
HETATM   11  H   UNL     1      27.510  41.017  50.690  1.00  0.00     0.184 HD
ENDROOT
BRANCH  10  12
HETATM   12  C   UNL     1      23.562  43.136  50.025  1.00  0.00     0.256 C 
HETATM   13  N   UNL     1      23.371  43.795  48.830  1.00  0.00    -0.323 N 
HETATM   14  H   UNL     1      24.180  44.157  48.344  1.00  0.00     0.169 HD
HETATM   15  O   UNL     1      22.690  42.637  50.726  1.00  0.00    -0.267 OA
BRANCH  13  16
HETATM   16  C   UNL     1      22.144  44.043  48.177  1.00  0.00     0.035 A 
HETATM   17  C   UNL     1      21.197  44.973  48.610  1.00  0.00     0.029 A 
HETATM   18  C   UNL     1      20.006  45.154  47.901  1.00  0.00     0.002 A 
HETATM   19  C   UNL     1      19.755  44.416  46.746  1.00  0.00     0.000 A 
HETATM   20  C   UNL     1      20.694  43.487  46.304  1.00  0.00     0.002 A 
HETATM   21  C   UNL     1      21.878  43.297  47.020  1.00  0.00     0.029 A 
ENDBRANCH  13  16
ENDBRANCH  10  12
BRANCH   9  22
HETATM   22  C   UNL     1      25.784  45.502  50.788  1.00  0.00    -0.028 A 
HETATM   23  C   UNL     1      26.936  45.652  49.990  1.00  0.00     0.012 A 
HETATM   24  C   UNL     1      27.229  46.875  49.381  1.00  0.00     0.037 A 
HETATM   25  C   UNL     1      26.378  47.956  49.576  1.00  0.00     0.065 A 
HETATM   26  C   UNL     1      25.244  47.836  50.368  1.00  0.00     0.037 A 
HETATM   27  C   UNL     1      24.947  46.615  50.976  1.00  0.00     0.012 A 
BRANCH  25  28
HETATM   28  O   UNL     1      26.630  49.169  49.007  1.00  0.00    -0.361 OA
HETATM   29  H   UNL     1      25.868  49.750  49.162  1.00  0.00     0.217 HD
ENDBRANCH  25  28
ENDBRANCH   9  22
BRANCH   7  30
HETATM   30  C   UNL     1      29.135  43.978  54.632  1.00  0.00     0.036 A 
HETATM   31  C   UNL     1      29.134  45.220  55.285  1.00  0.00     0.048 A 
HETATM   32 CL   UNL     1      28.066  46.513  54.859  1.00  0.00    -0.083 Cl
HETATM   33  C   UNL     1      30.060  45.478  56.305  1.00  0.00     0.025 A 
HETATM   34  C   UNL     1      30.991  44.510  56.682  1.00  0.00     0.002 A 
HETATM   35  C   UNL     1      31.008  43.278  56.035  1.00  0.00     0.001 A 
HETATM   36  C   UNL     1      30.090  43.017  55.018  1.00  0.00     0.017 A 
ENDBRANCH   7  30
TORSDOF 5
ENDMDL
MODEL 2
REMARK VINA RESULT:      -9.9      2.186      3.123
REMARK  5 active torsions:
REMARK  status: ('A' for Active; 'I' for Inactive)
REMARK    1  A    between atoms: C_7  and  C_8 
REMARK    2  A    between atoms: C_16  and  C_17 
REMARK    3  A    between atoms: C_20  and  O_21 
REMARK    4  A    between atoms: C_24  and  C_25 
REMARK       I    between atoms: C_25  and  N_26 
REMARK    5  A    between atoms: N_26  and  C_27 
ROOT
HETATM    1  C   UNL     1      23.536  43.509  47.928  1.00  0.00     0.070 C 
HETATM    2  C   UNL     1      24.092  44.490  48.931  1.00  0.00     0.037 C 
HETATM    3  N   UNL     1      25.143  44.019  49.718  1.00  0.00    -0.192 N 
HETATM    4  C   UNL     1      25.592  44.679  50.805  1.00  0.00     0.726 A 
HETATM    5  N   UNL     1      25.137  45.940  51.048  1.00  0.00    -0.083 N 
HETATM    6  N   UNL     1      25.638  46.440  52.193  1.00  0.00    -0.135 NA
HETATM    7  C   UNL     1      26.426  45.426  52.597  1.00  0.00     0.200 A 
HETATM    8  N   UNL     1      26.423  44.332  51.750  1.00  0.00    -0.041 NA
HETATM    9  C   UNL     1      24.257  46.682  50.143  1.00  0.00     0.202 C 
HETATM   10  C   UNL     1      23.629  45.756  49.105  1.00  0.00     0.062 C 
HETATM   11  H   UNL     1      25.386  43.036  49.625  1.00  0.00     0.184 HD
ENDROOT
BRANCH  10  12
HETATM   12  C   UNL     1      22.359  46.195  48.452  1.00  0.00     0.256 C 
HETATM   13  N   UNL     1      21.216  45.879  49.152  1.00  0.00    -0.323 N 
HETATM   14  H   UNL     1      21.310  45.426  50.050  1.00  0.00     0.169 HD
HETATM   15  O   UNL     1      22.412  46.749  47.359  1.00  0.00    -0.267 OA
BRANCH  13  16
HETATM   16  C   UNL     1      19.880  46.111  48.759  1.00  0.00     0.035 A 
HETATM   17  C   UNL     1      19.114  45.215  48.011  1.00  0.00     0.029 A 
HETATM   18  C   UNL     1      17.796  45.527  47.665  1.00  0.00     0.002 A 
HETATM   19  C   UNL     1      17.228  46.732  48.071  1.00  0.00     0.000 A 
HETATM   20  C   UNL     1      17.982  47.633  48.818  1.00  0.00     0.002 A 
HETATM   21  C   UNL     1      19.303  47.327  49.154  1.00  0.00     0.029 A 
ENDBRANCH  13  16
ENDBRANCH  10  12
BRANCH   9  22
HETATM   22  C   UNL     1      25.059  47.830  49.526  1.00  0.00    -0.028 A 
HETATM   23  C   UNL     1      26.468  47.824  49.509  1.00  0.00     0.012 A 
HETATM   24  C   UNL     1      27.180  48.884  48.943  1.00  0.00     0.037 A 
HETATM   25  C   UNL     1      26.488  49.960  48.403  1.00  0.00     0.065 A 
HETATM   26  C   UNL     1      25.099  49.996  48.420  1.00  0.00     0.037 A 
HETATM   27  C   UNL     1      24.384  48.937  48.982  1.00  0.00     0.012 A 
BRANCH  25  28
HETATM   28  O   UNL     1      27.143  51.019  47.847  1.00  0.00    -0.361 OA
HETATM   29  H   UNL     1      27.904  51.244  48.407  1.00  0.00     0.217 HD
ENDBRANCH  25  28
ENDBRANCH   9  22
BRANCH   7  30
HETATM   30  C   UNL     1      27.280  45.516  53.774  1.00  0.00     0.036 A 
HETATM   31  C   UNL     1      27.164  46.534  54.731  1.00  0.00     0.048 A 
HETATM   32 CL   UNL     1      26.045  47.847  54.587  1.00  0.00    -0.083 Cl
HETATM   33  C   UNL     1      28.011  46.549  55.848  1.00  0.00     0.025 A 
HETATM   34  C   UNL     1      28.977  45.557  56.021  1.00  0.00     0.002 A 
HETATM   35  C   UNL     1      29.107  44.547  55.073  1.00  0.00     0.001 A 
HETATM   36  C   UNL     1      28.268  44.529  53.958  1.00  0.00     0.017 A 
ENDBRANCH   7  30
TORSDOF 5
ENDMDL
MODEL 3
REMARK VINA RESULT:      -9.8      4.344      9.542
REMARK  5 active torsions:
REMARK  status: ('A' for Active; 'I' for Inactive)
REMARK    1  A    between atoms: C_7  and  C_8 
REMARK    2  A    between atoms: C_16  and  C_17 
REMARK    3  A    between atoms: C_20  and  O_21 
REMARK    4  A    between atoms: C_24  and  C_25 
REMARK       I    between atoms: C_25  and  N_26 
REMARK    5  A    between atoms: N_26  and  C_27 
ROOT
HETATM    1  C   UNL     1      27.440  48.697  49.134  1.00  0.00     0.070 C 
HETATM    2  C   UNL     1      25.946  48.482  49.171  1.00  0.00     0.037 C 
HETATM    3  N   UNL     1      25.190  49.364  48.401  1.00  0.00    -0.192 N 
HETATM    4  C   UNL     1      23.849  49.456  48.505  1.00  0.00     0.726 A 
HETATM    5  N   UNL     1      23.177  48.533  49.249  1.00  0.00    -0.083 N 
HETATM    6  N   UNL     1      21.858  48.792  49.296  1.00  0.00    -0.135 NA
HETATM    7  C   UNL     1      21.782  49.894  48.526  1.00  0.00     0.200 A 
HETATM    8  N   UNL     1      22.996  50.316  48.017  1.00  0.00    -0.041 NA
HETATM    9  C   UNL     1      23.810  47.368  49.872  1.00  0.00     0.202 C 
HETATM   10  C   UNL     1      25.329  47.514  49.899  1.00  0.00     0.062 C 
HETATM   11  H   UNL     1      25.686  50.134  47.957  1.00  0.00     0.184 HD
ENDROOT
BRANCH  10  12
HETATM   12  C   UNL     1      26.091  46.723  50.911  1.00  0.00     0.256 C 
HETATM   13  N   UNL     1      25.947  47.162  52.208  1.00  0.00    -0.323 N 
HETATM   14  H   UNL     1      25.323  47.936  52.389  1.00  0.00     0.169 HD
HETATM   15  O   UNL     1      26.799  45.797  50.531  1.00  0.00    -0.267 OA
BRANCH  13  16
HETATM   16  C   UNL     1      26.587  46.653  53.359  1.00  0.00     0.035 A 
HETATM   17  C   UNL     1      26.594  45.306  53.724  1.00  0.00     0.029 A 
HETATM   18  C   UNL     1      27.254  44.889  54.884  1.00  0.00     0.002 A 
HETATM   19  C   UNL     1      27.922  45.814  55.684  1.00  0.00     0.000 A 
HETATM   20  C   UNL     1      27.922  47.160  55.329  1.00  0.00     0.002 A 
HETATM   21  C   UNL     1      27.253  47.578  54.177  1.00  0.00     0.029 A 
ENDBRANCH  13  16
ENDBRANCH  10  12
BRANCH   9  22
HETATM   22  C   UNL     1      23.333  46.113  49.139  1.00  0.00    -0.028 A 
HETATM   23  C   UNL     1      22.754  46.179  47.856  1.00  0.00     0.012 A 
HETATM   24  C   UNL     1      22.324  45.021  47.205  1.00  0.00     0.037 A 
HETATM   25  C   UNL     1      22.459  43.791  47.839  1.00  0.00     0.065 A 
HETATM   26  C   UNL     1      23.014  43.702  49.109  1.00  0.00     0.037 A 
HETATM   27  C   UNL     1      23.448  44.857  49.761  1.00  0.00     0.012 A 
BRANCH  25  28
HETATM   28  O   UNL     1      22.045  42.637  47.244  1.00  0.00    -0.361 OA
HETATM   29  H   UNL     1      21.248  42.319  47.699  1.00  0.00     0.217 HD
ENDBRANCH  25  28
ENDBRANCH   9  22
BRANCH   7  30
HETATM   30  C   UNL     1      20.514  50.525  48.183  1.00  0.00     0.036 A 
HETATM   31  C   UNL     1      19.534  49.904  47.396  1.00  0.00     0.048 A 
HETATM   32 CL   UNL     1      19.746  48.345  46.674  1.00  0.00    -0.083 Cl
HETATM   33  C   UNL     1      18.330  50.567  47.119  1.00  0.00     0.025 A 
HETATM   34  C   UNL     1      18.093  51.848  47.619  1.00  0.00     0.002 A 
HETATM   35  C   UNL     1      19.063  52.478  48.393  1.00  0.00     0.001 A 
HETATM   36  C   UNL     1      20.263  51.823  48.669  1.00  0.00     0.017 A 
ENDBRANCH   7  30
TORSDOF 5
ENDMDL
MODEL 4
REMARK VINA RESULT:      -9.5      3.238      4.587
REMARK  5 active torsions:
REMARK  status: ('A' for Active; 'I' for Inactive)
REMARK    1  A    between atoms: C_7  and  C_8 
REMARK    2  A    between atoms: C_16  and  C_17 
REMARK    3  A    between atoms: C_20  and  O_21 
REMARK    4  A    between atoms: C_24  and  C_25 
REMARK       I    between atoms: C_25  and  N_26 
REMARK    5  A    between atoms: N_26  and  C_27 
ROOT
HETATM    1  C   UNL     1      21.931  44.988  47.092  1.00  0.00     0.070 C 
HETATM    2  C   UNL     1      22.889  45.434  48.170  1.00  0.00     0.037 C 
HETATM    3  N   UNL     1      23.819  44.482  48.585  1.00  0.00    -0.192 N 
HETATM    4  C   UNL     1      24.581  44.639  49.686  1.00  0.00     0.726 A 
HETATM    5  N   UNL     1      24.588  45.845  50.320  1.00  0.00    -0.083 N 
HETATM    6  N   UNL     1      25.355  45.825  51.425  1.00  0.00    -0.135 NA
HETATM    7  C   UNL     1      25.818  44.561  51.397  1.00  0.00     0.200 A 
HETATM    8  N   UNL     1      25.363  43.813  50.326  1.00  0.00    -0.041 NA
HETATM    9  C   UNL     1      23.891  47.034  49.824  1.00  0.00     0.202 C 
HETATM   10  C   UNL     1      22.880  46.668  48.741  1.00  0.00     0.062 C 
HETATM   11  H   UNL     1      23.720  43.543  48.205  1.00  0.00     0.184 HD
ENDROOT
BRANCH  10  12
HETATM   12  C   UNL     1      21.750  47.612  48.489  1.00  0.00     0.256 C 
HETATM   13  N   UNL     1      21.399  48.387  49.573  1.00  0.00    -0.323 N 
HETATM   14  H   UNL     1      21.938  48.300  50.423  1.00  0.00     0.169 HD
HETATM   15  O   UNL     1      21.203  47.607  47.392  1.00  0.00    -0.267 OA
BRANCH  13  16
HETATM   16  C   UNL     1      20.340  49.318  49.652  1.00  0.00     0.035 A 
HETATM   17  C   UNL     1      19.038  48.995  50.035  1.00  0.00     0.029 A 
HETATM   18  C   UNL     1      18.048  49.982  50.086  1.00  0.00     0.002 A 
HETATM   19  C   UNL     1      18.355  51.302  49.764  1.00  0.00     0.000 A 
HETATM   20  C   UNL     1      19.651  51.635  49.381  1.00  0.00     0.002 A 
HETATM   21  C   UNL     1      20.636  50.647  49.319  1.00  0.00     0.029 A 
ENDBRANCH  13  16
ENDBRANCH  10  12
BRANCH   9  22
HETATM   22  C   UNL     1      24.939  48.047  49.359  1.00  0.00    -0.028 A 
HETATM   23  C   UNL     1      26.310  47.872  49.632  1.00  0.00     0.012 A 
HETATM   24  C   UNL     1      27.250  48.810  49.200  1.00  0.00     0.037 A 
HETATM   25  C   UNL     1      26.823  49.934  48.503  1.00  0.00     0.065 A 
HETATM   26  C   UNL     1      25.476  50.135  48.233  1.00  0.00     0.037 A 
HETATM   27  C   UNL     1      24.534  49.198  48.661  1.00  0.00     0.012 A 
BRANCH  25  28
HETATM   28  O   UNL     1      27.706  50.878  48.070  1.00  0.00    -0.361 OA
HETATM   29  H   UNL     1      27.589  51.000  47.114  1.00  0.00     0.217 HD
ENDBRANCH  25  28
ENDBRANCH   9  22
BRANCH   7  30
HETATM   30  C   UNL     1      26.789  44.060  52.360  1.00  0.00     0.036 A 
HETATM   31  C   UNL     1      26.515  43.927  53.729  1.00  0.00     0.048 A 
HETATM   32 CL   UNL     1      25.018  44.414  54.448  1.00  0.00    -0.083 Cl
HETATM   33  C   UNL     1      27.495  43.422  54.596  1.00  0.00     0.025 A 
HETATM   34  C   UNL     1      28.749  43.050  54.112  1.00  0.00     0.002 A 
HETATM   35  C   UNL     1      29.036  43.187  52.757  1.00  0.00     0.001 A 
HETATM   36  C   UNL     1      28.065  43.690  51.890  1.00  0.00     0.017 A 
ENDBRANCH   7  30
TORSDOF 5
ENDMDL
MODEL 5
REMARK VINA RESULT:      -9.5      5.935      9.211
REMARK  5 active torsions:
REMARK  status: ('A' for Active; 'I' for Inactive)
REMARK    1  A    between atoms: C_7  and  C_8 
REMARK    2  A    between atoms: C_16  and  C_17 
REMARK    3  A    between atoms: C_20  and  O_21 
REMARK    4  A    between atoms: C_24  and  C_25 
REMARK       I    between atoms: C_25  and  N_26 
REMARK    5  A    between atoms: N_26  and  C_27 
ROOT
HETATM    1  C   UNL     1      18.314  52.256  49.552  1.00  0.00     0.070 C 
HETATM    2  C   UNL     1      19.349  51.305  49.003  1.00  0.00     0.037 C 
HETATM    3  N   UNL     1      20.521  51.190  49.750  1.00  0.00    -0.192 N 
HETATM    4  C   UNL     1      21.624  50.571  49.285  1.00  0.00     0.726 A 
HETATM    5  N   UNL     1      21.546  49.866  48.121  1.00  0.00    -0.083 N 
HETATM    6  N   UNL     1      22.738  49.353  47.766  1.00  0.00    -0.135 NA
HETATM    7  C   UNL     1      23.513  49.766  48.787  1.00  0.00     0.200 A 
HETATM    8  N   UNL     1      22.845  50.510  49.742  1.00  0.00    -0.041 NA
HETATM    9  C   UNL     1      20.303  49.647  47.378  1.00  0.00     0.202 C 
HETATM   10  C   UNL     1      19.203  50.591  47.855  1.00  0.00     0.062 C 
HETATM   11  H   UNL     1      20.628  51.819  50.543  1.00  0.00     0.184 HD
ENDROOT
BRANCH  10  12
HETATM   12  C   UNL     1      18.073  50.879  46.922  1.00  0.00     0.256 C 
HETATM   13  N   UNL     1      16.942  50.124  47.141  1.00  0.00    -0.323 N 
HETATM   14  H   UNL     1      16.936  49.478  47.918  1.00  0.00     0.169 HD
HETATM   15  O   UNL     1      18.233  51.706  46.031  1.00  0.00    -0.267 OA
BRANCH  13  16
HETATM   16  C   UNL     1      15.748  50.133  46.387  1.00  0.00     0.035 A 
HETATM   17  C   UNL     1      15.231  51.261  45.748  1.00  0.00     0.029 A 
HETATM   18  C   UNL     1      14.039  51.179  45.021  1.00  0.00     0.002 A 
HETATM   19  C   UNL     1      13.359  49.967  44.919  1.00  0.00     0.000 A 
HETATM   20  C   UNL     1      13.867  48.836  45.551  1.00  0.00     0.002 A 
HETATM   21  C   UNL     1      15.051  48.920  46.287  1.00  0.00     0.029 A 
ENDBRANCH  13  16
ENDBRANCH  10  12
BRANCH   9  22
HETATM   22  C   UNL     1      19.927  48.168  47.496  1.00  0.00    -0.028 A 
HETATM   23  C   UNL     1      19.907  47.506  48.739  1.00  0.00     0.012 A 
HETATM   24  C   UNL     1      19.564  46.155  48.823  1.00  0.00     0.037 A 
HETATM   25  C   UNL     1      19.250  45.456  47.664  1.00  0.00     0.065 A 
HETATM   26  C   UNL     1      19.276  46.084  46.425  1.00  0.00     0.037 A 
HETATM   27  C   UNL     1      19.617  47.435  46.338  1.00  0.00     0.012 A 
BRANCH  25  28
HETATM   28  O   UNL     1      18.917  44.135  47.699  1.00  0.00    -0.361 OA
HETATM   29  H   UNL     1      19.321  43.690  46.936  1.00  0.00     0.217 HD
ENDBRANCH  25  28
ENDBRANCH   9  22
BRANCH   7  30
HETATM   30  C   UNL     1      24.912  49.379  48.917  1.00  0.00     0.036 A 
HETATM   31  C   UNL     1      25.327  48.201  49.552  1.00  0.00     0.048 A 
HETATM   32 CL   UNL     1      24.233  47.104  50.324  1.00  0.00    -0.083 Cl
HETATM   33  C   UNL     1      26.692  47.885  49.626  1.00  0.00     0.025 A 
HETATM   34  C   UNL     1      27.649  48.736  49.074  1.00  0.00     0.002 A 
HETATM   35  C   UNL     1      27.249  49.914  48.449  1.00  0.00     0.001 A 
HETATM   36  C   UNL     1      25.893  50.233  48.375  1.00  0.00     0.017 A 
ENDBRANCH   7  30
TORSDOF 5
ENDMDL
MODEL 6
REMARK VINA RESULT:      -9.4      2.005      2.747
REMARK  5 active torsions:
REMARK  status: ('A' for Active; 'I' for Inactive)
REMARK    1  A    between atoms: C_7  and  C_8 
REMARK    2  A    between atoms: C_16  and  C_17 
REMARK    3  A    between atoms: C_20  and  O_21 
REMARK    4  A    between atoms: C_24  and  C_25 
REMARK       I    between atoms: C_25  and  N_26 
REMARK    5  A    between atoms: N_26  and  C_27 
ROOT
HETATM    1  C   UNL     1      23.613  43.087  47.322  1.00  0.00     0.070 C 
HETATM    2  C   UNL     1      24.319  43.826  48.434  1.00  0.00     0.037 C 
HETATM    3  N   UNL     1      25.496  43.238  48.896  1.00  0.00    -0.192 N 
HETATM    4  C   UNL     1      26.115  43.639  50.025  1.00  0.00     0.726 A 
HETATM    5  N   UNL     1      25.690  44.775  50.646  1.00  0.00    -0.083 N 
HETATM    6  N   UNL     1      26.372  45.010  51.782  1.00  0.00    -0.135 NA
HETATM    7  C   UNL     1      27.233  43.974  51.786  1.00  0.00     0.200 A 
HETATM    8  N   UNL     1      27.101  43.120  50.706  1.00  0.00    -0.041 NA
HETATM    9  C   UNL     1      24.656  45.663  50.109  1.00  0.00     0.202 C 
HETATM   10  C   UNL     1      23.873  44.983  48.990  1.00  0.00     0.062 C 
HETATM   11  H   UNL     1      25.734  42.323  48.523  1.00  0.00     0.184 HD
ENDROOT
BRANCH  10  12
HETATM   12  C   UNL     1      22.504  45.494  48.683  1.00  0.00     0.256 C 
HETATM   13  N   UNL     1      22.455  46.430  47.673  1.00  0.00    -0.323 N 
HETATM   14  H   UNL     1      23.313  46.670  47.196  1.00  0.00     0.169 HD
HETATM   15  O   UNL     1      21.555  45.094  49.349  1.00  0.00    -0.267 OA
BRANCH  13  16
HETATM   16  C   UNL     1      21.319  47.129  47.208  1.00  0.00     0.035 A 
HETATM   17  C   UNL     1      20.912  48.374  47.689  1.00  0.00     0.029 A 
HETATM   18  C   UNL     1      19.771  48.995  47.170  1.00  0.00     0.002 A 
HETATM   19  C   UNL     1      19.034  48.382  46.160  1.00  0.00     0.000 A 
HETATM   20  C   UNL     1      19.433  47.140  45.672  1.00  0.00     0.002 A 
HETATM   21  C   UNL     1      20.565  46.514  46.199  1.00  0.00     0.029 A 
ENDBRANCH  13  16
ENDBRANCH  10  12
BRANCH   9  22
HETATM   22  C   UNL     1      25.323  46.970  49.676  1.00  0.00    -0.028 A 
HETATM   23  C   UNL     1      24.568  48.117  49.361  1.00  0.00     0.012 A 
HETATM   24  C   UNL     1      25.197  49.300  48.966  1.00  0.00     0.037 A 
HETATM   25  C   UNL     1      26.583  49.339  48.873  1.00  0.00     0.065 A 
HETATM   26  C   UNL     1      27.348  48.217  49.166  1.00  0.00     0.037 A 
HETATM   27  C   UNL     1      26.722  47.035  49.563  1.00  0.00     0.012 A 
BRANCH  25  28
HETATM   28  O   UNL     1      27.237  50.470  48.484  1.00  0.00    -0.361 OA
HETATM   29  H   UNL     1      28.170  50.252  48.325  1.00  0.00     0.217 HD
ENDBRANCH  25  28
ENDBRANCH   9  22
BRANCH   7  30
HETATM   30  C   UNL     1      28.275  43.824  52.794  1.00  0.00     0.036 A 
HETATM   31  C   UNL     1      28.258  44.500  54.022  1.00  0.00     0.048 A 
HETATM   32 CL   UNL     1      27.040  45.650  54.455  1.00  0.00    -0.083 Cl
HETATM   33  C   UNL     1      29.289  44.295  54.951  1.00  0.00     0.025 A 
HETATM   34  C   UNL     1      30.339  43.423  54.667  1.00  0.00     0.002 A 
HETATM   35  C   UNL     1      30.370  42.753  53.447  1.00  0.00     0.001 A 
HETATM   36  C   UNL     1      29.349  42.956  52.518  1.00  0.00     0.017 A 
ENDBRANCH   7  30
TORSDOF 5
ENDMDL
MODEL 7
REMARK VINA RESULT:      -8.9      4.206      9.301
REMARK  5 active torsions:
REMARK  status: ('A' for Active; 'I' for Inactive)
REMARK    1  A    between atoms: C_7  and  C_8 
REMARK    2  A    between atoms: C_16  and  C_17 
REMARK    3  A    between atoms: C_20  and  O_21 
REMARK    4  A    between atoms: C_24  and  C_25 
REMARK       I    between atoms: C_25  and  N_26 
REMARK    5  A    between atoms: N_26  and  C_27 
ROOT
HETATM    1  C   UNL     1      27.449  48.561  49.255  1.00  0.00     0.070 C 
HETATM    2  C   UNL     1      25.950  48.378  49.267  1.00  0.00     0.037 C 
HETATM    3  N   UNL     1      25.229  49.246  48.447  1.00  0.00    -0.192 N 
HETATM    4  C   UNL     1      23.889  49.369  48.517  1.00  0.00     0.726 A 
HETATM    5  N   UNL     1      23.182  48.489  49.280  1.00  0.00    -0.083 N 
HETATM    6  N   UNL     1      21.867  48.775  49.287  1.00  0.00    -0.135 NA
HETATM    7  C   UNL     1      21.831  49.849  48.474  1.00  0.00     0.200 A 
HETATM    8  N   UNL     1      23.065  50.227  47.978  1.00  0.00    -0.041 NA
HETATM    9  C   UNL     1      23.776  47.336  49.961  1.00  0.00     0.202 C 
HETATM   10  C   UNL     1      25.296  47.452  50.017  1.00  0.00     0.062 C 
HETATM   11  H   UNL     1      25.751  49.988  47.986  1.00  0.00     0.184 HD
ENDROOT
BRANCH  10  12
HETATM   12  C   UNL     1      26.019  46.685  51.074  1.00  0.00     0.256 C 
HETATM   13  N   UNL     1      26.493  45.456  50.668  1.00  0.00    -0.323 N 
HETATM   14  H   UNL     1      26.362  45.184  49.704  1.00  0.00     0.169 HD
HETATM   15  O   UNL     1      26.106  47.160  52.201  1.00  0.00    -0.267 OA
BRANCH  13  16
HETATM   16  C   UNL     1      27.157  44.492  51.457  1.00  0.00     0.035 A 
HETATM   17  C   UNL     1      27.509  43.218  51.008  1.00  0.00     0.029 A 
HETATM   18  C   UNL     1      28.166  42.323  51.860  1.00  0.00     0.002 A 
HETATM   19  C   UNL     1      28.486  42.699  53.162  1.00  0.00     0.000 A 
HETATM   20  C   UNL     1      28.141  43.967  53.619  1.00  0.00     0.002 A 
HETATM   21  C   UNL     1      27.474  44.856  52.773  1.00  0.00     0.029 A 
ENDBRANCH  13  16
ENDBRANCH  10  12
BRANCH   9  22
HETATM   22  C   UNL     1      23.289  46.063  49.265  1.00  0.00    -0.028 A 
HETATM   23  C   UNL     1      22.862  46.071  47.922  1.00  0.00     0.012 A 
HETATM   24  C   UNL     1      22.419  44.898  47.307  1.00  0.00     0.037 A 
HETATM   25  C   UNL     1      22.390  43.714  48.034  1.00  0.00     0.065 A 
HETATM   26  C   UNL     1      22.793  43.684  49.362  1.00  0.00     0.037 A 
HETATM   27  C   UNL     1      23.239  44.854  49.979  1.00  0.00     0.012 A 
BRANCH  25  28
HETATM   28  O   UNL     1      21.958  42.548  47.475  1.00  0.00    -0.361 OA
HETATM   29  H   UNL     1      21.066  42.686  47.115  1.00  0.00     0.217 HD
ENDBRANCH  25  28
ENDBRANCH   9  22
BRANCH   7  30
HETATM   30  C   UNL     1      20.585  50.492  48.079  1.00  0.00     0.036 A 
HETATM   31  C   UNL     1      19.625  49.873  47.267  1.00  0.00     0.048 A 
HETATM   32 CL   UNL     1      19.839  48.302  46.575  1.00  0.00    -0.083 Cl
HETATM   33  C   UNL     1      18.440  50.549  46.940  1.00  0.00     0.025 A 
HETATM   34  C   UNL     1      18.204  51.839  47.414  1.00  0.00     0.002 A 
HETATM   35  C   UNL     1      19.154  52.467  48.213  1.00  0.00     0.001 A 
HETATM   36  C   UNL     1      20.335  51.800  48.539  1.00  0.00     0.017 A 
ENDBRANCH   7  30
TORSDOF 5
ENDMDL
MODEL 8
REMARK VINA RESULT:      -8.7      3.258      9.019
REMARK  5 active torsions:
REMARK  status: ('A' for Active; 'I' for Inactive)
REMARK    1  A    between atoms: C_7  and  C_8 
REMARK    2  A    between atoms: C_16  and  C_17 
REMARK    3  A    between atoms: C_20  and  O_21 
REMARK    4  A    between atoms: C_24  and  C_25 
REMARK       I    between atoms: C_25  and  N_26 
REMARK    5  A    between atoms: N_26  and  C_27 
ROOT
HETATM    1  C   UNL     1      26.130  46.357  50.443  1.00  0.00     0.070 C 
HETATM    2  C   UNL     1      25.713  44.947  50.098  1.00  0.00     0.037 C 
HETATM    3  N   UNL     1      25.001  44.802  48.908  1.00  0.00    -0.192 N 
HETATM    4  C   UNL     1      24.362  43.662  48.576  1.00  0.00     0.726 A 
HETATM    5  N   UNL     1      24.565  42.546  49.331  1.00  0.00    -0.083 N 
HETATM    6  N   UNL     1      23.820  41.510  48.903  1.00  0.00    -0.135 NA
HETATM    7  C   UNL     1      23.190  42.062  47.848  1.00  0.00     0.200 A 
HETATM    8  N   UNL     1      23.518  43.387  47.619  1.00  0.00    -0.041 NA
HETATM    9  C   UNL     1      25.522  42.468  50.437  1.00  0.00     0.202 C 
HETATM   10  C   UNL     1      25.979  43.859  50.868  1.00  0.00     0.062 C 
HETATM   11  H   UNL     1      24.736  45.655  48.420  1.00  0.00     0.184 HD
ENDROOT
BRANCH  10  12
HETATM   12  C   UNL     1      26.520  44.021  52.250  1.00  0.00     0.256 C 
HETATM   13  N   UNL     1      27.895  44.054  52.328  1.00  0.00    -0.323 N 
HETATM   14  H   UNL     1      28.427  44.011  51.470  1.00  0.00     0.169 HD
HETATM   15  O   UNL     1      25.738  44.071  53.194  1.00  0.00    -0.267 OA
BRANCH  13  16
HETATM   16  C   UNL     1      28.685  44.138  53.495  1.00  0.00     0.035 A 
HETATM   17  C   UNL     1      28.539  45.123  54.473  1.00  0.00     0.029 A 
HETATM   18  C   UNL     1      29.367  45.130  55.600  1.00  0.00     0.002 A 
HETATM   19  C   UNL     1      30.341  44.147  55.764  1.00  0.00     0.000 A 
HETATM   20  C   UNL     1      30.494  43.160  54.795  1.00  0.00     0.002 A 
HETATM   21  C   UNL     1      29.675  43.160  53.663  1.00  0.00     0.029 A 
ENDBRANCH  13  16
ENDBRANCH  10  12
BRANCH   9  22
HETATM   22  C   UNL     1      26.673  41.554  50.013  1.00  0.00    -0.028 A 
HETATM   23  C   UNL     1      27.163  41.545  48.692  1.00  0.00     0.012 A 
HETATM   24  C   UNL     1      28.214  40.700  48.326  1.00  0.00     0.037 A 
HETATM   25  C   UNL     1      28.772  39.853  49.275  1.00  0.00     0.065 A 
HETATM   26  C   UNL     1      28.297  39.835  50.581  1.00  0.00     0.037 A 
HETATM   27  C   UNL     1      27.249  40.679  50.950  1.00  0.00     0.012 A 
BRANCH  25  28
HETATM   28  O   UNL     1      29.794  39.008  48.960  1.00  0.00    -0.361 OA
HETATM   29  H   UNL     1      30.618  39.362  49.330  1.00  0.00     0.217 HD
ENDBRANCH  25  28
ENDBRANCH   9  22
BRANCH   7  30
HETATM   30  C   UNL     1      22.315  41.298  46.969  1.00  0.00     0.036 A 
HETATM   31  C   UNL     1      21.235  41.866  46.277  1.00  0.00     0.048 A 
HETATM   32 CL   UNL     1      20.769  43.524  46.443  1.00  0.00    -0.083 Cl
HETATM   33  C   UNL     1      20.443  41.071  45.435  1.00  0.00     0.025 A 
HETATM   34  C   UNL     1      20.716  39.712  45.278  1.00  0.00     0.002 A 
HETATM   35  C   UNL     1      21.779  39.136  45.968  1.00  0.00     0.001 A 
HETATM   36  C   UNL     1      22.568  39.922  46.808  1.00  0.00     0.017 A 
ENDBRANCH   7  30
TORSDOF 5
ENDMDL
MODEL 9
REMARK VINA RESULT:      -8.7     11.834     12.772
REMARK  5 active torsions:
REMARK  status: ('A' for Active; 'I' for Inactive)
REMARK    1  A    between atoms: C_7  and  C_8 
REMARK    2  A    between atoms: C_16  and  C_17 
REMARK    3  A    between atoms: C_20  and  O_21 
REMARK    4  A    between atoms: C_24  and  C_25 
REMARK       I    between atoms: C_25  and  N_26 
REMARK    5  A    between atoms: N_26  and  C_27 
ROOT
HETATM    1  C   UNL     1      30.014  45.943  39.341  1.00  0.00     0.070 C 
HETATM    2  C   UNL     1      30.311  47.286  39.963  1.00  0.00     0.037 C 
HETATM    3  N   UNL     1      31.662  47.598  40.111  1.00  0.00    -0.192 N 
HETATM    4  C   UNL     1      32.093  48.641  40.850  1.00  0.00     0.726 A 
HETATM    5  N   UNL     1      31.182  49.539  41.321  1.00  0.00    -0.083 N 
HETATM    6  N   UNL     1      31.762  50.487  42.080  1.00  0.00    -0.135 NA
HETATM    7  C   UNL     1      33.055  50.120  42.012  1.00  0.00     0.200 A 
HETATM    8  N   UNL     1      33.286  48.989  41.249  1.00  0.00    -0.041 NA
HETATM    9  C   UNL     1      29.756  49.507  40.992  1.00  0.00     0.202 C 
HETATM   10  C   UNL     1      29.362  48.166  40.378  1.00  0.00     0.062 C 
HETATM   11  H   UNL     1      32.333  46.868  39.884  1.00  0.00     0.184 HD
ENDROOT
BRANCH  10  12
HETATM   12  C   UNL     1      27.928  47.756  40.453  1.00  0.00     0.256 C 
HETATM   13  N   UNL     1      27.178  48.087  39.345  1.00  0.00    -0.323 N 
HETATM   14  H   UNL     1      27.641  48.532  38.565  1.00  0.00     0.169 HD
HETATM   15  O   UNL     1      27.518  47.209  41.471  1.00  0.00    -0.267 OA
BRANCH  13  16
HETATM   16  C   UNL     1      25.794  47.882  39.156  1.00  0.00     0.035 A 
HETATM   17  C   UNL     1      25.211  46.638  38.911  1.00  0.00     0.029 A 
HETATM   18  C   UNL     1      23.828  46.527  38.735  1.00  0.00     0.002 A 
HETATM   19  C   UNL     1      23.015  47.656  38.813  1.00  0.00     0.000 A 
HETATM   20  C   UNL     1      23.587  48.901  39.059  1.00  0.00     0.002 A 
HETATM   21  C   UNL     1      24.970  49.014  39.222  1.00  0.00     0.029 A 
ENDBRANCH  13  16
ENDBRANCH  10  12
BRANCH   9  22
HETATM   22  C   UNL     1      29.444  50.703  40.090  1.00  0.00    -0.028 A 
HETATM   23  C   UNL     1      28.771  51.842  40.577  1.00  0.00     0.012 A 
HETATM   24  C   UNL     1      28.494  52.922  39.736  1.00  0.00     0.037 A 
HETATM   25  C   UNL     1      28.878  52.865  38.402  1.00  0.00     0.065 A 
HETATM   26  C   UNL     1      29.530  51.748  37.895  1.00  0.00     0.037 A 
HETATM   27  C   UNL     1      29.810  50.668  38.734  1.00  0.00     0.012 A 
BRANCH  25  28
HETATM   28  O   UNL     1      28.621  53.893  37.545  1.00  0.00    -0.361 OA
HETATM   29  H   UNL     1      28.599  53.545  36.638  1.00  0.00     0.217 HD
ENDBRANCH  25  28
ENDBRANCH   9  22
BRANCH   7  30
HETATM   30  C   UNL     1      34.126  50.904  42.613  1.00  0.00     0.036 A 
HETATM   31  C   UNL     1      33.962  51.659  43.783  1.00  0.00     0.048 A 
HETATM   32 CL   UNL     1      32.450  51.809  44.609  1.00  0.00    -0.083 Cl
HETATM   33  C   UNL     1      35.043  52.378  44.313  1.00  0.00     0.025 A 
HETATM   34  C   UNL     1      36.289  52.354  43.685  1.00  0.00     0.002 A 
HETATM   35  C   UNL     1      36.461  51.616  42.518  1.00  0.00     0.001 A 
HETATM   36  C   UNL     1      35.388  50.901  41.985  1.00  0.00     0.017 A 
ENDBRANCH   7  30
TORSDOF 5
ENDMDL
MODEL 10
REMARK VINA RESULT:      -8.6      2.788      9.149
REMARK  5 active torsions:
REMARK  status: ('A' for Active; 'I' for Inactive)
REMARK    1  A    between atoms: C_7  and  C_8 
REMARK    2  A    between atoms: C_16  and  C_17 
REMARK    3  A    between atoms: C_20  and  O_21 
REMARK    4  A    between atoms: C_24  and  C_25 
REMARK       I    between atoms: C_25  and  N_26 
REMARK    5  A    between atoms: N_26  and  C_27 
ROOT
HETATM    1  C   UNL     1      26.104  47.206  50.847  1.00  0.00     0.070 C 
HETATM    2  C   UNL     1      25.076  46.190  50.408  1.00  0.00     0.037 C 
HETATM    3  N   UNL     1      24.199  46.612  49.409  1.00  0.00    -0.192 N 
HETATM    4  C   UNL     1      23.092  45.921  49.073  1.00  0.00     0.726 A 
HETATM    5  N   UNL     1      22.907  44.673  49.590  1.00  0.00    -0.083 N 
HETATM    6  N   UNL     1      21.735  44.139  49.201  1.00  0.00    -0.135 NA
HETATM    7  C   UNL     1      21.252  45.119  48.413  1.00  0.00     0.200 A 
HETATM    8  N   UNL     1      22.076  46.224  48.310  1.00  0.00    -0.041 NA
HETATM    9  C   UNL     1      23.894  43.977  50.419  1.00  0.00     0.202 C 
HETATM   10  C   UNL     1      24.963  44.940  50.929  1.00  0.00     0.062 C 
HETATM   11  H   UNL     1      24.256  47.587  49.125  1.00  0.00     0.184 HD
ENDROOT
BRANCH  10  12
HETATM   12  C   UNL     1      25.723  44.557  52.155  1.00  0.00     0.256 C 
HETATM   13  N   UNL     1      27.090  44.518  51.993  1.00  0.00    -0.323 N 
HETATM   14  H   UNL     1      27.477  44.783  51.098  1.00  0.00     0.169 HD
HETATM   15  O   UNL     1      25.104  44.273  53.175  1.00  0.00    -0.267 OA
BRANCH  13  16
HETATM   16  C   UNL     1      28.055  44.135  52.950  1.00  0.00     0.035 A 
HETATM   17  C   UNL     1      28.197  44.731  54.204  1.00  0.00     0.029 A 
HETATM   18  C   UNL     1      29.183  44.288  55.092  1.00  0.00     0.002 A 
HETATM   19  C   UNL     1      30.027  43.238  54.738  1.00  0.00     0.000 A 
HETATM   20  C   UNL     1      29.893  42.635  53.491  1.00  0.00     0.002 A 
HETATM   21  C   UNL     1      28.917  43.086  52.599  1.00  0.00     0.029 A 
ENDBRANCH  13  16
ENDBRANCH  10  12
BRANCH   9  22
HETATM   22  C   UNL     1      24.463  42.810  49.611  1.00  0.00    -0.028 A 
HETATM   23  C   UNL     1      24.218  42.676  48.229  1.00  0.00     0.012 A 
HETATM   24  C   UNL     1      24.746  41.601  47.511  1.00  0.00     0.037 A 
HETATM   25  C   UNL     1      25.511  40.648  48.172  1.00  0.00     0.065 A 
HETATM   26  C   UNL     1      25.756  40.751  49.535  1.00  0.00     0.037 A 
HETATM   27  C   UNL     1      25.232  41.825  50.255  1.00  0.00     0.012 A 
BRANCH  25  28
HETATM   28  O   UNL     1      26.039  39.579  47.511  1.00  0.00    -0.361 OA
HETATM   29  H   UNL     1      25.482  39.381  46.741  1.00  0.00     0.217 HD
ENDBRANCH  25  28
ENDBRANCH   9  22
BRANCH   7  30
HETATM   30  C   UNL     1      20.011  44.980  47.662  1.00  0.00     0.036 A 
HETATM   31  C   UNL     1      19.876  44.135  46.552  1.00  0.00     0.048 A 
HETATM   32 CL   UNL     1      21.186  43.213  45.896  1.00  0.00    -0.083 Cl
HETATM   33  C   UNL     1      18.645  44.041  45.885  1.00  0.00     0.025 A 
HETATM   34  C   UNL     1      17.546  44.785  46.314  1.00  0.00     0.002 A 
HETATM   35  C   UNL     1      17.672  45.635  47.409  1.00  0.00     0.001 A 
HETATM   36  C   UNL     1      18.894  45.734  48.074  1.00  0.00     0.017 A 
ENDBRANCH   7  30
TORSDOF 5
ENDMDL
