MODEL 1
REMARK VINA RESULT:      -9.7      0.000      0.000
REMARK  8 active torsions:
REMARK  status: ('A' for Active; 'I' for Inactive)
REMARK    1  A    between atoms: C_2  and  C_3 
REMARK    2  A    between atoms: C_3  and  C_4 
REMARK    3  A    between atoms: C_4  and  N_5 
REMARK       I    between atoms: N_5  and  C_6 
REMARK    4  A    between atoms: C_6  and  C_7 
REMARK    5  A    between atoms: C_14  and  S_15 
REMARK    6  A    between atoms: S_15  and  N_16 
REMARK    7  A    between atoms: N_16  and  C_17 
REMARK    8  A    between atoms: C_19  and  O_20 
ROOT
HETATM    1  C   UNL     1      24.909  45.026  52.049  1.00  0.00     0.098 C 
HETATM    2  C   UNL     1      24.971  46.443  51.594  1.00  0.00     0.201 C 
HETATM    3  O   UNL     1      25.605  47.294  52.213  1.00  0.00    -0.286 OA
HETATM    4  C   UNL     1      24.218  46.812  50.363  1.00  0.00     0.043 A 
HETATM    5  C   UNL     1      23.582  45.792  49.629  1.00  0.00     0.046 A 
HETATM    6  N   UNL     1      23.714  44.456  50.029  1.00  0.00    -0.364 N 
HETATM    7  C   UNL     1      24.126  48.150  49.961  1.00  0.00     0.043 A 
HETATM    8  C   UNL     1      23.413  48.459  48.800  1.00  0.00     0.081 A 
HETATM    9  C   UNL     1      22.787  47.453  48.054  1.00  0.00     0.027 A 
HETATM   10  C   UNL     1      22.888  46.120  48.462  1.00  0.00     0.032 A 
HETATM   11  C   UNL     1      24.287  44.153  51.239  1.00  0.00     0.109 C 
HETATM   12  H   UNL     1      23.077  43.769  49.633  1.00  0.00     0.165 HD
ENDROOT
BRANCH   8  13
HETATM   13  S   UNL     1      23.238  50.154  48.280  1.00  0.00     0.263 S 
HETATM   14  O   UNL     1      23.192  50.960  49.482  1.00  0.00    -0.200 OA
HETATM   15  O   UNL     1      24.209  50.408  47.241  1.00  0.00    -0.200 OA
BRANCH  13  16
HETATM   16  N   UNL     1      21.679  50.187  47.631  1.00  0.00    -0.281 N 
HETATM   17  H   UNL     1      21.672  50.417  46.639  1.00  0.00     0.179 HD
BRANCH  16  18
HETATM   18  C   UNL     1      20.615  50.676  48.437  1.00  0.00     0.045 A 
HETATM   19  C   UNL     1      20.101  49.882  49.465  1.00  0.00     0.066 A 
HETATM   20  C   UNL     1      19.014  50.341  50.211  1.00  0.00     0.070 A 
HETATM   21  C   UNL     1      18.483  51.607  49.954  1.00  0.00     0.037 A 
HETATM   22  C   UNL     1      18.996  52.394  48.923  1.00  0.00     0.005 A 
HETATM   23  C   UNL     1      20.054  51.920  48.152  1.00  0.00     0.030 A 
BRANCH  20  24
HETATM   24  O   UNL     1      18.414  49.651  51.228  1.00  0.00    -0.356 OA
HETATM   25  C   UNL     1      18.531  48.233  51.160  1.00  0.00     0.210 C 
ENDBRANCH  20  24
ENDBRANCH  16  18
ENDBRANCH  13  16
ENDBRANCH   8  13
BRANCH   1  26
HETATM   26  C   UNL     1      25.446  44.522  53.345  1.00  0.00     0.257 C 
HETATM   27  N   UNL     1      26.813  44.546  53.465  1.00  0.00    -0.357 N 
HETATM   28  H   UNL     1      27.352  44.958  52.703  1.00  0.00     0.162 HD
HETATM   29  O   UNL     1      24.697  44.134  54.238  1.00  0.00    -0.267 OA
BRANCH  27  30
HETATM   30  C   UNL     1      27.492  44.265  54.714  1.00  0.00     0.123 C 
BRANCH  30  31
HETATM   31  C   UNL     1      29.000  44.515  54.643  1.00  0.00     0.023 C 
BRANCH  31  32
HETATM   32  C   UNL     1      29.824  43.220  54.771  1.00  0.00    -0.021 C 
HETATM   33  C   UNL     1      31.021  43.391  55.707  1.00  0.00     0.009 C 
HETATM   34  C   UNL     1      30.309  42.765  53.393  1.00  0.00     0.009 C 
ENDBRANCH  31  32
ENDBRANCH  30  31
ENDBRANCH  27  30
ENDBRANCH   1  26
TORSDOF 8
ENDMDL
MODEL 2
REMARK VINA RESULT:      -9.3      2.748      9.956
REMARK  8 active torsions:
REMARK  status: ('A' for Active; 'I' for Inactive)
REMARK    1  A    between atoms: C_2  and  C_3 
REMARK    2  A    between atoms: C_3  and  C_4 
REMARK    3  A    between atoms: C_4  and  N_5 
REMARK       I    between atoms: N_5  and  C_6 
REMARK    4  A    between atoms: C_6  and  C_7 
REMARK    5  A    between atoms: C_14  and  S_15 
REMARK    6  A    between atoms: S_15  and  N_16 
REMARK    7  A    between atoms: N_16  and  C_17 
REMARK    8  A    between atoms: C_19  and  O_20 
ROOT
HETATM    1  C   UNL     1      23.233  47.001  49.255  1.00  0.00     0.098 C 
HETATM    2  C   UNL     1      24.361  46.683  50.176  1.00  0.00     0.201 C 
HETATM    3  O   UNL     1      25.006  47.567  50.736  1.00  0.00    -0.286 OA
HETATM    4  C   UNL     1      24.703  45.250  50.388  1.00  0.00     0.043 A 
HETATM    5  C   UNL     1      23.881  44.266  49.805  1.00  0.00     0.046 A 
HETATM    6  N   UNL     1      22.736  44.644  49.092  1.00  0.00    -0.364 N 
HETATM    7  C   UNL     1      25.834  44.893  51.133  1.00  0.00     0.043 A 
HETATM    8  C   UNL     1      26.123  43.538  51.312  1.00  0.00     0.081 A 
HETATM    9  C   UNL     1      25.307  42.549  50.749  1.00  0.00     0.027 A 
HETATM   10  C   UNL     1      24.179  42.916  50.011  1.00  0.00     0.032 A 
HETATM   11  C   UNL     1      22.519  45.964  48.787  1.00  0.00     0.109 C 
HETATM   12  H   UNL     1      22.290  43.951  48.496  1.00  0.00     0.165 HD
ENDROOT
BRANCH   8  13
HETATM   13  S   UNL     1      27.576  43.044  52.218  1.00  0.00     0.263 S 
HETATM   14  O   UNL     1      27.624  41.597  52.179  1.00  0.00    -0.200 OA
HETATM   15  O   UNL     1      28.687  43.846  51.758  1.00  0.00    -0.200 OA
BRANCH  13  16
HETATM   16  N   UNL     1      27.186  43.460  53.807  1.00  0.00    -0.281 N 
HETATM   17  H   UNL     1      26.191  43.632  53.934  1.00  0.00     0.179 HD
BRANCH  16  18
HETATM   18  C   UNL     1      28.100  44.256  54.548  1.00  0.00     0.045 A 
HETATM   19  C   UNL     1      29.349  43.737  54.896  1.00  0.00     0.066 A 
HETATM   20  C   UNL     1      30.218  44.500  55.679  1.00  0.00     0.070 A 
HETATM   21  C   UNL     1      29.850  45.791  56.064  1.00  0.00     0.037 A 
HETATM   22  C   UNL     1      28.600  46.303  55.719  1.00  0.00     0.005 A 
HETATM   23  C   UNL     1      27.717  45.527  54.972  1.00  0.00     0.030 A 
BRANCH  20  24
HETATM   24  O   UNL     1      31.456  44.096  56.097  1.00  0.00    -0.356 OA
HETATM   25  C   UNL     1      31.475  43.299  57.278  1.00  0.00     0.210 C 
ENDBRANCH  20  24
ENDBRANCH  16  18
ENDBRANCH  13  16
ENDBRANCH   8  13
BRANCH   1  26
HETATM   26  C   UNL     1      22.872  48.370  48.789  1.00  0.00     0.257 C 
HETATM   27  N   UNL     1      22.498  49.248  49.775  1.00  0.00    -0.357 N 
HETATM   28  H   UNL     1      22.554  48.931  50.743  1.00  0.00     0.162 HD
HETATM   29  O   UNL     1      22.932  48.675  47.601  1.00  0.00    -0.267 OA
BRANCH  27  30
HETATM   30  C   UNL     1      22.290  50.660  49.525  1.00  0.00     0.123 C 
BRANCH  30  31
HETATM   31  C   UNL     1      20.830  51.087  49.689  1.00  0.00     0.023 C 
BRANCH  31  32
HETATM   32  C   UNL     1      20.241  51.699  48.404  1.00  0.00    -0.021 C 
HETATM   33  C   UNL     1      18.928  52.436  48.668  1.00  0.00     0.009 C 
HETATM   34  C   UNL     1      20.018  50.608  47.355  1.00  0.00     0.009 C 
ENDBRANCH  31  32
ENDBRANCH  30  31
ENDBRANCH  27  30
ENDBRANCH   1  26
TORSDOF 8
ENDMDL
MODEL 3
REMARK VINA RESULT:      -9.2      1.547      1.824
REMARK  8 active torsions:
REMARK  status: ('A' for Active; 'I' for Inactive)
REMARK    1  A    between atoms: C_2  and  C_3 
REMARK    2  A    between atoms: C_3  and  C_4 
REMARK    3  A    between atoms: C_4  and  N_5 
REMARK       I    between atoms: N_5  and  C_6 
REMARK    4  A    between atoms: C_6  and  C_7 
REMARK    5  A    between atoms: C_14  and  S_15 
REMARK    6  A    between atoms: S_15  and  N_16 
REMARK    7  A    between atoms: N_16  and  C_17 
REMARK    8  A    between atoms: C_19  and  O_20 
ROOT
HETATM    1  C   UNL     1      26.418  45.024  53.100  1.00  0.00     0.098 C 
HETATM    2  C   UNL     1      26.089  46.327  52.456  1.00  0.00     0.201 C 
HETATM    3  O   UNL     1      26.528  47.390  52.889  1.00  0.00    -0.286 OA
HETATM    4  C   UNL     1      25.189  46.310  51.270  1.00  0.00     0.043 A 
HETATM    5  C   UNL     1      24.785  45.066  50.747  1.00  0.00     0.046 A 
HETATM    6  N   UNL     1      25.276  43.879  51.306  1.00  0.00    -0.364 N 
HETATM    7  C   UNL     1      24.736  47.508  50.705  1.00  0.00     0.043 A 
HETATM    8  C   UNL     1      23.893  47.453  49.592  1.00  0.00     0.081 A 
HETATM    9  C   UNL     1      23.495  46.224  49.054  1.00  0.00     0.027 A 
HETATM   10  C   UNL     1      23.955  45.034  49.623  1.00  0.00     0.032 A 
HETATM   11  C   UNL     1      25.985  43.913  52.481  1.00  0.00     0.109 C 
HETATM   12  H   UNL     1      24.808  43.007  51.072  1.00  0.00     0.165 HD
ENDROOT
BRANCH   8  13
HETATM   13  S   UNL     1      23.262  48.956  48.871  1.00  0.00     0.263 S 
HETATM   14  O   UNL     1      24.279  49.970  49.056  1.00  0.00    -0.200 OA
HETATM   15  O   UNL     1      22.743  48.642  47.559  1.00  0.00    -0.200 OA
BRANCH  13  16
HETATM   16  N   UNL     1      21.994  49.365  49.908  1.00  0.00    -0.281 N 
HETATM   17  H   UNL     1      21.849  48.673  50.641  1.00  0.00     0.179 HD
BRANCH  16  18
HETATM   18  C   UNL     1      20.853  50.014  49.367  1.00  0.00     0.045 A 
HETATM   19  C   UNL     1      19.653  49.312  49.232  1.00  0.00     0.066 A 
HETATM   20  C   UNL     1      18.553  49.936  48.641  1.00  0.00     0.070 A 
HETATM   21  C   UNL     1      18.648  51.269  48.234  1.00  0.00     0.037 A 
HETATM   22  C   UNL     1      19.850  51.964  48.365  1.00  0.00     0.005 A 
HETATM   23  C   UNL     1      20.959  51.330  48.919  1.00  0.00     0.030 A 
BRANCH  20  24
HETATM   24  O   UNL     1      17.334  49.350  48.439  1.00  0.00    -0.356 OA
HETATM   25  C   UNL     1      17.249  47.973  48.794  1.00  0.00     0.210 C 
ENDBRANCH  20  24
ENDBRANCH  16  18
ENDBRANCH  13  16
ENDBRANCH   8  13
BRANCH   1  26
HETATM   26  C   UNL     1      27.148  44.870  54.390  1.00  0.00     0.257 C 
HETATM   27  N   UNL     1      28.157  45.774  54.607  1.00  0.00    -0.357 N 
HETATM   28  H   UNL     1      28.292  46.513  53.917  1.00  0.00     0.162 HD
HETATM   29  O   UNL     1      26.839  43.998  55.197  1.00  0.00    -0.267 OA
BRANCH  27  30
HETATM   30  C   UNL     1      28.847  45.885  55.876  1.00  0.00     0.123 C 
BRANCH  30  31
HETATM   31  C   UNL     1      30.294  45.392  55.814  1.00  0.00     0.023 C 
BRANCH  31  32
HETATM   32  C   UNL     1      30.413  43.870  56.017  1.00  0.00    -0.021 C 
HETATM   33  C   UNL     1      31.611  43.499  56.892  1.00  0.00     0.009 C 
HETATM   34  C   UNL     1      30.525  43.165  54.664  1.00  0.00     0.009 C 
ENDBRANCH  31  32
ENDBRANCH  30  31
ENDBRANCH  27  30
ENDBRANCH   1  26
TORSDOF 8
ENDMDL
MODEL 4
REMARK VINA RESULT:      -8.8      1.576      1.645
REMARK  8 active torsions:
REMARK  status: ('A' for Active; 'I' for Inactive)
REMARK    1  A    between atoms: C_2  and  C_3 
REMARK    2  A    between atoms: C_3  and  C_4 
REMARK    3  A    between atoms: C_4  and  N_5 
REMARK       I    between atoms: N_5  and  C_6 
REMARK    4  A    between atoms: C_6  and  C_7 
REMARK    5  A    between atoms: C_14  and  S_15 
REMARK    6  A    between atoms: S_15  and  N_16 
REMARK    7  A    between atoms: N_16  and  C_17 
REMARK    8  A    between atoms: C_19  and  O_20 
ROOT
HETATM    1  C   UNL     1      25.510  44.537  50.833  1.00  0.00     0.098 C 
HETATM    2  C   UNL     1      25.327  46.014  50.760  1.00  0.00     0.201 C 
HETATM    3  O   UNL     1      26.016  46.784  51.426  1.00  0.00    -0.286 OA
HETATM    4  C   UNL     1      24.261  46.539  49.863  1.00  0.00     0.043 A 
HETATM    5  C   UNL     1      23.559  45.632  49.046  1.00  0.00     0.046 A 
HETATM    6  N   UNL     1      23.907  44.275  49.046  1.00  0.00    -0.364 N 
HETATM    7  C   UNL     1      23.951  47.904  49.853  1.00  0.00     0.043 A 
HETATM    8  C   UNL     1      22.946  48.362  48.997  1.00  0.00     0.081 A 
HETATM    9  C   UNL     1      22.248  47.473  48.170  1.00  0.00     0.027 A 
HETATM   10  C   UNL     1      22.568  46.113  48.185  1.00  0.00     0.032 A 
HETATM   11  C   UNL     1      24.789  43.791  49.980  1.00  0.00     0.109 C 
HETATM   12  H   UNL     1      23.257  43.611  48.634  1.00  0.00     0.165 HD
ENDROOT
BRANCH   8  13
HETATM   13  S   UNL     1      22.493  50.085  48.987  1.00  0.00     0.263 S 
HETATM   14  O   UNL     1      23.648  50.826  49.449  1.00  0.00    -0.200 OA
HETATM   15  O   UNL     1      21.871  50.379  47.716  1.00  0.00    -0.200 OA
BRANCH  13  16
HETATM   16  N   UNL     1      21.347  50.178  50.223  1.00  0.00    -0.281 N 
HETATM   17  H   UNL     1      21.551  49.547  50.995  1.00  0.00     0.179 HD
BRANCH  16  18
HETATM   18  C   UNL     1      19.985  50.390  49.876  1.00  0.00     0.045 A 
HETATM   19  C   UNL     1      19.180  49.303  49.528  1.00  0.00     0.066 A 
HETATM   20  C   UNL     1      17.861  49.524  49.127  1.00  0.00     0.070 A 
HETATM   21  C   UNL     1      17.347  50.822  49.123  1.00  0.00     0.037 A 
HETATM   22  C   UNL     1      18.156  51.905  49.466  1.00  0.00     0.005 A 
HETATM   23  C   UNL     1      19.483  51.690  49.828  1.00  0.00     0.030 A 
BRANCH  20  24
HETATM   24  O   UNL     1      16.983  48.546  48.748  1.00  0.00    -0.356 OA
HETATM   25  C   UNL     1      15.824  48.999  48.054  1.00  0.00     0.210 C 
ENDBRANCH  20  24
ENDBRANCH  16  18
ENDBRANCH  13  16
ENDBRANCH   8  13
BRANCH   1  26
HETATM   26  C   UNL     1      26.396  43.834  51.804  1.00  0.00     0.257 C 
HETATM   27  N   UNL     1      26.432  44.373  53.065  1.00  0.00    -0.357 N 
HETATM   28  H   UNL     1      25.814  45.159  53.266  1.00  0.00     0.162 HD
HETATM   29  O   UNL     1      27.028  42.832  51.480  1.00  0.00    -0.267 OA
BRANCH  27  30
HETATM   30  C   UNL     1      27.094  43.718  54.176  1.00  0.00     0.123 C 
BRANCH  30  31
HETATM   31  C   UNL     1      28.514  44.236  54.415  1.00  0.00     0.023 C 
BRANCH  31  32
HETATM   32  C   UNL     1      29.560  43.106  54.454  1.00  0.00    -0.021 C 
HETATM   33  C   UNL     1      30.685  43.400  55.447  1.00  0.00     0.009 C 
HETATM   34  C   UNL     1      30.149  42.884  53.059  1.00  0.00     0.009 C 
ENDBRANCH  31  32
ENDBRANCH  30  31
ENDBRANCH  27  30
ENDBRANCH   1  26
TORSDOF 8
ENDMDL
MODEL 5
REMARK VINA RESULT:      -8.6      2.785      3.559
REMARK  8 active torsions:
REMARK  status: ('A' for Active; 'I' for Inactive)
REMARK    1  A    between atoms: C_2  and  C_3 
REMARK    2  A    between atoms: C_3  and  C_4 
REMARK    3  A    between atoms: C_4  and  N_5 
REMARK       I    between atoms: N_5  and  C_6 
REMARK    4  A    between atoms: C_6  and  C_7 
REMARK    5  A    between atoms: C_14  and  S_15 
REMARK    6  A    between atoms: S_15  and  N_16 
REMARK    7  A    between atoms: N_16  and  C_17 
REMARK    8  A    between atoms: C_19  and  O_20 
ROOT
HETATM    1  C   UNL     1      26.467  46.135  49.974  1.00  0.00     0.098 C 
HETATM    2  C   UNL     1      25.027  46.496  50.103  1.00  0.00     0.201 C 
HETATM    3  O   UNL     1      24.219  45.744  50.642  1.00  0.00    -0.286 OA
HETATM    4  C   UNL     1      24.583  47.799  49.535  1.00  0.00     0.043 A 
HETATM    5  C   UNL     1      25.554  48.674  49.011  1.00  0.00     0.046 A 
HETATM    6  N   UNL     1      26.912  48.335  49.082  1.00  0.00    -0.364 N 
HETATM    7  C   UNL     1      23.224  48.133  49.504  1.00  0.00     0.043 A 
HETATM    8  C   UNL     1      22.844  49.365  48.966  1.00  0.00     0.081 A 
HETATM    9  C   UNL     1      23.801  50.249  48.454  1.00  0.00     0.027 A 
HETATM   10  C   UNL     1      25.154  49.908  48.493  1.00  0.00     0.032 A 
HETATM   11  C   UNL     1      27.288  47.074  49.475  1.00  0.00     0.109 C 
HETATM   12  H   UNL     1      27.569  48.857  48.509  1.00  0.00     0.165 HD
ENDROOT
BRANCH   8  13
HETATM   13  S   UNL     1      21.120  49.808  48.870  1.00  0.00     0.263 S 
HETATM   14  O   UNL     1      20.961  51.039  49.615  1.00  0.00    -0.200 OA
HETATM   15  O   UNL     1      20.706  49.705  47.489  1.00  0.00    -0.200 OA
BRANCH  13  16
HETATM   16  N   UNL     1      20.373  48.603  49.786  1.00  0.00    -0.281 N 
HETATM   17  H   UNL     1      21.016  48.142  50.427  1.00  0.00     0.179 HD
BRANCH  16  18
HETATM   18  C   UNL     1      19.358  47.815  49.179  1.00  0.00     0.045 A 
HETATM   19  C   UNL     1      18.051  48.301  49.106  1.00  0.00     0.066 A 
HETATM   20  C   UNL     1      17.046  47.497  48.566  1.00  0.00     0.070 A 
HETATM   21  C   UNL     1      17.366  46.235  48.061  1.00  0.00     0.037 A 
HETATM   22  C   UNL     1      18.671  45.750  48.141  1.00  0.00     0.005 A 
HETATM   23  C   UNL     1      19.667  46.536  48.716  1.00  0.00     0.030 A 
BRANCH  20  24
HETATM   24  O   UNL     1      15.730  47.854  48.456  1.00  0.00    -0.356 OA
HETATM   25  C   UNL     1      15.351  48.416  47.203  1.00  0.00     0.210 C 
ENDBRANCH  20  24
ENDBRANCH  16  18
ENDBRANCH  13  16
ENDBRANCH   8  13
BRANCH   1  26
HETATM   26  C   UNL     1      27.048  44.806  50.318  1.00  0.00     0.257 C 
HETATM   27  N   UNL     1      27.304  44.603  51.651  1.00  0.00    -0.357 N 
HETATM   28  H   UNL     1      27.025  45.332  52.308  1.00  0.00     0.162 HD
HETATM   29  O   UNL     1      27.257  43.959  49.454  1.00  0.00    -0.267 OA
BRANCH  27  30
HETATM   30  C   UNL     1      27.696  43.313  52.183  1.00  0.00     0.123 C 
BRANCH  30  31
HETATM   31  C   UNL     1      29.119  43.308  52.746  1.00  0.00     0.023 C 
BRANCH  31  32
HETATM   32  C   UNL     1      29.150  43.385  54.285  1.00  0.00    -0.021 C 
HETATM   33  C   UNL     1      28.617  44.721  54.803  1.00  0.00     0.009 C 
HETATM   34  C   UNL     1      30.576  43.166  54.795  1.00  0.00     0.009 C 
ENDBRANCH  31  32
ENDBRANCH  30  31
ENDBRANCH  27  30
ENDBRANCH   1  26
TORSDOF 8
ENDMDL
MODEL 6
REMARK VINA RESULT:      -8.5      5.337      9.018
REMARK  8 active torsions:
REMARK  status: ('A' for Active; 'I' for Inactive)
REMARK    1  A    between atoms: C_2  and  C_3 
REMARK    2  A    between atoms: C_3  and  C_4 
REMARK    3  A    between atoms: C_4  and  N_5 
REMARK       I    between atoms: N_5  and  C_6 
REMARK    4  A    between atoms: C_6  and  C_7 
REMARK    5  A    between atoms: C_14  and  S_15 
REMARK    6  A    between atoms: S_15  and  N_16 
REMARK    7  A    between atoms: N_16  and  C_17 
REMARK    8  A    between atoms: C_19  and  O_20 
ROOT
HETATM    1  C   UNL     1      26.882  46.218  53.532  1.00  0.00     0.098 C 
HETATM    2  C   UNL     1      26.897  44.843  52.959  1.00  0.00     0.201 C 
HETATM    3  O   UNL     1      27.496  43.920  53.508  1.00  0.00    -0.286 OA
HETATM    4  C   UNL     1      26.175  44.615  51.677  1.00  0.00     0.043 A 
HETATM    5  C   UNL     1      25.422  45.672  51.129  1.00  0.00     0.046 A 
HETATM    6  N   UNL     1      25.318  46.887  51.818  1.00  0.00    -0.364 N 
HETATM    7  C   UNL     1      26.265  43.381  51.021  1.00  0.00     0.043 A 
HETATM    8  C   UNL     1      25.573  43.204  49.820  1.00  0.00     0.081 A 
HETATM    9  C   UNL     1      24.811  44.242  49.271  1.00  0.00     0.027 A 
HETATM   10  C   UNL     1      24.725  45.467  49.936  1.00  0.00     0.032 A 
HETATM   11  C   UNL     1      26.103  47.125  52.919  1.00  0.00     0.109 C 
HETATM   12  H   UNL     1      24.970  47.698  51.313  1.00  0.00     0.165 HD
ENDROOT
BRANCH   8  13
HETATM   13  S   UNL     1      25.697  41.662  48.934  1.00  0.00     0.263 S 
HETATM   14  O   UNL     1      25.450  40.605  49.893  1.00  0.00    -0.200 OA
HETATM   15  O   UNL     1      24.917  41.776  47.723  1.00  0.00    -0.200 OA
BRANCH  13  16
HETATM   16  N   UNL     1      27.340  41.580  48.555  1.00  0.00    -0.281 N 
HETATM   17  H   UNL     1      27.642  42.344  47.953  1.00  0.00     0.179 HD
BRANCH  16  18
HETATM   18  C   UNL     1      27.933  40.304  48.361  1.00  0.00     0.045 A 
HETATM   19  C   UNL     1      28.835  39.806  49.304  1.00  0.00     0.066 A 
HETATM   20  C   UNL     1      29.463  38.580  49.076  1.00  0.00     0.070 A 
HETATM   21  C   UNL     1      29.146  37.842  47.933  1.00  0.00     0.037 A 
HETATM   22  C   UNL     1      28.249  38.345  46.992  1.00  0.00     0.005 A 
HETATM   23  C   UNL     1      27.653  39.586  47.199  1.00  0.00     0.030 A 
BRANCH  20  24
HETATM   24  O   UNL     1      30.374  37.998  49.914  1.00  0.00    -0.356 OA
HETATM   25  C   UNL     1      29.824  37.228  50.978  1.00  0.00     0.210 C 
ENDBRANCH  20  24
ENDBRANCH  16  18
ENDBRANCH  13  16
ENDBRANCH   8  13
BRANCH   1  26
HETATM   26  C   UNL     1      27.693  46.664  54.700  1.00  0.00     0.257 C 
HETATM   27  N   UNL     1      28.120  45.665  55.537  1.00  0.00    -0.357 N 
HETATM   28  H   UNL     1      27.914  44.701  55.274  1.00  0.00     0.162 HD
HETATM   29  O   UNL     1      27.965  47.850  54.872  1.00  0.00    -0.267 OA
BRANCH  27  30
HETATM   30  C   UNL     1      29.063  45.896  56.613  1.00  0.00     0.123 C 
BRANCH  30  31
HETATM   31  C   UNL     1      30.480  45.425  56.276  1.00  0.00     0.023 C 
BRANCH  31  32
HETATM   32  C   UNL     1      30.632  43.894  56.354  1.00  0.00    -0.021 C 
HETATM   33  C   UNL     1      31.879  43.479  57.135  1.00  0.00     0.009 C 
HETATM   34  C   UNL     1      30.683  43.297  54.946  1.00  0.00     0.009 C 
ENDBRANCH  31  32
ENDBRANCH  30  31
ENDBRANCH  27  30
ENDBRANCH   1  26
TORSDOF 8
ENDMDL
MODEL 7
REMARK VINA RESULT:      -8.4      2.601      9.757
REMARK  8 active torsions:
REMARK  status: ('A' for Active; 'I' for Inactive)
REMARK    1  A    between atoms: C_2  and  C_3 
REMARK    2  A    between atoms: C_3  and  C_4 
REMARK    3  A    between atoms: C_4  and  N_5 
REMARK       I    between atoms: N_5  and  C_6 
REMARK    4  A    between atoms: C_6  and  C_7 
REMARK    5  A    between atoms: C_14  and  S_15 
REMARK    6  A    between atoms: S_15  and  N_16 
REMARK    7  A    between atoms: N_16  and  C_17 
REMARK    8  A    between atoms: C_19  and  O_20 
ROOT
HETATM    1  C   UNL     1      22.472  49.888  48.295  1.00  0.00     0.098 C 
HETATM    2  C   UNL     1      22.591  48.490  48.798  1.00  0.00     0.201 C 
HETATM    3  O   UNL     1      21.615  47.747  48.876  1.00  0.00    -0.286 OA
HETATM    4  C   UNL     1      23.936  48.017  49.229  1.00  0.00     0.043 A 
HETATM    5  C   UNL     1      25.043  48.865  49.035  1.00  0.00     0.046 A 
HETATM    6  N   UNL     1      24.876  50.101  48.397  1.00  0.00    -0.364 N 
HETATM    7  C   UNL     1      24.087  46.764  49.835  1.00  0.00     0.043 A 
HETATM    8  C   UNL     1      25.364  46.353  50.225  1.00  0.00     0.081 A 
HETATM    9  C   UNL     1      26.475  47.181  50.026  1.00  0.00     0.027 A 
HETATM   10  C   UNL     1      26.314  48.427  49.417  1.00  0.00     0.032 A 
HETATM   11  C   UNL     1      23.614  50.578  48.140  1.00  0.00     0.109 C 
HETATM   12  H   UNL     1      25.624  50.785  48.468  1.00  0.00     0.165 HD
ENDROOT
BRANCH   8  13
HETATM   13  S   UNL     1      25.591  44.783  51.038  1.00  0.00     0.263 S 
HETATM   14  O   UNL     1      24.529  43.914  50.576  1.00  0.00    -0.200 OA
HETATM   15  O   UNL     1      26.980  44.407  50.909  1.00  0.00    -0.200 OA
BRANCH  13  16
HETATM   16  N   UNL     1      25.239  45.143  52.649  1.00  0.00    -0.281 N 
HETATM   17  H   UNL     1      24.273  45.435  52.784  1.00  0.00     0.179 HD
BRANCH  16  18
HETATM   18  C   UNL     1      26.240  45.762  53.444  1.00  0.00     0.045 A 
HETATM   19  C   UNL     1      27.290  44.997  53.960  1.00  0.00     0.066 A 
HETATM   20  C   UNL     1      28.235  45.599  54.793  1.00  0.00     0.070 A 
HETATM   21  C   UNL     1      28.150  46.966  55.063  1.00  0.00     0.037 A 
HETATM   22  C   UNL     1      27.098  47.724  54.551  1.00  0.00     0.005 A 
HETATM   23  C   UNL     1      26.132  47.117  53.753  1.00  0.00     0.030 A 
BRANCH  20  24
HETATM   24  O   UNL     1      29.295  44.954  55.369  1.00  0.00    -0.356 OA
HETATM   25  C   UNL     1      29.910  45.637  56.457  1.00  0.00     0.210 C 
ENDBRANCH  20  24
ENDBRANCH  16  18
ENDBRANCH  13  16
ENDBRANCH   8  13
BRANCH   1  26
HETATM   26  C   UNL     1      21.187  50.581  47.996  1.00  0.00     0.257 C 
HETATM   27  N   UNL     1      20.292  49.862  47.245  1.00  0.00    -0.357 N 
HETATM   28  H   UNL     1      20.534  48.901  47.004  1.00  0.00     0.162 HD
HETATM   29  O   UNL     1      20.958  51.711  48.419  1.00  0.00    -0.267 OA
BRANCH  27  30
HETATM   30  C   UNL     1      18.932  50.306  47.014  1.00  0.00     0.123 C 
BRANCH  30  31
HETATM   31  C   UNL     1      18.073  50.285  48.281  1.00  0.00     0.023 C 
BRANCH  31  32
HETATM   32  C   UNL     1      17.360  51.625  48.538  1.00  0.00    -0.021 C 
HETATM   33  C   UNL     1      17.872  52.316  49.803  1.00  0.00     0.009 C 
HETATM   34  C   UNL     1      15.849  51.406  48.647  1.00  0.00     0.009 C 
ENDBRANCH  31  32
ENDBRANCH  30  31
ENDBRANCH  27  30
ENDBRANCH   1  26
TORSDOF 8
ENDMDL
MODEL 8
REMARK VINA RESULT:      -8.3      2.675      3.492
REMARK  8 active torsions:
REMARK  status: ('A' for Active; 'I' for Inactive)
REMARK    1  A    between atoms: C_2  and  C_3 
REMARK    2  A    between atoms: C_3  and  C_4 
REMARK    3  A    between atoms: C_4  and  N_5 
REMARK       I    between atoms: N_5  and  C_6 
REMARK    4  A    between atoms: C_6  and  C_7 
REMARK    5  A    between atoms: C_14  and  S_15 
REMARK    6  A    between atoms: S_15  and  N_16 
REMARK    7  A    between atoms: N_16  and  C_17 
REMARK    8  A    between atoms: C_19  and  O_20 
ROOT
HETATM    1  C   UNL     1      25.890  46.740  49.863  1.00  0.00     0.098 C 
HETATM    2  C   UNL     1      24.409  46.773  49.702  1.00  0.00     0.201 C 
HETATM    3  O   UNL     1      23.702  45.824  50.033  1.00  0.00    -0.286 OA
HETATM    4  C   UNL     1      23.800  47.994  49.104  1.00  0.00     0.043 A 
HETATM    5  C   UNL     1      24.632  49.096  48.827  1.00  0.00     0.046 A 
HETATM    6  N   UNL     1      25.991  49.050  49.167  1.00  0.00    -0.364 N 
HETATM    7  C   UNL     1      22.434  48.031  48.803  1.00  0.00     0.043 A 
HETATM    8  C   UNL     1      21.897  49.194  48.244  1.00  0.00     0.081 A 
HETATM    9  C   UNL     1      22.711  50.302  47.976  1.00  0.00     0.027 A 
HETATM   10  C   UNL     1      24.072  50.255  48.283  1.00  0.00     0.032 A 
HETATM   11  C   UNL     1      26.558  47.871  49.581  1.00  0.00     0.109 C 
HETATM   12  H   UNL     1      26.611  49.746  48.762  1.00  0.00     0.165 HD
ENDROOT
BRANCH   8  13
HETATM   13  S   UNL     1      20.171  49.265  47.808  1.00  0.00     0.263 S 
HETATM   14  O   UNL     1      20.038  50.280  46.784  1.00  0.00    -0.200 OA
HETATM   15  O   UNL     1      19.706  47.914  47.593  1.00  0.00    -0.200 OA
BRANCH  13  16
HETATM   16  N   UNL     1      19.460  49.904  49.200  1.00  0.00    -0.281 N 
HETATM   17  H   UNL     1      19.651  49.346  50.030  1.00  0.00     0.179 HD
BRANCH  16  18
HETATM   18  C   UNL     1      18.186  50.523  49.092  1.00  0.00     0.045 A 
HETATM   19  C   UNL     1      17.981  51.791  49.641  1.00  0.00     0.066 A 
HETATM   20  C   UNL     1      16.710  52.367  49.588  1.00  0.00     0.070 A 
HETATM   21  C   UNL     1      15.670  51.692  48.945  1.00  0.00     0.037 A 
HETATM   22  C   UNL     1      15.877  50.424  48.403  1.00  0.00     0.005 A 
HETATM   23  C   UNL     1      17.135  49.832  48.491  1.00  0.00     0.030 A 
BRANCH  20  24
HETATM   24  O   UNL     1      16.382  53.591  50.103  1.00  0.00    -0.356 OA
HETATM   25  C   UNL     1      15.111  53.667  50.741  1.00  0.00     0.210 C 
ENDBRANCH  20  24
ENDBRANCH  16  18
ENDBRANCH  13  16
ENDBRANCH   8  13
BRANCH   1  26
HETATM   26  C   UNL     1      26.677  45.542  50.271  1.00  0.00     0.257 C 
HETATM   27  N   UNL     1      26.632  45.234  51.607  1.00  0.00    -0.357 N 
HETATM   28  H   UNL     1      26.024  45.794  52.205  1.00  0.00     0.162 HD
HETATM   29  O   UNL     1      27.302  44.879  49.446  1.00  0.00    -0.267 OA
BRANCH  27  30
HETATM   30  C   UNL     1      27.186  44.008  52.145  1.00  0.00     0.123 C 
BRANCH  30  31
HETATM   31  C   UNL     1      28.115  44.246  53.338  1.00  0.00     0.023 C 
BRANCH  31  32
HETATM   32  C   UNL     1      28.839  42.965  53.793  1.00  0.00    -0.021 C 
HETATM   33  C   UNL     1      30.219  42.826  53.150  1.00  0.00     0.009 C 
HETATM   34  C   UNL     1      27.990  41.734  53.462  1.00  0.00     0.009 C 
ENDBRANCH  31  32
ENDBRANCH  30  31
ENDBRANCH  27  30
ENDBRANCH   1  26
TORSDOF 8
ENDMDL
MODEL 9
REMARK VINA RESULT:      -8.3      2.812      9.951
REMARK  8 active torsions:
REMARK  status: ('A' for Active; 'I' for Inactive)
REMARK    1  A    between atoms: C_2  and  C_3 
REMARK    2  A    between atoms: C_3  and  C_4 
REMARK    3  A    between atoms: C_4  and  N_5 
REMARK       I    between atoms: N_5  and  C_6 
REMARK    4  A    between atoms: C_6  and  C_7 
REMARK    5  A    between atoms: C_14  and  S_15 
REMARK    6  A    between atoms: S_15  and  N_16 
REMARK    7  A    between atoms: N_16  and  C_17 
REMARK    8  A    between atoms: C_19  and  O_20 
ROOT
HETATM    1  C   UNL     1      22.696  48.142  48.889  1.00  0.00     0.098 C 
HETATM    2  C   UNL     1      22.929  46.688  49.115  1.00  0.00     0.201 C 
HETATM    3  O   UNL     1      22.044  45.856  48.930  1.00  0.00    -0.286 OA
HETATM    4  C   UNL     1      24.273  46.265  49.596  1.00  0.00     0.043 A 
HETATM    5  C   UNL     1      25.288  47.236  49.704  1.00  0.00     0.046 A 
HETATM    6  N   UNL     1      25.038  48.557  49.309  1.00  0.00    -0.364 N 
HETATM    7  C   UNL     1      24.512  44.933  49.955  1.00  0.00     0.043 A 
HETATM    8  C   UNL     1      25.786  44.573  50.401  1.00  0.00     0.081 A 
HETATM    9  C   UNL     1      26.807  45.525  50.501  1.00  0.00     0.027 A 
HETATM   10  C   UNL     1      26.559  46.851  50.137  1.00  0.00     0.032 A 
HETATM   11  C   UNL     1      23.759  48.955  49.007  1.00  0.00     0.109 C 
HETATM   12  H   UNL     1      25.691  49.278  49.600  1.00  0.00     0.165 HD
ENDROOT
BRANCH   8  13
HETATM   13  S   UNL     1      26.117  42.896  50.907  1.00  0.00     0.263 S 
HETATM   14  O   UNL     1      24.990  42.096  50.476  1.00  0.00    -0.200 OA
HETATM   15  O   UNL     1      27.468  42.566  50.514  1.00  0.00    -0.200 OA
BRANCH  13  16
HETATM   16  N   UNL     1      26.014  42.987  52.590  1.00  0.00    -0.281 N 
HETATM   17  H   UNL     1      25.149  43.420  52.908  1.00  0.00     0.179 HD
BRANCH  16  18
HETATM   18  C   UNL     1      27.199  43.240  53.333  1.00  0.00     0.045 A 
HETATM   19  C   UNL     1      27.382  44.482  53.946  1.00  0.00     0.066 A 
HETATM   20  C   UNL     1      28.576  44.747  54.620  1.00  0.00     0.070 A 
HETATM   21  C   UNL     1      29.552  43.754  54.716  1.00  0.00     0.037 A 
HETATM   22  C   UNL     1      29.367  42.517  54.099  1.00  0.00     0.005 A 
HETATM   23  C   UNL     1      28.194  42.266  53.392  1.00  0.00     0.030 A 
BRANCH  20  24
HETATM   24  O   UNL     1      28.878  45.927  55.243  1.00  0.00    -0.356 OA
HETATM   25  C   UNL     1      28.090  47.047  54.853  1.00  0.00     0.210 C 
ENDBRANCH  20  24
ENDBRANCH  16  18
ENDBRANCH  13  16
ENDBRANCH   8  13
BRANCH   1  26
HETATM   26  C   UNL     1      21.373  48.757  48.586  1.00  0.00     0.257 C 
HETATM   27  N   UNL     1      20.729  49.327  49.656  1.00  0.00    -0.357 N 
HETATM   28  H   UNL     1      21.218  49.348  50.551  1.00  0.00     0.162 HD
HETATM   29  O   UNL     1      20.916  48.759  47.446  1.00  0.00    -0.267 OA
BRANCH  27  30
HETATM   30  C   UNL     1      19.527  50.123  49.511  1.00  0.00     0.123 C 
BRANCH  30  31
HETATM   31  C   UNL     1      19.814  51.620  49.380  1.00  0.00     0.023 C 
BRANCH  31  32
HETATM   32  C   UNL     1      18.648  52.394  48.735  1.00  0.00    -0.021 C 
HETATM   33  C   UNL     1      17.451  52.520  49.677  1.00  0.00     0.009 C 
HETATM   34  C   UNL     1      18.214  51.708  47.438  1.00  0.00     0.009 C 
ENDBRANCH  31  32
ENDBRANCH  30  31
ENDBRANCH  27  30
ENDBRANCH   1  26
TORSDOF 8
ENDMDL
MODEL 10
REMARK VINA RESULT:      -8.2      3.156      9.716
REMARK  8 active torsions:
REMARK  status: ('A' for Active; 'I' for Inactive)
REMARK    1  A    between atoms: C_2  and  C_3 
REMARK    2  A    between atoms: C_3  and  C_4 
REMARK    3  A    between atoms: C_4  and  N_5 
REMARK       I    between atoms: N_5  and  C_6 
REMARK    4  A    between atoms: C_6  and  C_7 
REMARK    5  A    between atoms: C_14  and  S_15 
REMARK    6  A    between atoms: S_15  and  N_16 
REMARK    7  A    between atoms: N_16  and  C_17 
REMARK    8  A    between atoms: C_19  and  O_20 
ROOT
HETATM    1  C   UNL     1      22.942  45.194  48.518  1.00  0.00     0.098 C 
HETATM    2  C   UNL     1      23.965  44.990  49.582  1.00  0.00     0.201 C 
HETATM    3  O   UNL     1      24.288  45.893  50.350  1.00  0.00    -0.286 OA
HETATM    4  C   UNL     1      24.609  43.651  49.680  1.00  0.00     0.043 A 
HETATM    5  C   UNL     1      24.145  42.615  48.846  1.00  0.00     0.046 A 
HETATM    6  N   UNL     1      23.060  42.840  47.989  1.00  0.00    -0.364 N 
HETATM    7  C   UNL     1      25.670  43.437  50.569  1.00  0.00     0.043 A 
HETATM    8  C   UNL     1      26.250  42.167  50.635  1.00  0.00     0.081 A 
HETATM    9  C   UNL     1      25.789  41.126  49.821  1.00  0.00     0.027 A 
HETATM   10  C   UNL     1      24.727  41.348  48.941  1.00  0.00     0.032 A 
HETATM   11  C   UNL     1      22.577  44.113  47.809  1.00  0.00     0.109 C 
HETATM   12  H   UNL     1      22.887  42.169  47.245  1.00  0.00     0.165 HD
ENDROOT
BRANCH   8  13
HETATM   13  S   UNL     1      27.630  41.867  51.722  1.00  0.00     0.263 S 
HETATM   14  O   UNL     1      27.080  41.427  52.987  1.00  0.00    -0.200 OA
HETATM   15  O   UNL     1      28.601  41.072  51.006  1.00  0.00    -0.200 OA
BRANCH  13  16
HETATM   16  N   UNL     1      28.241  43.419  51.987  1.00  0.00    -0.281 N 
HETATM   17  H   UNL     1      28.631  43.836  51.144  1.00  0.00     0.179 HD
BRANCH  16  18
HETATM   18  C   UNL     1      28.877  43.699  53.226  1.00  0.00     0.045 A 
HETATM   19  C   UNL     1      28.387  44.720  54.043  1.00  0.00     0.066 A 
HETATM   20  C   UNL     1      29.055  45.033  55.229  1.00  0.00     0.070 A 
HETATM   21  C   UNL     1      30.175  44.291  55.610  1.00  0.00     0.037 A 
HETATM   22  C   UNL     1      30.663  43.275  54.788  1.00  0.00     0.005 A 
HETATM   23  C   UNL     1      30.022  42.989  53.586  1.00  0.00     0.030 A 
BRANCH  20  24
HETATM   24  O   UNL     1      28.683  46.019  56.101  1.00  0.00    -0.356 OA
HETATM   25  C   UNL     1      29.277  45.950  57.394  1.00  0.00     0.210 C 
ENDBRANCH  20  24
ENDBRANCH  16  18
ENDBRANCH  13  16
ENDBRANCH   8  13
BRANCH   1  26
HETATM   26  C   UNL     1      22.334  46.506  48.160  1.00  0.00     0.257 C 
HETATM   27  N   UNL     1      21.787  47.207  49.206  1.00  0.00    -0.357 N 
HETATM   28  H   UNL     1      21.891  46.821  50.145  1.00  0.00     0.162 HD
HETATM   29  O   UNL     1      22.348  46.922  47.005  1.00  0.00    -0.267 OA
BRANCH  27  30
HETATM   30  C   UNL     1      21.318  48.571  49.073  1.00  0.00     0.123 C 
BRANCH  30  31
HETATM   31  C   UNL     1      22.293  49.597  49.655  1.00  0.00     0.023 C 
BRANCH  31  32
HETATM   32  C   UNL     1      22.373  50.885  48.812  1.00  0.00    -0.021 C 
HETATM   33  C   UNL     1      20.993  51.364  48.362  1.00  0.00     0.009 C 
HETATM   34  C   UNL     1      23.265  50.659  47.589  1.00  0.00     0.009 C 
ENDBRANCH  31  32
ENDBRANCH  30  31
ENDBRANCH  27  30
ENDBRANCH   1  26
TORSDOF 8
ENDMDL
