MODEL 1
REMARK VINA RESULT:      -8.3      0.000      0.000
REMARK  5 active torsions:
REMARK  status: ('A' for Active; 'I' for Inactive)
REMARK    1  A    between atoms: C_3  and  N_4 
REMARK       I    between atoms: N_4  and  C_5 
REMARK       I    between atoms: C_5  and  N_6 
REMARK    2  A    between atoms: N_6  and  N_7 
REMARK    3  A    between atoms: N_7  and  C_8 
REMARK    4  A    between atoms: N_7  and  C_14 
REMARK    5  A    between atoms: C_14  and  C_15 
ROOT
HETATM    1  N   UNL     1      26.845  43.649  52.808  1.00  0.00    -0.284 N 
ENDROOT
BRANCH   1   2
HETATM    2  N   UNL     1      26.682  42.430  52.113  1.00  0.00    -0.249 N 
HETATM    3  C   UNL     1      27.802  41.823  51.547  1.00  0.00     0.339 C 
HETATM    4  N   UNL     1      27.503  40.535  51.131  1.00  0.00    -0.306 N 
HETATM    5  O   UNL     1      28.898  42.363  51.462  1.00  0.00    -0.245 OA
HETATM    6  H   UNL     1      26.781  40.095  51.682  1.00  0.00     0.171 HD
HETATM    7  H   UNL     1      25.888  41.883  52.417  1.00  0.00     0.192 HD
BRANCH   4   8
HETATM    8  C   UNL     1      28.395  39.650  50.477  1.00  0.00     0.059 A 
HETATM    9  C   UNL     1      28.477  39.434  49.094  1.00  0.00    -0.032 A 
HETATM   10  C   UNL     1      27.560  40.047  48.075  1.00  0.00     0.050 C 
HETATM   11  C   UNL     1      29.466  38.554  48.617  1.00  0.00     0.028 A 
HETATM   12  C   UNL     1      30.278  37.882  49.516  1.00  0.00     0.117 A 
HETATM   13  N   UNL     1      30.176  38.012  50.851  1.00  0.00    -0.271 NA
HETATM   14  C   UNL     1      29.239  38.886  51.292  1.00  0.00     0.146 A 
ENDBRANCH   4   8
ENDBRANCH   1   2
BRANCH   1  15
HETATM   15  C   UNL     1      26.433  44.808  52.132  1.00  0.00     0.051 A 
HETATM   16  C   UNL     1      25.845  45.888  52.818  1.00  0.00     0.031 A 
HETATM   17  C   UNL     1      25.439  47.054  52.159  1.00  0.00     0.002 A 
HETATM   18  C   UNL     1      25.604  47.172  50.784  1.00  0.00     0.000 A 
HETATM   19  C   UNL     1      26.165  46.119  50.073  1.00  0.00     0.002 A 
HETATM   20  C   UNL     1      26.568  44.955  50.740  1.00  0.00     0.031 A 
ENDBRANCH   1  15
BRANCH   1  21
HETATM   21  C   UNL     1      26.991  43.556  54.269  1.00  0.00     0.187 C 
BRANCH  21  22
HETATM   22  C   UNL     1      28.375  43.902  54.796  1.00  0.00    -0.038 A 
HETATM   23  C   UNL     1      29.462  43.014  54.770  1.00  0.00     0.009 A 
HETATM   24  C   UNL     1      30.699  43.377  55.309  1.00  0.00     0.001 A 
HETATM   25  C   UNL     1      30.867  44.627  55.896  1.00  0.00     0.000 A 
HETATM   26  C   UNL     1      29.798  45.518  55.945  1.00  0.00     0.001 A 
HETATM   27  C   UNL     1      28.562  45.158  55.402  1.00  0.00     0.009 A 
ENDBRANCH  21  22
ENDBRANCH   1  21
TORSDOF 5
ENDMDL
MODEL 2
REMARK VINA RESULT:      -8.2      1.669      2.780
REMARK  5 active torsions:
REMARK  status: ('A' for Active; 'I' for Inactive)
REMARK    1  A    between atoms: C_3  and  N_4 
REMARK       I    between atoms: N_4  and  C_5 
REMARK       I    between atoms: C_5  and  N_6 
REMARK    2  A    between atoms: N_6  and  N_7 
REMARK    3  A    between atoms: N_7  and  C_8 
REMARK    4  A    between atoms: N_7  and  C_14 
REMARK    5  A    between atoms: C_14  and  C_15 
ROOT
HETATM    1  N   UNL     1      28.861  42.693  53.174  1.00  0.00    -0.284 N 
ENDROOT
BRANCH   1   2
HETATM    2  N   UNL     1      28.652  41.348  52.795  1.00  0.00    -0.249 N 
HETATM    3  C   UNL     1      28.342  41.064  51.466  1.00  0.00     0.339 C 
HETATM    4  N   UNL     1      28.418  39.701  51.226  1.00  0.00    -0.306 N 
HETATM    5  O   UNL     1      28.069  41.920  50.633  1.00  0.00    -0.245 OA
HETATM    6  H   UNL     1      29.091  39.230  51.812  1.00  0.00     0.171 HD
HETATM    7  H   UNL     1      29.132  40.674  53.376  1.00  0.00     0.192 HD
BRANCH   4   8
HETATM    8  C   UNL     1      28.127  39.061  49.997  1.00  0.00     0.059 A 
HETATM    9  C   UNL     1      29.042  38.367  49.191  1.00  0.00    -0.032 A 
HETATM   10  C   UNL     1      30.517  38.267  49.459  1.00  0.00     0.050 C 
HETATM   11  C   UNL     1      28.560  37.744  48.025  1.00  0.00     0.028 A 
HETATM   12  C   UNL     1      27.229  37.884  47.672  1.00  0.00     0.117 A 
HETATM   13  N   UNL     1      26.343  38.603  48.384  1.00  0.00    -0.271 NA
HETATM   14  C   UNL     1      26.816  39.170  49.519  1.00  0.00     0.146 A 
ENDBRANCH   4   8
ENDBRANCH   1   2
BRANCH   1  15
HETATM   15  C   UNL     1      27.717  43.421  53.535  1.00  0.00     0.051 A 
HETATM   16  C   UNL     1      26.892  43.011  54.600  1.00  0.00     0.031 A 
HETATM   17  C   UNL     1      25.754  43.733  54.978  1.00  0.00     0.002 A 
HETATM   18  C   UNL     1      25.401  44.889  54.292  1.00  0.00     0.000 A 
HETATM   19  C   UNL     1      26.183  45.314  53.226  1.00  0.00     0.002 A 
HETATM   20  C   UNL     1      27.320  44.585  52.854  1.00  0.00     0.031 A 
ENDBRANCH   1  15
BRANCH   1  21
HETATM   21  C   UNL     1      30.229  43.053  53.580  1.00  0.00     0.187 C 
BRANCH  21  22
HETATM   22  C   UNL     1      30.341  43.684  54.960  1.00  0.00    -0.038 A 
HETATM   23  C   UNL     1      29.827  44.951  55.279  1.00  0.00     0.009 A 
HETATM   24  C   UNL     1      30.000  45.495  56.554  1.00  0.00     0.001 A 
HETATM   25  C   UNL     1      30.701  44.788  57.528  1.00  0.00     0.000 A 
HETATM   26  C   UNL     1      31.230  43.536  57.227  1.00  0.00     0.001 A 
HETATM   27  C   UNL     1      31.054  42.990  55.954  1.00  0.00     0.009 A 
ENDBRANCH  21  22
ENDBRANCH   1  21
TORSDOF 5
ENDMDL
MODEL 3
REMARK VINA RESULT:      -8.1      2.178      3.450
REMARK  5 active torsions:
REMARK  status: ('A' for Active; 'I' for Inactive)
REMARK    1  A    between atoms: C_3  and  N_4 
REMARK       I    between atoms: N_4  and  C_5 
REMARK       I    between atoms: C_5  and  N_6 
REMARK    2  A    between atoms: N_6  and  N_7 
REMARK    3  A    between atoms: N_7  and  C_8 
REMARK    4  A    between atoms: N_7  and  C_14 
REMARK    5  A    between atoms: C_14  and  C_15 
ROOT
HETATM    1  N   UNL     1      25.689  46.276  50.814  1.00  0.00    -0.284 N 
ENDROOT
BRANCH   1   2
HETATM    2  N   UNL     1      25.547  45.053  50.121  1.00  0.00    -0.249 N 
HETATM    3  C   UNL     1      26.625  44.170  50.086  1.00  0.00     0.339 C 
HETATM    4  N   UNL     1      26.232  42.937  49.587  1.00  0.00    -0.306 N 
HETATM    5  O   UNL     1      27.751  44.455  50.472  1.00  0.00    -0.245 OA
HETATM    6  H   UNL     1      25.266  42.718  49.782  1.00  0.00     0.171 HD
HETATM    7  H   UNL     1      24.594  44.719  50.061  1.00  0.00     0.192 HD
BRANCH   4   8
HETATM    8  C   UNL     1      27.080  41.822  49.378  1.00  0.00     0.059 A 
HETATM    9  C   UNL     1      27.625  41.001  50.375  1.00  0.00    -0.032 A 
HETATM   10  C   UNL     1      27.470  41.228  51.852  1.00  0.00     0.050 C 
HETATM   11  C   UNL     1      28.405  39.900  49.976  1.00  0.00     0.028 A 
HETATM   12  C   UNL     1      28.666  39.695  48.631  1.00  0.00     0.117 A 
HETATM   13  N   UNL     1      28.219  40.506  47.656  1.00  0.00    -0.271 NA
HETATM   14  C   UNL     1      27.444  41.543  48.055  1.00  0.00     0.146 A 
ENDBRANCH   4   8
ENDBRANCH   1   2
BRANCH   1  15
HETATM   15  C   UNL     1      25.816  47.427  50.022  1.00  0.00     0.051 A 
HETATM   16  C   UNL     1      27.078  47.953  49.690  1.00  0.00     0.031 A 
HETATM   17  C   UNL     1      27.221  49.094  48.891  1.00  0.00     0.002 A 
HETATM   18  C   UNL     1      26.097  49.751  48.406  1.00  0.00     0.000 A 
HETATM   19  C   UNL     1      24.834  49.269  48.728  1.00  0.00     0.002 A 
HETATM   20  C   UNL     1      24.700  48.127  49.527  1.00  0.00     0.031 A 
ENDBRANCH   1  15
BRANCH   1  21
HETATM   21  C   UNL     1      25.251  46.286  52.219  1.00  0.00     0.187 C 
BRANCH  21  22
HETATM   22  C   UNL     1      26.379  46.304  53.240  1.00  0.00    -0.038 A 
HETATM   23  C   UNL     1      27.036  45.148  53.691  1.00  0.00     0.009 A 
HETATM   24  C   UNL     1      28.037  45.226  54.663  1.00  0.00     0.001 A 
HETATM   25  C   UNL     1      28.387  46.456  55.211  1.00  0.00     0.000 A 
HETATM   26  C   UNL     1      27.736  47.612  54.787  1.00  0.00     0.001 A 
HETATM   27  C   UNL     1      26.740  47.537  53.812  1.00  0.00     0.009 A 
ENDBRANCH  21  22
ENDBRANCH   1  21
TORSDOF 5
ENDMDL
MODEL 4
REMARK VINA RESULT:      -8.1      1.312      4.450
REMARK  5 active torsions:
REMARK  status: ('A' for Active; 'I' for Inactive)
REMARK    1  A    between atoms: C_3  and  N_4 
REMARK       I    between atoms: N_4  and  C_5 
REMARK       I    between atoms: C_5  and  N_6 
REMARK    2  A    between atoms: N_6  and  N_7 
REMARK    3  A    between atoms: N_7  and  C_8 
REMARK    4  A    between atoms: N_7  and  C_14 
REMARK    5  A    between atoms: C_14  and  C_15 
ROOT
HETATM    1  N   UNL     1      27.880  43.473  53.961  1.00  0.00    -0.284 N 
ENDROOT
BRANCH   1   2
HETATM    2  N   UNL     1      28.226  42.988  52.679  1.00  0.00    -0.249 N 
HETATM    3  C   UNL     1      27.954  41.657  52.367  1.00  0.00     0.339 C 
HETATM    4  N   UNL     1      28.127  41.427  51.011  1.00  0.00    -0.306 N 
HETATM    5  O   UNL     1      27.589  40.826  53.190  1.00  0.00    -0.245 OA
HETATM    6  H   UNL     1      27.942  42.240  50.442  1.00  0.00     0.171 HD
HETATM    7  H   UNL     1      28.255  43.699  51.961  1.00  0.00     0.192 HD
BRANCH   4   8
HETATM    8  C   UNL     1      27.975  40.179  50.359  1.00  0.00     0.059 A 
HETATM    9  C   UNL     1      26.871  39.778  49.592  1.00  0.00    -0.032 A 
HETATM   10  C   UNL     1      25.615  40.582  49.412  1.00  0.00     0.050 C 
HETATM   11  C   UNL     1      26.918  38.517  48.969  1.00  0.00     0.028 A 
HETATM   12  C   UNL     1      28.008  37.688  49.179  1.00  0.00     0.117 A 
HETATM   13  N   UNL     1      29.048  38.014  49.967  1.00  0.00    -0.271 NA
HETATM   14  C   UNL     1      29.001  39.243  50.534  1.00  0.00     0.146 A 
ENDBRANCH   4   8
ENDBRANCH   1   2
BRANCH   1  15
HETATM   15  C   UNL     1      28.946  43.858  54.787  1.00  0.00     0.051 A 
HETATM   16  C   UNL     1      29.005  45.142  55.360  1.00  0.00     0.031 A 
HETATM   17  C   UNL     1      30.057  45.536  56.195  1.00  0.00     0.002 A 
HETATM   18  C   UNL     1      31.092  44.653  56.478  1.00  0.00     0.000 A 
HETATM   19  C   UNL     1      31.075  43.383  55.917  1.00  0.00     0.002 A 
HETATM   20  C   UNL     1      30.019  42.996  55.082  1.00  0.00     0.031 A 
ENDBRANCH   1  15
BRANCH   1  21
HETATM   21  C   UNL     1      26.495  43.940  54.131  1.00  0.00     0.187 C 
BRANCH  21  22
HETATM   22  C   UNL     1      26.016  44.919  53.070  1.00  0.00    -0.038 A 
HETATM   23  C   UNL     1      26.388  46.273  53.038  1.00  0.00     0.009 A 
HETATM   24  C   UNL     1      25.880  47.133  52.062  1.00  0.00     0.001 A 
HETATM   25  C   UNL     1      24.981  46.660  51.111  1.00  0.00     0.000 A 
HETATM   26  C   UNL     1      24.587  45.325  51.135  1.00  0.00     0.001 A 
HETATM   27  C   UNL     1      25.099  44.463  52.107  1.00  0.00     0.009 A 
ENDBRANCH  21  22
ENDBRANCH   1  21
TORSDOF 5
ENDMDL
MODEL 5
REMARK VINA RESULT:      -8.1      1.672      6.912
REMARK  5 active torsions:
REMARK  status: ('A' for Active; 'I' for Inactive)
REMARK    1  A    between atoms: C_3  and  N_4 
REMARK       I    between atoms: N_4  and  C_5 
REMARK       I    between atoms: C_5  and  N_6 
REMARK    2  A    between atoms: N_6  and  N_7 
REMARK    3  A    between atoms: N_7  and  C_8 
REMARK    4  A    between atoms: N_7  and  C_14 
REMARK    5  A    between atoms: C_14  and  C_15 
ROOT
HETATM    1  N   UNL     1      27.408  40.854  51.105  1.00  0.00    -0.284 N 
ENDROOT
BRANCH   1   2
HETATM    2  N   UNL     1      27.656  41.143  52.466  1.00  0.00    -0.249 N 
HETATM    3  C   UNL     1      28.383  42.288  52.789  1.00  0.00     0.339 C 
HETATM    4  N   UNL     1      28.316  42.543  54.150  1.00  0.00    -0.306 N 
HETATM    5  O   UNL     1      28.972  42.975  51.964  1.00  0.00    -0.245 OA
HETATM    6  H   UNL     1      27.458  42.221  54.574  1.00  0.00     0.171 HD
HETATM    7  H   UNL     1      26.970  40.762  53.103  1.00  0.00     0.192 HD
BRANCH   4   8
HETATM    8  C   UNL     1      28.971  43.601  54.826  1.00  0.00     0.059 A 
HETATM    9  C   UNL     1      28.478  44.903  54.993  1.00  0.00    -0.032 A 
HETATM   10  C   UNL     1      27.198  45.418  54.397  1.00  0.00     0.050 C 
HETATM   11  C   UNL     1      29.245  45.812  55.745  1.00  0.00     0.028 A 
HETATM   12  C   UNL     1      30.480  45.425  56.238  1.00  0.00     0.117 A 
HETATM   13  N   UNL     1      31.013  44.207  56.032  1.00  0.00    -0.271 NA
HETATM   14  C   UNL     1      30.248  43.335  55.333  1.00  0.00     0.146 A 
ENDBRANCH   4   8
ENDBRANCH   1   2
BRANCH   1  15
HETATM   15  C   UNL     1      28.247  39.899  50.511  1.00  0.00     0.051 A 
HETATM   16  C   UNL     1      28.244  39.684  49.120  1.00  0.00     0.031 A 
HETATM   17  C   UNL     1      29.083  38.743  48.512  1.00  0.00     0.002 A 
HETATM   18  C   UNL     1      29.949  37.978  49.284  1.00  0.00     0.000 A 
HETATM   19  C   UNL     1      29.967  38.152  50.662  1.00  0.00     0.002 A 
HETATM   20  C   UNL     1      29.124  39.096  51.262  1.00  0.00     0.031 A 
ENDBRANCH   1  15
BRANCH   1  21
HETATM   21  C   UNL     1      26.077  41.215  50.592  1.00  0.00     0.187 C 
BRANCH  21  22
HETATM   22  C   UNL     1      25.810  42.710  50.506  1.00  0.00    -0.038 A 
HETATM   23  C   UNL     1      26.458  43.565  49.600  1.00  0.00     0.009 A 
HETATM   24  C   UNL     1      26.201  44.938  49.599  1.00  0.00     0.001 A 
HETATM   25  C   UNL     1      25.304  45.483  50.513  1.00  0.00     0.000 A 
HETATM   26  C   UNL     1      24.662  44.655  51.430  1.00  0.00     0.001 A 
HETATM   27  C   UNL     1      24.915  43.281  51.429  1.00  0.00     0.009 A 
ENDBRANCH  21  22
ENDBRANCH   1  21
TORSDOF 5
ENDMDL
MODEL 6
REMARK VINA RESULT:      -8.0      1.556      2.237
REMARK  5 active torsions:
REMARK  status: ('A' for Active; 'I' for Inactive)
REMARK    1  A    between atoms: C_3  and  N_4 
REMARK       I    between atoms: N_4  and  C_5 
REMARK       I    between atoms: C_5  and  N_6 
REMARK    2  A    between atoms: N_6  and  N_7 
REMARK    3  A    between atoms: N_7  and  C_8 
REMARK    4  A    between atoms: N_7  and  C_14 
REMARK    5  A    between atoms: C_14  and  C_15 
ROOT
HETATM    1  N   UNL     1      27.991  43.128  52.379  1.00  0.00    -0.284 N 
ENDROOT
BRANCH   1   2
HETATM    2  N   UNL     1      28.663  42.249  51.499  1.00  0.00    -0.249 N 
HETATM    3  C   UNL     1      27.959  41.178  50.950  1.00  0.00     0.339 C 
HETATM    4  N   UNL     1      28.691  40.581  49.936  1.00  0.00    -0.306 N 
HETATM    5  O   UNL     1      26.838  40.844  51.312  1.00  0.00    -0.245 OA
HETATM    6  H   UNL     1      29.304  41.223  49.455  1.00  0.00     0.171 HD
HETATM    7  H   UNL     1      29.443  42.668  51.012  1.00  0.00     0.192 HD
BRANCH   4   8
HETATM    8  C   UNL     1      28.296  39.443  49.192  1.00  0.00     0.059 A 
HETATM    9  C   UNL     1      28.676  38.117  49.446  1.00  0.00    -0.032 A 
HETATM   10  C   UNL     1      29.649  37.694  50.510  1.00  0.00     0.050 C 
HETATM   11  C   UNL     1      28.138  37.104  48.632  1.00  0.00     0.028 A 
HETATM   12  C   UNL     1      27.312  37.441  47.572  1.00  0.00     0.117 A 
HETATM   13  N   UNL     1      26.988  38.708  47.257  1.00  0.00    -0.271 NA
HETATM   14  C   UNL     1      27.488  39.668  48.070  1.00  0.00     0.146 A 
ENDBRANCH   4   8
ENDBRANCH   1   2
BRANCH   1  15
HETATM   15  C   UNL     1      27.030  43.971  51.799  1.00  0.00     0.051 A 
HETATM   16  C   UNL     1      27.276  44.637  50.583  1.00  0.00     0.031 A 
HETATM   17  C   UNL     1      26.323  45.472  49.988  1.00  0.00     0.002 A 
HETATM   18  C   UNL     1      25.092  45.674  50.600  1.00  0.00     0.000 A 
HETATM   19  C   UNL     1      24.822  45.046  51.809  1.00  0.00     0.002 A 
HETATM   20  C   UNL     1      25.781  44.212  52.398  1.00  0.00     0.031 A 
ENDBRANCH   1  15
BRANCH   1  21
HETATM   21  C   UNL     1      28.024  42.777  53.807  1.00  0.00     0.187 C 
BRANCH  21  22
HETATM   22  C   UNL     1      28.973  43.617  54.649  1.00  0.00    -0.038 A 
HETATM   23  C   UNL     1      30.203  43.146  55.137  1.00  0.00     0.009 A 
HETATM   24  C   UNL     1      31.011  43.953  55.942  1.00  0.00     0.001 A 
HETATM   25  C   UNL     1      30.597  45.237  56.286  1.00  0.00     0.000 A 
HETATM   26  C   UNL     1      29.374  45.716  55.824  1.00  0.00     0.001 A 
HETATM   27  C   UNL     1      28.568  44.913  55.015  1.00  0.00     0.009 A 
ENDBRANCH  21  22
ENDBRANCH   1  21
TORSDOF 5
ENDMDL
MODEL 7
REMARK VINA RESULT:      -7.9      1.850      6.482
REMARK  5 active torsions:
REMARK  status: ('A' for Active; 'I' for Inactive)
REMARK    1  A    between atoms: C_3  and  N_4 
REMARK       I    between atoms: N_4  and  C_5 
REMARK       I    between atoms: C_5  and  N_6 
REMARK    2  A    between atoms: N_6  and  N_7 
REMARK    3  A    between atoms: N_7  and  C_8 
REMARK    4  A    between atoms: N_7  and  C_14 
REMARK    5  A    between atoms: C_14  and  C_15 
ROOT
HETATM    1  N   UNL     1      26.321  42.369  50.839  1.00  0.00    -0.284 N 
ENDROOT
BRANCH   1   2
HETATM    2  N   UNL     1      26.714  42.312  52.196  1.00  0.00    -0.249 N 
HETATM    3  C   UNL     1      27.779  43.104  52.622  1.00  0.00     0.339 C 
HETATM    4  N   UNL     1      27.861  43.109  54.006  1.00  0.00    -0.306 N 
HETATM    5  O   UNL     1      28.513  43.723  51.863  1.00  0.00    -0.245 OA
HETATM    6  H   UNL     1      26.967  42.989  54.459  1.00  0.00     0.171 HD
HETATM    7  H   UNL     1      25.973  42.044  52.830  1.00  0.00     0.192 HD
BRANCH   4   8
HETATM    8  C   UNL     1      28.847  43.776  54.773  1.00  0.00     0.059 A 
HETATM    9  C   UNL     1      28.801  45.113  55.194  1.00  0.00    -0.032 A 
HETATM   10  C   UNL     1      27.725  46.093  54.818  1.00  0.00     0.050 C 
HETATM   11  C   UNL     1      29.849  45.593  56.000  1.00  0.00     0.028 A 
HETATM   12  C   UNL     1      30.919  44.765  56.298  1.00  0.00     0.117 A 
HETATM   13  N   UNL     1      31.029  43.502  55.849  1.00  0.00    -0.271 NA
HETATM   14  C   UNL     1      29.996  43.047  55.100  1.00  0.00     0.146 A 
ENDBRANCH   4   8
ENDBRANCH   1   2
BRANCH   1  15
HETATM   15  C   UNL     1      26.711  41.288  50.035  1.00  0.00     0.051 A 
HETATM   16  C   UNL     1      27.448  41.481  48.852  1.00  0.00     0.031 A 
HETATM   17  C   UNL     1      27.853  40.411  48.045  1.00  0.00     0.002 A 
HETATM   18  C   UNL     1      27.522  39.108  48.396  1.00  0.00     0.000 A 
HETATM   19  C   UNL     1      26.780  38.881  49.548  1.00  0.00     0.002 A 
HETATM   20  C   UNL     1      26.379  39.958  50.350  1.00  0.00     0.031 A 
ENDBRANCH   1  15
BRANCH   1  21
HETATM   21  C   UNL     1      25.209  43.278  50.518  1.00  0.00     0.187 C 
BRANCH  21  22
HETATM   22  C   UNL     1      25.525  44.757  50.680  1.00  0.00    -0.038 A 
HETATM   23  C   UNL     1      25.054  45.540  51.746  1.00  0.00     0.009 A 
HETATM   24  C   UNL     1      25.343  46.905  51.816  1.00  0.00     0.001 A 
HETATM   25  C   UNL     1      26.096  47.513  50.816  1.00  0.00     0.000 A 
HETATM   26  C   UNL     1      26.560  46.757  49.743  1.00  0.00     0.001 A 
HETATM   27  C   UNL     1      26.275  45.392  49.674  1.00  0.00     0.009 A 
ENDBRANCH  21  22
ENDBRANCH   1  21
TORSDOF 5
ENDMDL
MODEL 8
REMARK VINA RESULT:      -7.7      2.956      7.664
REMARK  5 active torsions:
REMARK  status: ('A' for Active; 'I' for Inactive)
REMARK    1  A    between atoms: C_3  and  N_4 
REMARK       I    between atoms: N_4  and  C_5 
REMARK       I    between atoms: C_5  and  N_6 
REMARK    2  A    between atoms: N_6  and  N_7 
REMARK    3  A    between atoms: N_7  and  C_8 
REMARK    4  A    between atoms: N_7  and  C_14 
REMARK    5  A    between atoms: C_14  and  C_15 
ROOT
HETATM    1  N   UNL     1      26.602  44.242  52.191  1.00  0.00    -0.284 N 
ENDROOT
BRANCH   1   2
HETATM    2  N   UNL     1      26.359  45.629  52.073  1.00  0.00    -0.249 N 
HETATM    3  C   UNL     1      26.342  46.203  50.802  1.00  0.00     0.339 C 
HETATM    4  N   UNL     1      25.850  47.498  50.857  1.00  0.00    -0.306 N 
HETATM    5  O   UNL     1      26.692  45.617  49.786  1.00  0.00    -0.245 OA
HETATM    6  H   UNL     1      25.186  47.641  51.604  1.00  0.00     0.171 HD
HETATM    7  H   UNL     1      25.820  46.022  52.832  1.00  0.00     0.192 HD
BRANCH   4   8
HETATM    8  C   UNL     1      25.732  48.384  49.759  1.00  0.00     0.059 A 
HETATM    9  C   UNL     1      24.545  48.717  49.091  1.00  0.00    -0.032 A 
HETATM   10  C   UNL     1      23.201  48.110  49.377  1.00  0.00     0.050 C 
HETATM   11  C   UNL     1      24.611  49.664  48.052  1.00  0.00     0.028 A 
HETATM   12  C   UNL     1      25.838  50.186  47.676  1.00  0.00     0.117 A 
HETATM   13  N   UNL     1      27.002  49.832  48.248  1.00  0.00    -0.271 NA
HETATM   14  C   UNL     1      26.917  48.944  49.267  1.00  0.00     0.146 A 
ENDBRANCH   4   8
ENDBRANCH   1   2
BRANCH   1  15
HETATM   15  C   UNL     1      27.799  43.873  52.822  1.00  0.00     0.051 A 
HETATM   16  C   UNL     1      28.062  44.222  54.161  1.00  0.00     0.031 A 
HETATM   17  C   UNL     1      29.247  43.851  54.806  1.00  0.00     0.002 A 
HETATM   18  C   UNL     1      30.215  43.123  54.125  1.00  0.00     0.000 A 
HETATM   19  C   UNL     1      29.997  42.776  52.798  1.00  0.00     0.002 A 
HETATM   20  C   UNL     1      28.808  43.151  52.159  1.00  0.00     0.031 A 
ENDBRANCH   1  15
BRANCH   1  21
HETATM   21  C   UNL     1      25.430  43.360  52.067  1.00  0.00     0.187 C 
BRANCH  21  22
HETATM   22  C   UNL     1      25.433  42.465  50.837  1.00  0.00    -0.038 A 
HETATM   23  C   UNL     1      26.201  41.294  50.730  1.00  0.00     0.009 A 
HETATM   24  C   UNL     1      26.193  40.536  49.556  1.00  0.00     0.001 A 
HETATM   25  C   UNL     1      25.430  40.943  48.465  1.00  0.00     0.000 A 
HETATM   26  C   UNL     1      24.673  42.108  48.546  1.00  0.00     0.001 A 
HETATM   27  C   UNL     1      24.676  42.864  49.720  1.00  0.00     0.009 A 
ENDBRANCH  21  22
ENDBRANCH   1  21
TORSDOF 5
ENDMDL
MODEL 9
REMARK VINA RESULT:      -7.5      3.122      5.954
REMARK  5 active torsions:
REMARK  status: ('A' for Active; 'I' for Inactive)
REMARK    1  A    between atoms: C_3  and  N_4 
REMARK       I    between atoms: N_4  and  C_5 
REMARK       I    between atoms: C_5  and  N_6 
REMARK    2  A    between atoms: N_6  and  N_7 
REMARK    3  A    between atoms: N_7  and  C_8 
REMARK    4  A    between atoms: N_7  and  C_14 
REMARK    5  A    between atoms: C_14  and  C_15 
ROOT
HETATM    1  N   UNL     1      27.894  44.744  54.291  1.00  0.00    -0.284 N 
ENDROOT
BRANCH   1   2
HETATM    2  N   UNL     1      26.623  45.203  53.879  1.00  0.00    -0.249 N 
HETATM    3  C   UNL     1      26.379  45.379  52.518  1.00  0.00     0.339 C 
HETATM    4  N   UNL     1      25.029  45.588  52.285  1.00  0.00    -0.306 N 
HETATM    5  O   UNL     1      27.250  45.325  51.658  1.00  0.00    -0.245 OA
HETATM    6  H   UNL     1      24.433  45.133  52.961  1.00  0.00     0.171 HD
HETATM    7  H   UNL     1      25.874  44.980  54.521  1.00  0.00     0.192 HD
BRANCH   4   8
HETATM    8  C   UNL     1      24.437  45.842  51.024  1.00  0.00     0.059 A 
HETATM    9  C   UNL     1      23.829  44.891  50.191  1.00  0.00    -0.032 A 
HETATM   10  C   UNL     1      23.787  43.414  50.465  1.00  0.00     0.050 C 
HETATM   11  C   UNL     1      23.242  45.337  48.993  1.00  0.00     0.028 A 
HETATM   12  C   UNL     1      23.335  46.672  48.638  1.00  0.00     0.117 A 
HETATM   13  N   UNL     1      23.974  47.595  49.379  1.00  0.00    -0.271 NA
HETATM   14  C   UNL     1      24.507  47.155  50.544  1.00  0.00     0.146 A 
ENDBRANCH   4   8
ENDBRANCH   1   2
BRANCH   1  15
HETATM   15  C   UNL     1      28.282  43.482  53.816  1.00  0.00     0.051 A 
HETATM   16  C   UNL     1      27.528  42.327  54.100  1.00  0.00     0.031 A 
HETATM   17  C   UNL     1      27.896  41.064  53.623  1.00  0.00     0.002 A 
HETATM   18  C   UNL     1      29.042  40.916  52.851  1.00  0.00     0.000 A 
HETATM   19  C   UNL     1      29.820  42.031  52.566  1.00  0.00     0.002 A 
HETATM   20  C   UNL     1      29.444  43.292  53.047  1.00  0.00     0.031 A 
ENDBRANCH   1  15
BRANCH   1  21
HETATM   21  C   UNL     1      28.835  45.768  54.774  1.00  0.00     0.187 C 
BRANCH  21  22
HETATM   22  C   UNL     1      29.592  45.393  56.039  1.00  0.00    -0.038 A 
HETATM   23  C   UNL     1      29.363  45.994  57.288  1.00  0.00     0.009 A 
HETATM   24  C   UNL     1      30.121  45.637  58.405  1.00  0.00     0.001 A 
HETATM   25  C   UNL     1      31.131  44.685  58.291  1.00  0.00     0.000 A 
HETATM   26  C   UNL     1      31.383  44.088  57.059  1.00  0.00     0.001 A 
HETATM   27  C   UNL     1      30.622  44.441  55.942  1.00  0.00     0.009 A 
ENDBRANCH  21  22
ENDBRANCH   1  21
TORSDOF 5
ENDMDL
MODEL 10
REMARK VINA RESULT:      -7.5      7.287     10.312
REMARK  5 active torsions:
REMARK  status: ('A' for Active; 'I' for Inactive)
REMARK    1  A    between atoms: C_3  and  N_4 
REMARK       I    between atoms: N_4  and  C_5 
REMARK       I    between atoms: C_5  and  N_6 
REMARK    2  A    between atoms: N_6  and  N_7 
REMARK    3  A    between atoms: N_7  and  C_8 
REMARK    4  A    between atoms: N_7  and  C_14 
REMARK    5  A    between atoms: C_14  and  C_15 
ROOT
HETATM    1  N   UNL     1      22.905  49.403  49.195  1.00  0.00    -0.284 N 
ENDROOT
BRANCH   1   2
HETATM    2  N   UNL     1      21.951  48.375  49.367  1.00  0.00    -0.249 N 
HETATM    3  C   UNL     1      21.693  47.512  48.303  1.00  0.00     0.339 C 
HETATM    4  N   UNL     1      20.931  46.432  48.722  1.00  0.00    -0.306 N 
HETATM    5  O   UNL     1      22.114  47.688  47.166  1.00  0.00    -0.245 OA
HETATM    6  H   UNL     1      21.088  46.185  49.688  1.00  0.00     0.171 HD
HETATM    7  H   UNL     1      21.834  48.075  50.325  1.00  0.00     0.192 HD
BRANCH   4   8
HETATM    8  C   UNL     1      20.454  45.386  47.895  1.00  0.00     0.059 A 
HETATM    9  C   UNL     1      19.145  45.248  47.412  1.00  0.00    -0.032 A 
HETATM   10  C   UNL     1      17.999  46.150  47.772  1.00  0.00     0.050 C 
HETATM   11  C   UNL     1      18.865  44.170  46.553  1.00  0.00     0.028 A 
HETATM   12  C   UNL     1      19.857  43.247  46.263  1.00  0.00     0.117 A 
HETATM   13  N   UNL     1      21.101  43.311  46.769  1.00  0.00    -0.271 NA
HETATM   14  C   UNL     1      21.363  44.372  47.569  1.00  0.00     0.146 A 
ENDBRANCH   4   8
ENDBRANCH   1   2
BRANCH   1  15
HETATM   15  C   UNL     1      24.252  49.015  49.247  1.00  0.00     0.051 A 
HETATM   16  C   UNL     1      25.250  49.729  48.557  1.00  0.00     0.031 A 
HETATM   17  C   UNL     1      26.599  49.360  48.609  1.00  0.00     0.002 A 
HETATM   18  C   UNL     1      26.991  48.253  49.351  1.00  0.00     0.000 A 
HETATM   19  C   UNL     1      26.032  47.515  50.032  1.00  0.00     0.002 A 
HETATM   20  C   UNL     1      24.684  47.891  49.975  1.00  0.00     0.031 A 
ENDBRANCH   1  15
BRANCH   1  21
HETATM   21  C   UNL     1      22.427  50.638  48.552  1.00  0.00     0.187 C 
BRANCH  21  22
HETATM   22  C   UNL     1      20.923  50.853  48.620  1.00  0.00    -0.038 A 
HETATM   23  C   UNL     1      20.061  50.664  47.529  1.00  0.00     0.009 A 
HETATM   24  C   UNL     1      18.692  50.919  47.643  1.00  0.00     0.001 A 
HETATM   25  C   UNL     1      18.164  51.382  48.845  1.00  0.00     0.000 A 
HETATM   26  C   UNL     1      19.005  51.589  49.935  1.00  0.00     0.001 A 
HETATM   27  C   UNL     1      20.372  51.330  49.824  1.00  0.00     0.009 A 
ENDBRANCH  21  22
ENDBRANCH   1  21
TORSDOF 5
ENDMDL
