MODEL 1
REMARK VINA RESULT:      -9.5      0.000      0.000
REMARK  6 active torsions:
REMARK  status: ('A' for Active; 'I' for Inactive)
REMARK    1  A    between atoms: O_2  and  C_3 
REMARK    2  A    between atoms: C_6  and  C_7 
REMARK    3  A    between atoms: C_7  and  N_8 
REMARK       I    between atoms: N_8  and  C_9 
REMARK    4  A    between atoms: C_9  and  C_10 
REMARK    5  A    between atoms: C_13  and  C_14 
REMARK    6  A    between atoms: C_19  and  C_20 
ROOT
HETATM    1  C   UNL     1      25.423  45.784  52.701  1.00  0.00     0.096 A 
HETATM    2  C   UNL     1      24.849  45.923  51.449  1.00  0.00     0.138 A 
HETATM    3  N   UNL     1      24.402  44.667  51.109  1.00  0.00    -0.240 N 
HETATM    4  C   UNL     1      23.679  44.352  49.891  1.00  0.00     0.221 C 
HETATM    5  C   UNL     1      23.018  45.625  49.341  1.00  0.00     0.066 C 
HETATM    6  C   UNL     1      24.018  46.791  49.300  1.00  0.00     0.118 C 
HETATM    7  N   UNL     1      24.636  46.978  50.616  1.00  0.00    -0.365 N 
HETATM    8  N   UNL     1      24.555  43.748  52.072  1.00  0.00    -0.181 NA
HETATM    9  C   UNL     1      25.193  44.423  53.032  1.00  0.00     0.160 A 
HETATM   10  H   UNL     1      24.630  47.937  50.961  1.00  0.00     0.161 HD
ENDROOT
BRANCH   1  11
HETATM   11  C   UNL     1      26.097  46.745  53.554  1.00  0.00     0.257 C 
HETATM   12  N   UNL     1      26.778  46.211  54.622  1.00  0.00    -0.352 N 
HETATM   13  H   UNL     1      26.696  45.221  54.796  1.00  0.00     0.163 HD
HETATM   14  O   UNL     1      26.029  47.950  53.341  1.00  0.00    -0.267 OA
BRANCH  12  15
HETATM   15  C   UNL     1      27.507  47.033  55.558  1.00  0.00     0.161 C 
BRANCH  15  16
HETATM   16  C   UNL     1      28.631  46.272  56.215  1.00  0.00    -0.040 A 
HETATM   17  C   UNL     1      28.831  46.361  57.601  1.00  0.00     0.011 A 
HETATM   18  C   UNL     1      29.856  45.644  58.228  1.00  0.00     0.037 A 
HETATM   19  C   UNL     1      30.696  44.823  57.478  1.00  0.00     0.068 A 
HETATM   20  C   UNL     1      30.512  44.743  56.095  1.00  0.00     0.037 A 
HETATM   21  C   UNL     1      29.491  45.462  55.466  1.00  0.00     0.011 A 
BRANCH  19  22
HETATM   22  O   UNL     1      31.721  44.061  57.968  1.00  0.00    -0.356 OA
HETATM   23  C   UNL     1      32.089  42.919  57.203  1.00  0.00     0.210 C 
ENDBRANCH  19  22
ENDBRANCH  15  16
ENDBRANCH  12  15
ENDBRANCH   1  11
BRANCH   4  24
HETATM   24  C   UNL     1      24.612  43.698  48.895  1.00  0.00     0.409 C 
HETATM   25  F   UNL     1      24.296  43.979  47.614  1.00  0.00    -0.169 F 
HETATM   26  F   UNL     1      25.879  44.152  49.089  1.00  0.00    -0.169 F 
HETATM   27  F   UNL     1      24.666  42.354  49.022  1.00  0.00    -0.169 F 
ENDBRANCH   4  24
BRANCH   6  28
HETATM   28  C   UNL     1      23.347  48.067  48.828  1.00  0.00    -0.035 A 
HETATM   29  C   UNL     1      21.978  48.114  48.518  1.00  0.00     0.009 A 
HETATM   30  C   UNL     1      21.391  49.298  48.064  1.00  0.00     0.001 A 
HETATM   31  C   UNL     1      22.166  50.445  47.902  1.00  0.00     0.000 A 
HETATM   32  C   UNL     1      23.527  50.410  48.193  1.00  0.00     0.001 A 
HETATM   33  C   UNL     1      24.115  49.231  48.653  1.00  0.00     0.009 A 
ENDBRANCH   6  28
TORSDOF 6
ENDMDL
MODEL 2
REMARK VINA RESULT:      -9.3      4.734      9.128
REMARK  6 active torsions:
REMARK  status: ('A' for Active; 'I' for Inactive)
REMARK    1  A    between atoms: O_2  and  C_3 
REMARK    2  A    between atoms: C_6  and  C_7 
REMARK    3  A    between atoms: C_7  and  N_8 
REMARK       I    between atoms: N_8  and  C_9 
REMARK    4  A    between atoms: C_9  and  C_10 
REMARK    5  A    between atoms: C_13  and  C_14 
REMARK    6  A    between atoms: C_19  and  C_20 
ROOT
HETATM    1  C   UNL     1      25.988  42.244  51.116  1.00  0.00     0.096 A 
HETATM    2  C   UNL     1      26.488  43.266  51.906  1.00  0.00     0.138 A 
HETATM    3  N   UNL     1      25.470  44.187  52.001  1.00  0.00    -0.240 N 
HETATM    4  C   UNL     1      25.534  45.405  52.787  1.00  0.00     0.221 C 
HETATM    5  C   UNL     1      26.597  45.255  53.885  1.00  0.00     0.066 C 
HETATM    6  C   UNL     1      27.910  44.705  53.308  1.00  0.00     0.118 C 
HETATM    7  N   UNL     1      27.661  43.466  52.564  1.00  0.00    -0.365 N 
HETATM    8  N   UNL     1      24.326  43.806  51.418  1.00  0.00    -0.181 NA
HETATM    9  C   UNL     1      24.647  42.634  50.864  1.00  0.00     0.160 A 
HETATM   10  H   UNL     1      28.278  42.691  52.803  1.00  0.00     0.161 HD
ENDROOT
BRANCH   1  11
HETATM   11  C   UNL     1      26.605  41.023  50.632  1.00  0.00     0.257 C 
HETATM   12  N   UNL     1      27.864  41.167  50.101  1.00  0.00    -0.352 N 
HETATM   13  H   UNL     1      28.238  42.099  50.000  1.00  0.00     0.163 HD
HETATM   14  O   UNL     1      26.016  39.948  50.672  1.00  0.00    -0.267 OA
BRANCH  12  15
HETATM   15  C   UNL     1      28.614  40.047  49.585  1.00  0.00     0.161 C 
BRANCH  15  16
HETATM   16  C   UNL     1      28.390  39.855  48.106  1.00  0.00    -0.040 A 
HETATM   17  C   UNL     1      28.248  40.966  47.260  1.00  0.00     0.011 A 
HETATM   18  C   UNL     1      28.061  40.803  45.884  1.00  0.00     0.037 A 
HETATM   19  C   UNL     1      28.017  39.526  45.329  1.00  0.00     0.068 A 
HETATM   20  C   UNL     1      28.141  38.415  46.168  1.00  0.00     0.037 A 
HETATM   21  C   UNL     1      28.323  38.575  47.546  1.00  0.00     0.011 A 
BRANCH  19  22
HETATM   22  O   UNL     1      27.856  39.231  44.003  1.00  0.00    -0.356 OA
HETATM   23  C   UNL     1      28.792  38.323  43.433  1.00  0.00     0.210 C 
ENDBRANCH  19  22
ENDBRANCH  15  16
ENDBRANCH  12  15
ENDBRANCH   1  11
BRANCH   4  24
HETATM   24  C   UNL     1      25.789  46.588  51.880  1.00  0.00     0.409 C 
HETATM   25  F   UNL     1      24.654  47.182  51.457  1.00  0.00    -0.169 F 
HETATM   26  F   UNL     1      26.493  47.537  52.553  1.00  0.00    -0.169 F 
HETATM   27  F   UNL     1      26.521  46.273  50.789  1.00  0.00    -0.169 F 
ENDBRANCH   4  24
BRANCH   6  28
HETATM   28  C   UNL     1      28.937  44.486  54.403  1.00  0.00    -0.035 A 
HETATM   29  C   UNL     1      29.175  45.447  55.399  1.00  0.00     0.009 A 
HETATM   30  C   UNL     1      30.143  45.228  56.383  1.00  0.00     0.001 A 
HETATM   31  C   UNL     1      30.892  44.053  56.377  1.00  0.00     0.000 A 
HETATM   32  C   UNL     1      30.676  43.097  55.389  1.00  0.00     0.001 A 
HETATM   33  C   UNL     1      29.706  43.310  54.409  1.00  0.00     0.009 A 
ENDBRANCH   6  28
TORSDOF 6
ENDMDL
MODEL 3
REMARK VINA RESULT:      -9.2      2.617      5.287
REMARK  6 active torsions:
REMARK  status: ('A' for Active; 'I' for Inactive)
REMARK    1  A    between atoms: O_2  and  C_3 
REMARK    2  A    between atoms: C_6  and  C_7 
REMARK    3  A    between atoms: C_7  and  N_8 
REMARK       I    between atoms: N_8  and  C_9 
REMARK    4  A    between atoms: C_9  and  C_10 
REMARK    5  A    between atoms: C_13  and  C_14 
REMARK    6  A    between atoms: C_19  and  C_20 
ROOT
HETATM    1  C   UNL     1      25.110  45.933  51.322  1.00  0.00     0.096 A 
HETATM    2  C   UNL     1      25.206  44.618  50.897  1.00  0.00     0.138 A 
HETATM    3  N   UNL     1      24.501  44.563  49.717  1.00  0.00    -0.240 N 
HETATM    4  C   UNL     1      24.381  43.380  48.885  1.00  0.00     0.221 C 
HETATM    5  C   UNL     1      25.544  42.422  49.181  1.00  0.00     0.066 C 
HETATM    6  C   UNL     1      25.720  42.220  50.694  1.00  0.00     0.118 C 
HETATM    7  N   UNL     1      25.845  43.515  51.370  1.00  0.00    -0.365 N 
HETATM    8  N   UNL     1      24.036  45.747  49.296  1.00  0.00    -0.181 NA
HETATM    9  C   UNL     1      24.390  46.576  50.282  1.00  0.00     0.160 A 
HETATM   10  H   UNL     1      26.630  43.588  52.015  1.00  0.00     0.161 HD
ENDROOT
BRANCH   1  11
HETATM   11  C   UNL     1      25.612  46.589  52.515  1.00  0.00     0.257 C 
HETATM   12  N   UNL     1      26.433  45.826  53.310  1.00  0.00    -0.352 N 
HETATM   13  H   UNL     1      26.562  44.854  53.070  1.00  0.00     0.163 HD
HETATM   14  O   UNL     1      25.289  47.738  52.797  1.00  0.00    -0.267 OA
BRANCH  12  15
HETATM   15  C   UNL     1      27.019  46.336  54.525  1.00  0.00     0.161 C 
BRANCH  15  16
HETATM   16  C   UNL     1      28.246  45.557  54.926  1.00  0.00    -0.040 A 
HETATM   17  C   UNL     1      29.131  46.073  55.885  1.00  0.00     0.011 A 
HETATM   18  C   UNL     1      30.262  45.352  56.284  1.00  0.00     0.037 A 
HETATM   19  C   UNL     1      30.524  44.100  55.731  1.00  0.00     0.068 A 
HETATM   20  C   UNL     1      29.656  43.588  54.763  1.00  0.00     0.037 A 
HETATM   21  C   UNL     1      28.527  44.309  54.360  1.00  0.00     0.011 A 
BRANCH  19  22
HETATM   22  O   UNL     1      31.582  43.290  56.043  1.00  0.00    -0.356 OA
HETATM   23  C   UNL     1      32.006  43.290  57.401  1.00  0.00     0.210 C 
ENDBRANCH  19  22
ENDBRANCH  15  16
ENDBRANCH  12  15
ENDBRANCH   1  11
BRANCH   4  24
HETATM   24  C   UNL     1      23.025  42.741  49.096  1.00  0.00     0.409 C 
HETATM   25  F   UNL     1      22.088  43.201  48.241  1.00  0.00    -0.169 F 
HETATM   26  F   UNL     1      23.114  41.400  48.885  1.00  0.00    -0.169 F 
HETATM   27  F   UNL     1      22.552  42.899  50.351  1.00  0.00    -0.169 F 
ENDBRANCH   4  24
BRANCH   6  28
HETATM   28  C   UNL     1      26.914  41.333  50.990  1.00  0.00    -0.035 A 
HETATM   29  C   UNL     1      27.673  41.479  52.163  1.00  0.00     0.009 A 
HETATM   30  C   UNL     1      28.782  40.663  52.400  1.00  0.00     0.001 A 
HETATM   31  C   UNL     1      29.153  39.700  51.464  1.00  0.00     0.000 A 
HETATM   32  C   UNL     1      28.419  39.551  50.291  1.00  0.00     0.001 A 
HETATM   33  C   UNL     1      27.307  40.361  50.055  1.00  0.00     0.009 A 
ENDBRANCH   6  28
TORSDOF 6
ENDMDL
MODEL 4
REMARK VINA RESULT:      -9.2      2.974      9.302
REMARK  6 active torsions:
REMARK  status: ('A' for Active; 'I' for Inactive)
REMARK    1  A    between atoms: O_2  and  C_3 
REMARK    2  A    between atoms: C_6  and  C_7 
REMARK    3  A    between atoms: C_7  and  N_8 
REMARK       I    between atoms: N_8  and  C_9 
REMARK    4  A    between atoms: C_9  and  C_10 
REMARK    5  A    between atoms: C_13  and  C_14 
REMARK    6  A    between atoms: C_19  and  C_20 
ROOT
HETATM    1  C   UNL     1      26.343  45.279  50.800  1.00  0.00     0.096 A 
HETATM    2  C   UNL     1      27.109  44.521  51.669  1.00  0.00     0.138 A 
HETATM    3  N   UNL     1      27.528  43.435  50.936  1.00  0.00    -0.240 N 
HETATM    4  C   UNL     1      28.410  42.396  51.434  1.00  0.00     0.221 C 
HETATM    5  C   UNL     1      29.221  42.935  52.622  1.00  0.00     0.066 C 
HETATM    6  C   UNL     1      28.310  43.648  53.633  1.00  0.00     0.118 C 
HETATM    7  N   UNL     1      27.509  44.675  52.960  1.00  0.00    -0.365 N 
HETATM    8  N   UNL     1      27.176  43.473  49.644  1.00  0.00    -0.181 NA
HETATM    9  C   UNL     1      26.439  44.584  49.566  1.00  0.00     0.160 A 
HETATM   10  H   UNL     1      27.518  45.589  53.410  1.00  0.00     0.161 HD
ENDROOT
BRANCH   1  11
HETATM   11  C   UNL     1      25.602  46.511  51.006  1.00  0.00     0.257 C 
HETATM   12  N   UNL     1      24.963  47.008  49.896  1.00  0.00    -0.352 N 
HETATM   13  H   UNL     1      25.115  46.549  49.010  1.00  0.00     0.163 HD
HETATM   14  O   UNL     1      25.585  47.073  52.095  1.00  0.00    -0.267 OA
BRANCH  12  15
HETATM   15  C   UNL     1      24.178  48.218  49.938  1.00  0.00     0.161 C 
BRANCH  15  16
HETATM   16  C   UNL     1      22.977  48.140  49.030  1.00  0.00    -0.040 A 
HETATM   17  C   UNL     1      22.670  46.945  48.361  1.00  0.00     0.011 A 
HETATM   18  C   UNL     1      21.547  46.851  47.533  1.00  0.00     0.037 A 
HETATM   19  C   UNL     1      20.709  47.952  47.363  1.00  0.00     0.068 A 
HETATM   20  C   UNL     1      21.018  49.149  48.012  1.00  0.00     0.037 A 
HETATM   21  C   UNL     1      22.143  49.247  48.838  1.00  0.00     0.011 A 
BRANCH  19  22
HETATM   22  O   UNL     1      19.576  47.987  46.596  1.00  0.00    -0.356 OA
HETATM   23  C   UNL     1      18.889  49.231  46.532  1.00  0.00     0.210 C 
ENDBRANCH  19  22
ENDBRANCH  15  16
ENDBRANCH  12  15
ENDBRANCH   1  11
BRANCH   4  24
HETATM   24  C   UNL     1      27.604  41.164  51.784  1.00  0.00     0.409 C 
HETATM   25  F   UNL     1      26.294  41.291  51.488  1.00  0.00    -0.169 F 
HETATM   26  F   UNL     1      28.060  40.101  51.070  1.00  0.00    -0.169 F 
HETATM   27  F   UNL     1      27.701  40.818  53.086  1.00  0.00    -0.169 F 
ENDBRANCH   4  24
BRANCH   6  28
HETATM   28  C   UNL     1      29.119  44.245  54.768  1.00  0.00    -0.035 A 
HETATM   29  C   UNL     1      30.263  43.609  55.279  1.00  0.00     0.009 A 
HETATM   30  C   UNL     1      30.976  44.172  56.340  1.00  0.00     0.001 A 
HETATM   31  C   UNL     1      30.550  45.368  56.912  1.00  0.00     0.000 A 
HETATM   32  C   UNL     1      29.411  46.004  56.426  1.00  0.00     0.001 A 
HETATM   33  C   UNL     1      28.700  45.448  55.362  1.00  0.00     0.009 A 
ENDBRANCH   6  28
TORSDOF 6
ENDMDL
MODEL 5
REMARK VINA RESULT:      -9.1      1.428      1.998
REMARK  6 active torsions:
REMARK  status: ('A' for Active; 'I' for Inactive)
REMARK    1  A    between atoms: O_2  and  C_3 
REMARK    2  A    between atoms: C_6  and  C_7 
REMARK    3  A    between atoms: C_7  and  N_8 
REMARK       I    between atoms: N_8  and  C_9 
REMARK    4  A    between atoms: C_9  and  C_10 
REMARK    5  A    between atoms: C_13  and  C_14 
REMARK    6  A    between atoms: C_19  and  C_20 
ROOT
HETATM    1  C   UNL     1      24.852  45.654  51.364  1.00  0.00     0.096 A 
HETATM    2  C   UNL     1      24.011  45.999  50.320  1.00  0.00     0.138 A 
HETATM    3  N   UNL     1      23.387  44.830  49.950  1.00  0.00    -0.240 N 
HETATM    4  C   UNL     1      22.370  44.730  48.920  1.00  0.00     0.221 C 
HETATM    5  C   UNL     1      21.711  46.102  48.712  1.00  0.00     0.066 C 
HETATM    6  C   UNL     1      22.771  47.205  48.568  1.00  0.00     0.118 C 
HETATM    7  N   UNL     1      23.700  47.170  49.702  1.00  0.00    -0.365 N 
HETATM    8  N   UNL     1      23.683  43.778  50.725  1.00  0.00    -0.181 NA
HETATM    9  C   UNL     1      24.589  44.275  51.572  1.00  0.00     0.160 A 
HETATM   10  H   UNL     1      23.861  48.070  50.152  1.00  0.00     0.161 HD
ENDROOT
BRANCH   1  11
HETATM   11  C   UNL     1      25.793  46.446  52.134  1.00  0.00     0.257 C 
HETATM   12  N   UNL     1      26.137  45.929  53.359  1.00  0.00    -0.352 N 
HETATM   13  H   UNL     1      25.661  45.099  53.680  1.00  0.00     0.163 HD
HETATM   14  O   UNL     1      26.219  47.518  51.718  1.00  0.00    -0.267 OA
BRANCH  12  15
HETATM   15  C   UNL     1      27.068  46.592  54.240  1.00  0.00     0.161 C 
BRANCH  15  16
HETATM   16  C   UNL     1      28.167  45.666  54.696  1.00  0.00    -0.040 A 
HETATM   17  C   UNL     1      28.334  44.412  54.089  1.00  0.00     0.011 A 
HETATM   18  C   UNL     1      29.362  43.551  54.486  1.00  0.00     0.037 A 
HETATM   19  C   UNL     1      30.244  43.932  55.497  1.00  0.00     0.068 A 
HETATM   20  C   UNL     1      30.072  45.172  56.116  1.00  0.00     0.037 A 
HETATM   21  C   UNL     1      29.042  46.033  55.724  1.00  0.00     0.011 A 
BRANCH  19  22
HETATM   22  O   UNL     1      31.295  43.193  55.966  1.00  0.00    -0.356 OA
HETATM   23  C   UNL     1      31.741  43.486  57.285  1.00  0.00     0.210 C 
ENDBRANCH  19  22
ENDBRANCH  15  16
ENDBRANCH  12  15
ENDBRANCH   1  11
BRANCH   4  24
HETATM   24  C   UNL     1      22.977  44.171  47.652  1.00  0.00     0.409 C 
HETATM   25  F   UNL     1      22.597  42.900  47.403  1.00  0.00    -0.169 F 
HETATM   26  F   UNL     1      22.572  44.911  46.586  1.00  0.00    -0.169 F 
HETATM   27  F   UNL     1      24.327  44.206  47.649  1.00  0.00    -0.169 F 
ENDBRANCH   4  24
BRANCH   6  28
HETATM   28  C   UNL     1      22.123  48.570  48.436  1.00  0.00    -0.035 A 
HETATM   29  C   UNL     1      20.962  48.768  47.670  1.00  0.00     0.009 A 
HETATM   30  C   UNL     1      20.399  50.041  47.549  1.00  0.00     0.001 A 
HETATM   31  C   UNL     1      20.993  51.131  48.180  1.00  0.00     0.000 A 
HETATM   32  C   UNL     1      22.151  50.953  48.932  1.00  0.00     0.001 A 
HETATM   33  C   UNL     1      22.712  49.682  49.061  1.00  0.00     0.009 A 
ENDBRANCH   6  28
TORSDOF 6
ENDMDL
MODEL 6
REMARK VINA RESULT:      -9.0      3.317      4.797
REMARK  6 active torsions:
REMARK  status: ('A' for Active; 'I' for Inactive)
REMARK    1  A    between atoms: O_2  and  C_3 
REMARK    2  A    between atoms: C_6  and  C_7 
REMARK    3  A    between atoms: C_7  and  N_8 
REMARK       I    between atoms: N_8  and  C_9 
REMARK    4  A    between atoms: C_9  and  C_10 
REMARK    5  A    between atoms: C_13  and  C_14 
REMARK    6  A    between atoms: C_19  and  C_20 
ROOT
HETATM    1  C   UNL     1      24.638  47.105  50.148  1.00  0.00     0.096 A 
HETATM    2  C   UNL     1      23.519  47.645  49.536  1.00  0.00     0.138 A 
HETATM    3  N   UNL     1      23.944  48.828  48.977  1.00  0.00    -0.240 N 
HETATM    4  C   UNL     1      23.108  49.709  48.182  1.00  0.00     0.221 C 
HETATM    5  C   UNL     1      21.928  48.915  47.603  1.00  0.00     0.066 C 
HETATM    6  C   UNL     1      21.247  48.069  48.690  1.00  0.00     0.118 C 
HETATM    7  N   UNL     1      22.234  47.229  49.375  1.00  0.00    -0.365 N 
HETATM    8  N   UNL     1      25.259  49.054  49.095  1.00  0.00    -0.181 NA
HETATM    9  C   UNL     1      25.677  48.015  49.824  1.00  0.00     0.160 A 
HETATM   10  H   UNL     1      21.976  46.247  49.460  1.00  0.00     0.161 HD
ENDROOT
BRANCH   1  11
HETATM   11  C   UNL     1      24.806  45.895  50.932  1.00  0.00     0.257 C 
HETATM   12  N   UNL     1      25.822  45.927  51.857  1.00  0.00    -0.352 N 
HETATM   13  H   UNL     1      26.430  46.733  51.873  1.00  0.00     0.163 HD
HETATM   14  O   UNL     1      24.102  44.909  50.748  1.00  0.00    -0.267 OA
BRANCH  12  15
HETATM   15  C   UNL     1      26.113  44.808  52.720  1.00  0.00     0.161 C 
BRANCH  15  16
HETATM   16  C   UNL     1      27.209  45.128  53.704  1.00  0.00    -0.040 A 
HETATM   17  C   UNL     1      27.254  46.382  54.333  1.00  0.00     0.011 A 
HETATM   18  C   UNL     1      28.252  46.685  55.265  1.00  0.00     0.037 A 
HETATM   19  C   UNL     1      29.221  45.737  55.586  1.00  0.00     0.068 A 
HETATM   20  C   UNL     1      29.192  44.493  54.951  1.00  0.00     0.037 A 
HETATM   21  C   UNL     1      28.198  44.188  54.016  1.00  0.00     0.011 A 
BRANCH  19  22
HETATM   22  O   UNL     1      30.237  45.901  56.487  1.00  0.00    -0.356 OA
HETATM   23  C   UNL     1      29.866  45.994  57.858  1.00  0.00     0.210 C 
ENDBRANCH  19  22
ENDBRANCH  15  16
ENDBRANCH  12  15
ENDBRANCH   1  11
BRANCH   4  24
HETATM   24  C   UNL     1      22.667  50.891  49.018  1.00  0.00     0.409 C 
HETATM   25  F   UNL     1      22.347  50.550  50.284  1.00  0.00    -0.169 F 
HETATM   26  F   UNL     1      23.681  51.792  49.106  1.00  0.00    -0.169 F 
HETATM   27  F   UNL     1      21.614  51.552  48.490  1.00  0.00    -0.169 F 
ENDBRANCH   4  24
BRANCH   6  28
HETATM   28  C   UNL     1      20.128  47.228  48.105  1.00  0.00    -0.035 A 
HETATM   29  C   UNL     1      19.110  47.792  47.318  1.00  0.00     0.009 A 
HETATM   30  C   UNL     1      18.080  46.996  46.811  1.00  0.00     0.001 A 
HETATM   31  C   UNL     1      18.047  45.632  47.092  1.00  0.00     0.000 A 
HETATM   32  C   UNL     1      19.042  45.061  47.881  1.00  0.00     0.001 A 
HETATM   33  C   UNL     1      20.076  45.852  48.384  1.00  0.00     0.009 A 
ENDBRANCH   6  28
TORSDOF 6
ENDMDL
MODEL 7
REMARK VINA RESULT:      -9.0      5.352      9.297
REMARK  6 active torsions:
REMARK  status: ('A' for Active; 'I' for Inactive)
REMARK    1  A    between atoms: O_2  and  C_3 
REMARK    2  A    between atoms: C_6  and  C_7 
REMARK    3  A    between atoms: C_7  and  N_8 
REMARK       I    between atoms: N_8  and  C_9 
REMARK    4  A    between atoms: C_9  and  C_10 
REMARK    5  A    between atoms: C_13  and  C_14 
REMARK    6  A    between atoms: C_19  and  C_20 
ROOT
HETATM    1  C   UNL     1      26.787  41.958  50.678  1.00  0.00     0.096 A 
HETATM    2  C   UNL     1      26.969  42.941  51.635  1.00  0.00     0.138 A 
HETATM    3  N   UNL     1      25.734  43.523  51.803  1.00  0.00    -0.240 N 
HETATM    4  C   UNL     1      25.442  44.574  52.761  1.00  0.00     0.221 C 
HETATM    5  C   UNL     1      26.488  44.551  53.885  1.00  0.00     0.066 C 
HETATM    6  C   UNL     1      27.912  44.478  53.311  1.00  0.00     0.118 C 
HETATM    7  N   UNL     1      28.030  43.350  52.382  1.00  0.00    -0.365 N 
HETATM    8  N   UNL     1      24.750  42.939  51.106  1.00  0.00    -0.181 NA
HETATM    9  C   UNL     1      25.394  42.000  50.407  1.00  0.00     0.160 A 
HETATM   10  H   UNL     1      28.835  42.746  52.542  1.00  0.00     0.161 HD
ENDROOT
BRANCH   1  11
HETATM   11  C   UNL     1      27.727  41.042  50.058  1.00  0.00     0.257 C 
HETATM   12  N   UNL     1      27.998  39.900  50.772  1.00  0.00    -0.352 N 
HETATM   13  H   UNL     1      27.608  39.811  51.699  1.00  0.00     0.163 HD
HETATM   14  O   UNL     1      28.258  41.300  48.984  1.00  0.00    -0.267 OA
BRANCH  12  15
HETATM   15  C   UNL     1      28.904  38.887  50.288  1.00  0.00     0.161 C 
BRANCH  15  16
HETATM   16  C   UNL     1      28.269  38.029  49.223  1.00  0.00    -0.040 A 
HETATM   17  C   UNL     1      28.838  37.952  47.942  1.00  0.00     0.011 A 
HETATM   18  C   UNL     1      28.273  37.143  46.951  1.00  0.00     0.037 A 
HETATM   19  C   UNL     1      27.129  36.395  47.225  1.00  0.00     0.068 A 
HETATM   20  C   UNL     1      26.549  36.481  48.493  1.00  0.00     0.037 A 
HETATM   21  C   UNL     1      27.109  37.292  49.485  1.00  0.00     0.011 A 
BRANCH  19  22
HETATM   22  O   UNL     1      26.490  35.557  46.353  1.00  0.00    -0.356 OA
HETATM   23  C   UNL     1      26.515  34.170  46.667  1.00  0.00     0.210 C 
ENDBRANCH  19  22
ENDBRANCH  15  16
ENDBRANCH  12  15
ENDBRANCH   1  11
BRANCH   4  24
HETATM   24  C   UNL     1      25.371  45.908  52.051  1.00  0.00     0.409 C 
HETATM   25  F   UNL     1      26.397  46.105  51.197  1.00  0.00    -0.169 F 
HETATM   26  F   UNL     1      24.234  45.972  51.309  1.00  0.00    -0.169 F 
HETATM   27  F   UNL     1      25.333  46.959  52.899  1.00  0.00    -0.169 F 
ENDBRANCH   4  24
BRANCH   6  28
HETATM   28  C   UNL     1      28.942  44.381  54.420  1.00  0.00    -0.035 A 
HETATM   29  C   UNL     1      29.128  45.415  55.352  1.00  0.00     0.009 A 
HETATM   30  C   UNL     1      30.100  45.308  56.350  1.00  0.00     0.001 A 
HETATM   31  C   UNL     1      30.905  44.173  56.422  1.00  0.00     0.000 A 
HETATM   32  C   UNL     1      30.741  43.145  55.499  1.00  0.00     0.001 A 
HETATM   33  C   UNL     1      29.767  43.246  54.504  1.00  0.00     0.009 A 
ENDBRANCH   6  28
TORSDOF 6
ENDMDL
MODEL 8
REMARK VINA RESULT:      -8.9      3.620      8.375
REMARK  6 active torsions:
REMARK  status: ('A' for Active; 'I' for Inactive)
REMARK    1  A    between atoms: O_2  and  C_3 
REMARK    2  A    between atoms: C_6  and  C_7 
REMARK    3  A    between atoms: C_7  and  N_8 
REMARK       I    between atoms: N_8  and  C_9 
REMARK    4  A    between atoms: C_9  and  C_10 
REMARK    5  A    between atoms: C_13  and  C_14 
REMARK    6  A    between atoms: C_19  and  C_20 
ROOT
HETATM    1  C   UNL     1      25.400  42.718  50.259  1.00  0.00     0.096 A 
HETATM    2  C   UNL     1      26.231  43.051  51.315  1.00  0.00     0.138 A 
HETATM    3  N   UNL     1      27.363  42.288  51.144  1.00  0.00    -0.240 N 
HETATM    4  C   UNL     1      28.536  42.353  51.997  1.00  0.00     0.221 C 
HETATM    5  C   UNL     1      28.572  43.707  52.721  1.00  0.00     0.066 C 
HETATM    6  C   UNL     1      27.208  44.030  53.352  1.00  0.00     0.118 C 
HETATM    7  N   UNL     1      26.146  43.935  52.345  1.00  0.00    -0.365 N 
HETATM    8  N   UNL     1      27.374  41.560  50.019  1.00  0.00    -0.181 NA
HETATM    9  C   UNL     1      26.171  41.807  49.492  1.00  0.00     0.160 A 
HETATM   10  H   UNL     1      25.514  44.734  52.312  1.00  0.00     0.161 HD
ENDROOT
BRANCH   1  11
HETATM   11  C   UNL     1      24.058  43.160  49.924  1.00  0.00     0.257 C 
HETATM   12  N   UNL     1      23.975  44.073  48.901  1.00  0.00    -0.352 N 
HETATM   13  H   UNL     1      24.832  44.439  48.515  1.00  0.00     0.163 HD
HETATM   14  O   UNL     1      23.079  42.759  50.543  1.00  0.00    -0.267 OA
BRANCH  12  15
HETATM   15  C   UNL     1      22.713  44.602  48.443  1.00  0.00     0.161 C 
BRANCH  15  16
HETATM   16  C   UNL     1      22.607  46.087  48.683  1.00  0.00    -0.040 A 
HETATM   17  C   UNL     1      21.445  46.783  48.319  1.00  0.00     0.011 A 
HETATM   18  C   UNL     1      21.323  48.156  48.555  1.00  0.00     0.037 A 
HETATM   19  C   UNL     1      22.364  48.856  49.163  1.00  0.00     0.068 A 
HETATM   20  C   UNL     1      23.531  48.173  49.512  1.00  0.00     0.037 A 
HETATM   21  C   UNL     1      23.656  46.800  49.273  1.00  0.00     0.011 A 
BRANCH  19  22
HETATM   22  O   UNL     1      22.366  50.191  49.462  1.00  0.00    -0.356 OA
HETATM   23  C   UNL     1      21.099  50.839  49.496  1.00  0.00     0.210 C 
ENDBRANCH  19  22
ENDBRANCH  15  16
ENDBRANCH  12  15
ENDBRANCH   1  11
BRANCH   4  24
HETATM   24  C   UNL     1      28.544  41.177  52.949  1.00  0.00     0.409 C 
HETATM   25  F   UNL     1      27.306  40.715  53.224  1.00  0.00    -0.169 F 
HETATM   26  F   UNL     1      29.227  40.142  52.391  1.00  0.00    -0.169 F 
HETATM   27  F   UNL     1      29.154  41.448  54.123  1.00  0.00    -0.169 F 
ENDBRANCH   4  24
BRANCH   6  28
HETATM   28  C   UNL     1      27.220  45.399  54.004  1.00  0.00    -0.035 A 
HETATM   29  C   UNL     1      28.220  45.778  54.914  1.00  0.00     0.009 A 
HETATM   30  C   UNL     1      28.194  47.039  55.516  1.00  0.00     0.001 A 
HETATM   31  C   UNL     1      27.163  47.931  55.226  1.00  0.00     0.000 A 
HETATM   32  C   UNL     1      26.158  47.565  54.336  1.00  0.00     0.001 A 
HETATM   33  C   UNL     1      26.185  46.309  53.727  1.00  0.00     0.009 A 
ENDBRANCH   6  28
TORSDOF 6
ENDMDL
MODEL 9
REMARK VINA RESULT:      -8.5      5.902      7.734
REMARK  6 active torsions:
REMARK  status: ('A' for Active; 'I' for Inactive)
REMARK    1  A    between atoms: O_2  and  C_3 
REMARK    2  A    between atoms: C_6  and  C_7 
REMARK    3  A    between atoms: C_7  and  N_8 
REMARK       I    between atoms: N_8  and  C_9 
REMARK    4  A    between atoms: C_9  and  C_10 
REMARK    5  A    between atoms: C_13  and  C_14 
REMARK    6  A    between atoms: C_19  and  C_20 
ROOT
HETATM    1  C   UNL     1      20.086  46.873  48.841  1.00  0.00     0.096 A 
HETATM    2  C   UNL     1      21.010  47.904  48.854  1.00  0.00     0.138 A 
HETATM    3  N   UNL     1      20.322  49.005  49.312  1.00  0.00    -0.240 N 
HETATM    4  C   UNL     1      20.916  50.309  49.540  1.00  0.00     0.221 C 
HETATM    5  C   UNL     1      22.431  50.158  49.741  1.00  0.00     0.066 C 
HETATM    6  C   UNL     1      23.045  49.272  48.646  1.00  0.00     0.118 C 
HETATM    7  N   UNL     1      22.336  47.991  48.569  1.00  0.00    -0.365 N 
HETATM    8  N   UNL     1      19.060  48.752  49.683  1.00  0.00    -0.181 NA
HETATM    9  C   UNL     1      18.911  47.460  49.378  1.00  0.00     0.160 A 
HETATM   10  H   UNL     1      22.937  47.168  48.568  1.00  0.00     0.161 HD
ENDROOT
BRANCH   1  11
HETATM   11  C   UNL     1      20.206  45.489  48.419  1.00  0.00     0.257 C 
HETATM   12  N   UNL     1      21.481  45.071  48.121  1.00  0.00    -0.352 N 
HETATM   13  H   UNL     1      22.223  45.754  48.126  1.00  0.00     0.163 HD
HETATM   14  O   UNL     1      19.223  44.765  48.312  1.00  0.00    -0.267 OA
BRANCH  12  15
HETATM   15  C   UNL     1      21.768  43.722  47.696  1.00  0.00     0.161 C 
BRANCH  15  16
HETATM   16  C   UNL     1      22.865  43.096  48.520  1.00  0.00    -0.040 A 
HETATM   17  C   UNL     1      23.105  43.534  49.831  1.00  0.00     0.011 A 
HETATM   18  C   UNL     1      24.104  42.947  50.615  1.00  0.00     0.037 A 
HETATM   19  C   UNL     1      24.879  41.909  50.100  1.00  0.00     0.068 A 
HETATM   20  C   UNL     1      24.656  41.480  48.789  1.00  0.00     0.037 A 
HETATM   21  C   UNL     1      23.660  42.067  48.002  1.00  0.00     0.011 A 
BRANCH  19  22
HETATM   22  O   UNL     1      25.872  41.243  50.764  1.00  0.00    -0.356 OA
HETATM   23  C   UNL     1      26.296  40.006  50.203  1.00  0.00     0.210 C 
ENDBRANCH  19  22
ENDBRANCH  15  16
ENDBRANCH  12  15
ENDBRANCH   1  11
BRANCH   4  24
HETATM   24  C   UNL     1      20.564  51.239  48.400  1.00  0.00     0.409 C 
HETATM   25  F   UNL     1      19.618  52.143  48.730  1.00  0.00    -0.169 F 
HETATM   26  F   UNL     1      21.664  51.950  48.033  1.00  0.00    -0.169 F 
HETATM   27  F   UNL     1      20.145  50.588  47.293  1.00  0.00    -0.169 F 
ENDBRANCH   4  24
BRANCH   6  28
HETATM   28  C   UNL     1      24.528  49.061  48.884  1.00  0.00    -0.035 A 
HETATM   29  C   UNL     1      25.498  49.902  48.315  1.00  0.00     0.009 A 
HETATM   30  C   UNL     1      26.859  49.671  48.534  1.00  0.00     0.001 A 
HETATM   31  C   UNL     1      27.267  48.590  49.313  1.00  0.00     0.000 A 
HETATM   32  C   UNL     1      26.318  47.740  49.874  1.00  0.00     0.001 A 
HETATM   33  C   UNL     1      24.958  47.973  49.662  1.00  0.00     0.009 A 
ENDBRANCH   6  28
TORSDOF 6
ENDMDL
MODEL 10
REMARK VINA RESULT:      -8.4      4.822      8.337
REMARK  6 active torsions:
REMARK  status: ('A' for Active; 'I' for Inactive)
REMARK    1  A    between atoms: O_2  and  C_3 
REMARK    2  A    between atoms: C_6  and  C_7 
REMARK    3  A    between atoms: C_7  and  N_8 
REMARK       I    between atoms: N_8  and  C_9 
REMARK    4  A    between atoms: C_9  and  C_10 
REMARK    5  A    between atoms: C_13  and  C_14 
REMARK    6  A    between atoms: C_19  and  C_20 
ROOT
HETATM    1  C   UNL     1      23.391  43.512  49.123  1.00  0.00     0.096 A 
HETATM    2  C   UNL     1      24.414  44.330  49.572  1.00  0.00     0.138 A 
HETATM    3  N   UNL     1      25.396  43.475  50.018  1.00  0.00    -0.240 N 
HETATM    4  C   UNL     1      26.687  43.899  50.528  1.00  0.00     0.221 C 
HETATM    5  C   UNL     1      27.012  45.305  50.002  1.00  0.00     0.066 C 
HETATM    6  C   UNL     1      25.818  46.254  50.193  1.00  0.00     0.118 C 
HETATM    7  N   UNL     1      24.608  45.675  49.601  1.00  0.00    -0.365 N 
HETATM    8  N   UNL     1      25.134  42.178  49.810  1.00  0.00    -0.181 NA
HETATM    9  C   UNL     1      23.907  42.200  49.284  1.00  0.00     0.160 A 
HETATM   10  H   UNL     1      24.088  46.302  48.988  1.00  0.00     0.161 HD
ENDROOT
BRANCH   1  11
HETATM   11  C   UNL     1      22.082  43.831  48.582  1.00  0.00     0.257 C 
HETATM   12  N   UNL     1      21.447  44.902  49.163  1.00  0.00    -0.352 N 
HETATM   13  H   UNL     1      21.876  45.335  49.967  1.00  0.00     0.163 HD
HETATM   14  O   UNL     1      21.578  43.160  47.688  1.00  0.00    -0.267 OA
BRANCH  12  15
HETATM   15  C   UNL     1      20.145  45.350  48.732  1.00  0.00     0.161 C 
BRANCH  15  16
HETATM   16  C   UNL     1      20.033  46.854  48.755  1.00  0.00    -0.040 A 
HETATM   17  C   UNL     1      18.786  47.470  48.936  1.00  0.00     0.011 A 
HETATM   18  C   UNL     1      18.670  48.863  48.982  1.00  0.00     0.037 A 
HETATM   19  C   UNL     1      19.802  49.664  48.850  1.00  0.00     0.068 A 
HETATM   20  C   UNL     1      21.045  49.058  48.652  1.00  0.00     0.037 A 
HETATM   21  C   UNL     1      21.163  47.665  48.602  1.00  0.00     0.011 A 
BRANCH  19  22
HETATM   22  O   UNL     1      19.827  51.031  48.891  1.00  0.00    -0.356 OA
HETATM   23  C   UNL     1      19.026  51.654  49.889  1.00  0.00     0.210 C 
ENDBRANCH  19  22
ENDBRANCH  15  16
ENDBRANCH  12  15
ENDBRANCH   1  11
BRANCH   4  24
HETATM   24  C   UNL     1      26.691  43.822  52.039  1.00  0.00     0.409 C 
HETATM   25  F   UNL     1      25.463  43.973  52.578  1.00  0.00    -0.169 F 
HETATM   26  F   UNL     1      27.138  42.600  52.434  1.00  0.00    -0.169 F 
HETATM   27  F   UNL     1      27.508  44.731  52.615  1.00  0.00    -0.169 F 
ENDBRANCH   4  24
BRANCH   6  28
HETATM   28  C   UNL     1      26.111  47.622  49.606  1.00  0.00    -0.035 A 
HETATM   29  C   UNL     1      25.092  48.443  49.095  1.00  0.00     0.009 A 
HETATM   30  C   UNL     1      25.393  49.689  48.540  1.00  0.00     0.001 A 
HETATM   31  C   UNL     1      26.714  50.126  48.480  1.00  0.00     0.000 A 
HETATM   32  C   UNL     1      27.736  49.319  48.971  1.00  0.00     0.001 A 
HETATM   33  C   UNL     1      27.438  48.076  49.531  1.00  0.00     0.009 A 
ENDBRANCH   6  28
TORSDOF 6
ENDMDL
