MODEL 1
REMARK VINA RESULT:      -9.3      0.000      0.000
REMARK  7 active torsions:
REMARK  status: ('A' for Active; 'I' for Inactive)
REMARK    1  A    between atoms: O_2  and  C_3 
REMARK    2  A    between atoms: C_6  and  C_7 
REMARK    3  A    between atoms: C_7  and  C_8 
REMARK    4  A    between atoms: C_7  and  C_14 
REMARK    5  A    between atoms: C_14  and  C_15 
REMARK       I    between atoms: C_15  and  N_16 
REMARK    6  A    between atoms: N_16  and  C_17 
REMARK    7  A    between atoms: C_17  and  C_18 
ROOT
HETATM    1  C   UNL     1      26.119  46.555  51.536  1.00  0.00     0.060 C 
ENDROOT
BRANCH   1   2
HETATM    2  C   UNL     1      25.654  47.539  50.450  1.00  0.00    -0.049 A 
HETATM    3  C   UNL     1      24.316  47.648  50.039  1.00  0.00     0.010 A 
HETATM    4  C   UNL     1      23.939  48.546  49.034  1.00  0.00     0.037 A 
HETATM    5  C   UNL     1      24.883  49.351  48.401  1.00  0.00     0.068 A 
HETATM    6  C   UNL     1      26.219  49.235  48.770  1.00  0.00     0.037 A 
HETATM    7  C   UNL     1      26.598  48.335  49.775  1.00  0.00     0.010 A 
BRANCH   5   8
HETATM    8  O   UNL     1      24.380  50.187  47.443  1.00  0.00    -0.356 OA
HETATM    9  C   UNL     1      23.270  50.993  47.815  1.00  0.00     0.210 C 
ENDBRANCH   5   8
ENDBRANCH   1   2
BRANCH   1  10
HETATM   10  C   UNL     1      26.169  45.088  51.105  1.00  0.00    -0.049 A 
HETATM   11  C   UNL     1      26.821  44.687  49.926  1.00  0.00     0.008 A 
HETATM   12  C   UNL     1      26.839  43.345  49.544  1.00  0.00     0.001 A 
HETATM   13  C   UNL     1      26.207  42.385  50.331  1.00  0.00     0.000 A 
HETATM   14  C   UNL     1      25.556  42.767  51.503  1.00  0.00     0.001 A 
HETATM   15  C   UNL     1      25.538  44.109  51.889  1.00  0.00     0.008 A 
ENDBRANCH   1  10
BRANCH   1  16
HETATM   16  C   UNL     1      25.318  46.721  52.851  1.00  0.00     0.116 C 
BRANCH  16  17
HETATM   17  C   UNL     1      26.149  47.159  54.040  1.00  0.00     0.218 C 
HETATM   18  N   UNL     1      27.375  46.561  54.152  1.00  0.00    -0.355 N 
HETATM   19  H   UNL     1      27.617  45.736  53.617  1.00  0.00     0.162 HD
HETATM   20  O   UNL     1      25.772  48.046  54.803  1.00  0.00    -0.274 OA
BRANCH  18  21
HETATM   21  C   UNL     1      28.205  46.767  55.316  1.00  0.00     0.184 C 
BRANCH  21  22
HETATM   22  C   UNL     1      29.123  45.595  55.469  1.00  0.00     0.080 A 
HETATM   23  N   UNL     1      29.170  44.607  54.539  1.00  0.00    -0.177 NA
HETATM   24  N   UNL     1      30.098  43.735  55.010  1.00  0.00    -0.281 N 
HETATM   25  H   UNL     1      30.304  42.900  54.471  1.00  0.00     0.189 HD
HETATM   26  C   UNL     1      30.617  44.153  56.180  1.00  0.00     0.036 A 
HETATM   27  C   UNL     1      30.022  45.331  56.506  1.00  0.00    -0.006 A 
HETATM   28  C   UNL     1      31.624  43.667  57.130  1.00  0.00     0.059 C 
HETATM   29  C   UNL     1      30.535  45.871  57.775  1.00  0.00     0.043 C 
HETATM   30  C   UNL     1      31.382  44.663  58.320  1.00  0.00     0.011 C 
ENDBRANCH  21  22
ENDBRANCH  18  21
ENDBRANCH  16  17
ENDBRANCH   1  16
TORSDOF 7
ENDMDL
MODEL 2
REMARK VINA RESULT:      -9.1      2.839      7.712
REMARK  7 active torsions:
REMARK  status: ('A' for Active; 'I' for Inactive)
REMARK    1  A    between atoms: O_2  and  C_3 
REMARK    2  A    between atoms: C_6  and  C_7 
REMARK    3  A    between atoms: C_7  and  C_8 
REMARK    4  A    between atoms: C_7  and  C_14 
REMARK    5  A    between atoms: C_14  and  C_15 
REMARK       I    between atoms: C_15  and  N_16 
REMARK    6  A    between atoms: N_16  and  C_17 
REMARK    7  A    between atoms: C_17  and  C_18 
ROOT
HETATM    1  C   UNL     1      28.692  45.079  54.734  1.00  0.00     0.060 C 
ENDROOT
BRANCH   1   2
HETATM    2  C   UNL     1      28.533  43.827  53.857  1.00  0.00    -0.049 A 
HETATM    3  C   UNL     1      29.116  43.703  52.586  1.00  0.00     0.010 A 
HETATM    4  C   UNL     1      28.931  42.552  51.813  1.00  0.00     0.037 A 
HETATM    5  C   UNL     1      28.150  41.495  52.277  1.00  0.00     0.068 A 
HETATM    6  C   UNL     1      27.536  41.610  53.520  1.00  0.00     0.037 A 
HETATM    7  C   UNL     1      27.719  42.765  54.293  1.00  0.00     0.010 A 
BRANCH   5   8
HETATM    8  O   UNL     1      28.058  40.429  51.426  1.00  0.00    -0.356 OA
HETATM    9  C   UNL     1      26.920  40.384  50.576  1.00  0.00     0.210 C 
ENDBRANCH   5   8
ENDBRANCH   1   2
BRANCH   1  10
HETATM   10  C   UNL     1      29.663  44.929  55.908  1.00  0.00    -0.049 A 
HETATM   11  C   UNL     1      30.661  43.940  55.919  1.00  0.00     0.008 A 
HETATM   12  C   UNL     1      31.524  43.812  57.008  1.00  0.00     0.001 A 
HETATM   13  C   UNL     1      31.403  44.668  58.100  1.00  0.00     0.000 A 
HETATM   14  C   UNL     1      30.419  45.655  58.104  1.00  0.00     0.001 A 
HETATM   15  C   UNL     1      29.555  45.786  57.015  1.00  0.00     0.008 A 
ENDBRANCH   1  10
BRANCH   1  16
HETATM   16  C   UNL     1      27.328  45.633  55.209  1.00  0.00     0.116 C 
BRANCH  16  17
HETATM   17  C   UNL     1      26.713  46.665  54.284  1.00  0.00     0.218 C 
HETATM   18  N   UNL     1      26.513  46.253  52.995  1.00  0.00    -0.355 N 
HETATM   19  H   UNL     1      26.943  45.411  52.632  1.00  0.00     0.162 HD
HETATM   20  O   UNL     1      26.352  47.768  54.692  1.00  0.00    -0.274 OA
BRANCH  18  21
HETATM   21  C   UNL     1      26.083  47.177  51.972  1.00  0.00     0.184 C 
BRANCH  21  22
HETATM   22  C   UNL     1      25.082  46.494  51.094  1.00  0.00     0.080 A 
HETATM   23  N   UNL     1      24.250  47.201  50.286  1.00  0.00    -0.177 NA
HETATM   24  N   UNL     1      23.501  46.259  49.656  1.00  0.00    -0.281 N 
HETATM   25  H   UNL     1      22.795  46.560  48.991  1.00  0.00     0.189 HD
HETATM   26  C   UNL     1      23.845  45.017  50.043  1.00  0.00     0.036 A 
HETATM   27  C   UNL     1      24.845  45.123  50.958  1.00  0.00    -0.006 A 
HETATM   28  C   UNL     1      23.422  43.648  49.722  1.00  0.00     0.059 C 
HETATM   29  C   UNL     1      25.292  43.806  51.435  1.00  0.00     0.043 C 
HETATM   30  C   UNL     1      24.191  42.855  50.837  1.00  0.00     0.011 C 
ENDBRANCH  21  22
ENDBRANCH  18  21
ENDBRANCH  16  17
ENDBRANCH   1  16
TORSDOF 7
ENDMDL
MODEL 3
REMARK VINA RESULT:      -8.9      2.888      8.112
REMARK  7 active torsions:
REMARK  status: ('A' for Active; 'I' for Inactive)
REMARK    1  A    between atoms: O_2  and  C_3 
REMARK    2  A    between atoms: C_6  and  C_7 
REMARK    3  A    between atoms: C_7  and  C_8 
REMARK    4  A    between atoms: C_7  and  C_14 
REMARK    5  A    between atoms: C_14  and  C_15 
REMARK       I    between atoms: C_15  and  N_16 
REMARK    6  A    between atoms: N_16  and  C_17 
REMARK    7  A    between atoms: C_17  and  C_18 
ROOT
HETATM    1  C   UNL     1      28.161  44.832  53.970  1.00  0.00     0.060 C 
ENDROOT
BRANCH   1   2
HETATM    2  C   UNL     1      28.138  43.534  53.147  1.00  0.00    -0.049 A 
HETATM    3  C   UNL     1      28.176  43.516  51.744  1.00  0.00     0.010 A 
HETATM    4  C   UNL     1      28.136  42.311  51.034  1.00  0.00     0.037 A 
HETATM    5  C   UNL     1      28.045  41.091  51.699  1.00  0.00     0.068 A 
HETATM    6  C   UNL     1      27.973  41.087  53.088  1.00  0.00     0.037 A 
HETATM    7  C   UNL     1      28.011  42.294  53.800  1.00  0.00     0.010 A 
BRANCH   5   8
HETATM    8  O   UNL     1      28.021  39.991  50.886  1.00  0.00    -0.356 OA
HETATM    9  C   UNL     1      28.506  40.163  49.561  1.00  0.00     0.210 C 
ENDBRANCH   5   8
ENDBRANCH   1   2
BRANCH   1  10
HETATM   10  C   UNL     1      29.132  44.834  55.153  1.00  0.00    -0.049 A 
HETATM   11  C   UNL     1      30.184  43.907  55.247  1.00  0.00     0.008 A 
HETATM   12  C   UNL     1      31.046  43.917  56.344  1.00  0.00     0.001 A 
HETATM   13  C   UNL     1      30.870  44.850  57.362  1.00  0.00     0.000 A 
HETATM   14  C   UNL     1      29.832  45.776  57.284  1.00  0.00     0.001 A 
HETATM   15  C   UNL     1      28.969  45.770  56.187  1.00  0.00     0.008 A 
ENDBRANCH   1  10
BRANCH   1  16
HETATM   16  C   UNL     1      26.743  45.264  54.414  1.00  0.00     0.116 C 
BRANCH  16  17
HETATM   17  C   UNL     1      25.708  45.254  53.306  1.00  0.00     0.218 C 
HETATM   18  N   UNL     1      25.883  46.199  52.332  1.00  0.00    -0.355 N 
HETATM   19  H   UNL     1      26.514  46.981  52.454  1.00  0.00     0.162 HD
HETATM   20  O   UNL     1      24.822  44.403  53.254  1.00  0.00    -0.274 OA
BRANCH  18  21
HETATM   21  C   UNL     1      24.890  46.405  51.303  1.00  0.00     0.184 C 
BRANCH  21  22
HETATM   22  C   UNL     1      25.372  47.472  50.372  1.00  0.00     0.080 A 
HETATM   23  N   UNL     1      26.693  47.764  50.254  1.00  0.00    -0.177 NA
HETATM   24  N   UNL     1      26.743  48.764  49.336  1.00  0.00    -0.281 N 
HETATM   25  H   UNL     1      27.647  49.152  49.084  1.00  0.00     0.189 HD
HETATM   26  C   UNL     1      25.514  49.086  48.892  1.00  0.00     0.036 A 
HETATM   27  C   UNL     1      24.615  48.289  49.527  1.00  0.00    -0.006 A 
HETATM   28  C   UNL     1      24.948  50.039  47.929  1.00  0.00     0.059 C 
HETATM   29  C   UNL     1      23.237  48.567  49.096  1.00  0.00     0.043 C 
HETATM   30  C   UNL     1      23.420  49.884  48.257  1.00  0.00     0.011 C 
ENDBRANCH  21  22
ENDBRANCH  18  21
ENDBRANCH  16  17
ENDBRANCH   1  16
TORSDOF 7
ENDMDL
MODEL 4
REMARK VINA RESULT:      -8.8      3.689      7.334
REMARK  7 active torsions:
REMARK  status: ('A' for Active; 'I' for Inactive)
REMARK    1  A    between atoms: O_2  and  C_3 
REMARK    2  A    between atoms: C_6  and  C_7 
REMARK    3  A    between atoms: C_7  and  C_8 
REMARK    4  A    between atoms: C_7  and  C_14 
REMARK    5  A    between atoms: C_14  and  C_15 
REMARK       I    between atoms: C_15  and  N_16 
REMARK    6  A    between atoms: N_16  and  C_17 
REMARK    7  A    between atoms: C_17  and  C_18 
ROOT
HETATM    1  C   UNL     1      28.236  43.292  53.425  1.00  0.00     0.060 C 
ENDROOT
BRANCH   1   2
HETATM    2  C   UNL     1      27.183  44.058  52.608  1.00  0.00    -0.049 A 
HETATM    3  C   UNL     1      25.877  44.290  53.068  1.00  0.00     0.010 A 
HETATM    4  C   UNL     1      24.945  44.978  52.283  1.00  0.00     0.037 A 
HETATM    5  C   UNL     1      25.281  45.444  51.014  1.00  0.00     0.068 A 
HETATM    6  C   UNL     1      26.560  45.196  50.526  1.00  0.00     0.037 A 
HETATM    7  C   UNL     1      27.493  44.505  51.310  1.00  0.00     0.010 A 
BRANCH   5   8
HETATM    8  O   UNL     1      24.280  46.104  50.358  1.00  0.00    -0.356 OA
HETATM    9  C   UNL     1      24.488  47.486  50.095  1.00  0.00     0.210 C 
ENDBRANCH   5   8
ENDBRANCH   1   2
BRANCH   1  10
HETATM   10  C   UNL     1      28.953  44.118  54.496  1.00  0.00    -0.049 A 
HETATM   11  C   UNL     1      28.470  45.372  54.908  1.00  0.00     0.008 A 
HETATM   12  C   UNL     1      29.150  46.114  55.874  1.00  0.00     0.001 A 
HETATM   13  C   UNL     1      30.321  45.617  56.441  1.00  0.00     0.000 A 
HETATM   14  C   UNL     1      30.813  44.375  56.043  1.00  0.00     0.001 A 
HETATM   15  C   UNL     1      30.133  43.629  55.078  1.00  0.00     0.008 A 
ENDBRANCH   1  10
BRANCH   1  16
HETATM   16  C   UNL     1      29.251  42.555  52.519  1.00  0.00     0.116 C 
BRANCH  16  17
HETATM   17  C   UNL     1      28.869  41.128  52.180  1.00  0.00     0.218 C 
HETATM   18  N   UNL     1      28.741  40.857  50.844  1.00  0.00    -0.355 N 
HETATM   19  H   UNL     1      28.685  41.595  50.153  1.00  0.00     0.162 HD
HETATM   20  O   UNL     1      28.759  40.262  53.046  1.00  0.00    -0.274 OA
BRANCH  18  21
HETATM   21  C   UNL     1      28.232  39.586  50.384  1.00  0.00     0.184 C 
BRANCH  21  22
HETATM   22  C   UNL     1      27.127  39.833  49.406  1.00  0.00     0.080 A 
HETATM   23  N   UNL     1      27.098  39.212  48.199  1.00  0.00    -0.177 NA
HETATM   24  N   UNL     1      25.971  39.677  47.601  1.00  0.00    -0.281 N 
HETATM   25  H   UNL     1      25.740  39.345  46.669  1.00  0.00     0.189 HD
HETATM   26  C   UNL     1      25.316  40.546  48.391  1.00  0.00     0.036 A 
HETATM   27  C   UNL     1      26.020  40.674  49.548  1.00  0.00    -0.006 A 
HETATM   28  C   UNL     1      24.085  41.341  48.307  1.00  0.00     0.059 C 
HETATM   29  C   UNL     1      25.371  41.607  50.483  1.00  0.00     0.043 C 
HETATM   30  C   UNL     1      24.256  42.248  49.578  1.00  0.00     0.011 C 
ENDBRANCH  21  22
ENDBRANCH  18  21
ENDBRANCH  16  17
ENDBRANCH   1  16
TORSDOF 7
ENDMDL
MODEL 5
REMARK VINA RESULT:      -8.7      2.079      4.831
REMARK  7 active torsions:
REMARK  status: ('A' for Active; 'I' for Inactive)
REMARK    1  A    between atoms: O_2  and  C_3 
REMARK    2  A    between atoms: C_6  and  C_7 
REMARK    3  A    between atoms: C_7  and  C_8 
REMARK    4  A    between atoms: C_7  and  C_14 
REMARK    5  A    between atoms: C_14  and  C_15 
REMARK       I    between atoms: C_15  and  N_16 
REMARK    6  A    between atoms: N_16  and  C_17 
REMARK    7  A    between atoms: C_17  and  C_18 
ROOT
HETATM    1  C   UNL     1      25.306  46.905  51.244  1.00  0.00     0.060 C 
ENDROOT
BRANCH   1   2
HETATM    2  C   UNL     1      25.366  45.428  50.821  1.00  0.00    -0.049 A 
HETATM    3  C   UNL     1      26.435  44.884  50.092  1.00  0.00     0.010 A 
HETATM    4  C   UNL     1      26.441  43.537  49.713  1.00  0.00     0.037 A 
HETATM    5  C   UNL     1      25.379  42.697  50.037  1.00  0.00     0.068 A 
HETATM    6  C   UNL     1      24.294  43.224  50.730  1.00  0.00     0.037 A 
HETATM    7  C   UNL     1      24.286  44.573  51.108  1.00  0.00     0.010 A 
BRANCH   5   8
HETATM    8  O   UNL     1      25.515  41.404  49.612  1.00  0.00    -0.356 OA
HETATM    9  C   UNL     1      26.204  40.513  50.479  1.00  0.00     0.210 C 
ENDBRANCH   5   8
ENDBRANCH   1   2
BRANCH   1  10
HETATM   10  C   UNL     1      25.064  47.897  50.104  1.00  0.00    -0.049 A 
HETATM   11  C   UNL     1      26.121  48.590  49.490  1.00  0.00     0.008 A 
HETATM   12  C   UNL     1      25.874  49.502  48.463  1.00  0.00     0.001 A 
HETATM   13  C   UNL     1      24.569  49.737  48.036  1.00  0.00     0.000 A 
HETATM   14  C   UNL     1      23.510  49.058  48.635  1.00  0.00     0.001 A 
HETATM   15  C   UNL     1      23.754  48.143  49.661  1.00  0.00     0.008 A 
ENDBRANCH   1  10
BRANCH   1  16
HETATM   16  C   UNL     1      26.537  47.318  52.087  1.00  0.00     0.116 C 
BRANCH  16  17
HETATM   17  C   UNL     1      26.425  46.990  53.563  1.00  0.00     0.218 C 
HETATM   18  N   UNL     1      27.503  47.347  54.327  1.00  0.00    -0.355 N 
HETATM   19  H   UNL     1      28.390  47.602  53.911  1.00  0.00     0.162 HD
HETATM   20  O   UNL     1      25.401  46.507  54.044  1.00  0.00    -0.274 OA
BRANCH  18  21
HETATM   21  C   UNL     1      27.598  46.957  55.714  1.00  0.00     0.184 C 
BRANCH  21  22
HETATM   22  C   UNL     1      28.725  45.984  55.866  1.00  0.00     0.080 A 
HETATM   23  N   UNL     1      29.634  46.105  56.868  1.00  0.00    -0.177 NA
HETATM   24  N   UNL     1      30.487  45.064  56.685  1.00  0.00    -0.281 N 
HETATM   25  H   UNL     1      31.264  44.950  57.328  1.00  0.00     0.189 HD
HETATM   26  C   UNL     1      30.133  44.317  55.623  1.00  0.00     0.036 A 
HETATM   27  C   UNL     1      29.019  44.870  55.074  1.00  0.00    -0.006 A 
HETATM   28  C   UNL     1      30.634  43.109  54.958  1.00  0.00     0.059 C 
HETATM   29  C   UNL     1      28.552  44.113  53.903  1.00  0.00     0.043 C 
HETATM   30  C   UNL     1      29.749  43.122  53.661  1.00  0.00     0.011 C 
ENDBRANCH  21  22
ENDBRANCH  18  21
ENDBRANCH  16  17
ENDBRANCH   1  16
TORSDOF 7
ENDMDL
MODEL 6
REMARK VINA RESULT:      -8.5      3.885      8.468
REMARK  7 active torsions:
REMARK  status: ('A' for Active; 'I' for Inactive)
REMARK    1  A    between atoms: O_2  and  C_3 
REMARK    2  A    between atoms: C_6  and  C_7 
REMARK    3  A    between atoms: C_7  and  C_8 
REMARK    4  A    between atoms: C_7  and  C_14 
REMARK    5  A    between atoms: C_14  and  C_15 
REMARK       I    between atoms: C_15  and  N_16 
REMARK    6  A    between atoms: N_16  and  C_17 
REMARK    7  A    between atoms: C_17  and  C_18 
ROOT
HETATM    1  C   UNL     1      28.350  43.208  52.623  1.00  0.00     0.060 C 
ENDROOT
BRANCH   1   2
HETATM    2  C   UNL     1      29.042  43.700  53.905  1.00  0.00    -0.049 A 
HETATM    3  C   UNL     1      28.705  44.904  54.542  1.00  0.00     0.010 A 
HETATM    4  C   UNL     1      29.371  45.322  55.699  1.00  0.00     0.037 A 
HETATM    5  C   UNL     1      30.400  44.560  56.248  1.00  0.00     0.068 A 
HETATM    6  C   UNL     1      30.772  43.379  55.614  1.00  0.00     0.037 A 
HETATM    7  C   UNL     1      30.106  42.961  54.454  1.00  0.00     0.010 A 
BRANCH   5   8
HETATM    8  O   UNL     1      30.961  45.079  57.382  1.00  0.00    -0.356 OA
HETATM    9  C   UNL     1      30.211  46.069  58.073  1.00  0.00     0.210 C 
ENDBRANCH   5   8
ENDBRANCH   1   2
BRANCH   1  10
HETATM   10  C   UNL     1      27.224  44.107  52.108  1.00  0.00    -0.049 A 
HETATM   11  C   UNL     1      27.326  44.792  50.884  1.00  0.00     0.008 A 
HETATM   12  C   UNL     1      26.292  45.619  50.443  1.00  0.00     0.001 A 
HETATM   13  C   UNL     1      25.144  45.776  51.216  1.00  0.00     0.000 A 
HETATM   14  C   UNL     1      25.028  45.104  52.431  1.00  0.00     0.001 A 
HETATM   15  C   UNL     1      26.059  44.274  52.874  1.00  0.00     0.008 A 
ENDBRANCH   1  10
BRANCH   1  16
HETATM   16  C   UNL     1      27.878  41.740  52.744  1.00  0.00     0.116 C 
BRANCH  16  17
HETATM   17  C   UNL     1      27.583  41.064  51.419  1.00  0.00     0.218 C 
HETATM   18  N   UNL     1      26.258  40.968  51.092  1.00  0.00    -0.355 N 
HETATM   19  H   UNL     1      25.527  41.129  51.774  1.00  0.00     0.162 HD
HETATM   20  O   UNL     1      28.482  40.701  50.663  1.00  0.00    -0.274 OA
BRANCH  18  21
HETATM   21  C   UNL     1      25.825  40.213  49.939  1.00  0.00     0.184 C 
BRANCH  21  22
HETATM   22  C   UNL     1      25.201  41.151  48.954  1.00  0.00     0.080 A 
HETATM   23  N   UNL     1      25.583  41.166  47.651  1.00  0.00    -0.177 NA
HETATM   24  N   UNL     1      24.812  42.126  47.078  1.00  0.00    -0.281 N 
HETATM   25  H   UNL     1      24.927  42.318  46.088  1.00  0.00     0.189 HD
HETATM   26  C   UNL     1      23.979  42.688  47.973  1.00  0.00     0.036 A 
HETATM   27  C   UNL     1      24.196  42.096  49.178  1.00  0.00    -0.006 A 
HETATM   28  C   UNL     1      22.942  43.726  47.954  1.00  0.00     0.059 C 
HETATM   29  C   UNL     1      23.319  42.646  50.223  1.00  0.00     0.043 C 
HETATM   30  C   UNL     1      22.689  43.890  49.496  1.00  0.00     0.011 C 
ENDBRANCH  21  22
ENDBRANCH  18  21
ENDBRANCH  16  17
ENDBRANCH   1  16
TORSDOF 7
ENDMDL
MODEL 7
REMARK VINA RESULT:      -8.5      4.140      7.897
REMARK  7 active torsions:
REMARK  status: ('A' for Active; 'I' for Inactive)
REMARK    1  A    between atoms: O_2  and  C_3 
REMARK    2  A    between atoms: C_6  and  C_7 
REMARK    3  A    between atoms: C_7  and  C_8 
REMARK    4  A    between atoms: C_7  and  C_14 
REMARK    5  A    between atoms: C_14  and  C_15 
REMARK       I    between atoms: C_15  and  N_16 
REMARK    6  A    between atoms: N_16  and  C_17 
REMARK    7  A    between atoms: C_17  and  C_18 
ROOT
HETATM    1  C   UNL     1      28.367  43.229  53.616  1.00  0.00     0.060 C 
ENDROOT
BRANCH   1   2
HETATM    2  C   UNL     1      27.280  43.972  52.822  1.00  0.00    -0.049 A 
HETATM    3  C   UNL     1      25.965  44.128  53.287  1.00  0.00     0.010 A 
HETATM    4  C   UNL     1      25.002  44.798  52.524  1.00  0.00     0.037 A 
HETATM    5  C   UNL     1      25.317  45.320  51.271  1.00  0.00     0.068 A 
HETATM    6  C   UNL     1      26.606  45.148  50.778  1.00  0.00     0.037 A 
HETATM    7  C   UNL     1      27.570  44.475  51.540  1.00  0.00     0.010 A 
BRANCH   5   8
HETATM    8  O   UNL     1      24.287  45.956  50.635  1.00  0.00    -0.356 OA
HETATM    9  C   UNL     1      24.575  47.220  50.054  1.00  0.00     0.210 C 
ENDBRANCH   5   8
ENDBRANCH   1   2
BRANCH   1  10
HETATM   10  C   UNL     1      29.080  44.066  54.679  1.00  0.00    -0.049 A 
HETATM   11  C   UNL     1      28.561  45.294  55.125  1.00  0.00     0.008 A 
HETATM   12  C   UNL     1      29.238  46.048  56.084  1.00  0.00     0.001 A 
HETATM   13  C   UNL     1      30.443  45.589  56.610  1.00  0.00     0.000 A 
HETATM   14  C   UNL     1      30.972  44.374  56.179  1.00  0.00     0.001 A 
HETATM   15  C   UNL     1      30.295  43.616  55.222  1.00  0.00     0.008 A 
ENDBRANCH   1  10
BRANCH   1  16
HETATM   16  C   UNL     1      29.385  42.524  52.688  1.00  0.00     0.116 C 
BRANCH  16  17
HETATM   17  C   UNL     1      28.926  41.179  52.160  1.00  0.00     0.218 C 
HETATM   18  N   UNL     1      28.760  41.107  50.803  1.00  0.00    -0.355 N 
HETATM   19  H   UNL     1      28.728  41.939  50.225  1.00  0.00     0.162 HD
HETATM   20  O   UNL     1      28.789  40.205  52.897  1.00  0.00    -0.274 OA
BRANCH  18  21
HETATM   21  C   UNL     1      28.180  39.940  50.181  1.00  0.00     0.184 C 
BRANCH  21  22
HETATM   22  C   UNL     1      28.011  40.205  48.718  1.00  0.00     0.080 A 
HETATM   23  N   UNL     1      27.657  41.433  48.258  1.00  0.00    -0.177 NA
HETATM   24  N   UNL     1      27.602  41.290  46.908  1.00  0.00    -0.281 N 
HETATM   25  H   UNL     1      27.350  42.094  46.341  1.00  0.00     0.189 HD
HETATM   26  C   UNL     1      27.911  40.036  46.532  1.00  0.00     0.036 A 
HETATM   27  C   UNL     1      28.176  39.314  47.653  1.00  0.00    -0.006 A 
HETATM   28  C   UNL     1      28.030  39.304  45.265  1.00  0.00     0.059 C 
HETATM   29  C   UNL     1      28.532  37.923  47.338  1.00  0.00     0.043 C 
HETATM   30  C   UNL     1      28.179  37.838  45.807  1.00  0.00     0.011 C 
ENDBRANCH  21  22
ENDBRANCH  18  21
ENDBRANCH  16  17
ENDBRANCH   1  16
TORSDOF 7
ENDMDL
MODEL 8
REMARK VINA RESULT:      -8.4      3.131      7.165
REMARK  7 active torsions:
REMARK  status: ('A' for Active; 'I' for Inactive)
REMARK    1  A    between atoms: O_2  and  C_3 
REMARK    2  A    between atoms: C_6  and  C_7 
REMARK    3  A    between atoms: C_7  and  C_8 
REMARK    4  A    between atoms: C_7  and  C_14 
REMARK    5  A    between atoms: C_14  and  C_15 
REMARK       I    between atoms: C_15  and  N_16 
REMARK    6  A    between atoms: N_16  and  C_17 
REMARK    7  A    between atoms: C_17  and  C_18 
ROOT
HETATM    1  C   UNL     1      25.925  45.284  51.616  1.00  0.00     0.060 C 
ENDROOT
BRANCH   1   2
HETATM    2  C   UNL     1      26.705  45.534  52.917  1.00  0.00    -0.049 A 
HETATM    3  C   UNL     1      26.572  46.708  53.675  1.00  0.00     0.010 A 
HETATM    4  C   UNL     1      27.314  46.902  54.846  1.00  0.00     0.037 A 
HETATM    5  C   UNL     1      28.219  45.939  55.288  1.00  0.00     0.068 A 
HETATM    6  C   UNL     1      28.390  44.783  54.534  1.00  0.00     0.037 A 
HETATM    7  C   UNL     1      27.649  44.589  53.360  1.00  0.00     0.010 A 
BRANCH   5   8
HETATM    8  O   UNL     1      28.872  46.252  56.448  1.00  0.00    -0.356 OA
HETATM    9  C   UNL     1      30.195  45.751  56.593  1.00  0.00     0.210 C 
ENDBRANCH   5   8
ENDBRANCH   1   2
BRANCH   1  10
HETATM   10  C   UNL     1      25.707  46.522  50.743  1.00  0.00    -0.049 A 
HETATM   11  C   UNL     1      24.417  46.987  50.430  1.00  0.00     0.008 A 
HETATM   12  C   UNL     1      24.242  48.108  49.618  1.00  0.00     0.001 A 
HETATM   13  C   UNL     1      25.350  48.780  49.106  1.00  0.00     0.000 A 
HETATM   14  C   UNL     1      26.635  48.331  49.407  1.00  0.00     0.001 A 
HETATM   15  C   UNL     1      26.813  47.211  50.221  1.00  0.00     0.008 A 
ENDBRANCH   1  10
BRANCH   1  16
HETATM   16  C   UNL     1      24.592  44.541  51.871  1.00  0.00     0.116 C 
BRANCH  16  17
HETATM   17  C   UNL     1      24.468  43.210  51.157  1.00  0.00     0.218 C 
HETATM   18  N   UNL     1      25.611  42.458  51.115  1.00  0.00    -0.355 N 
HETATM   19  H   UNL     1      26.516  42.851  51.342  1.00  0.00     0.162 HD
HETATM   20  O   UNL     1      23.393  42.809  50.716  1.00  0.00    -0.274 OA
BRANCH  18  21
HETATM   21  C   UNL     1      25.679  41.244  50.335  1.00  0.00     0.184 C 
BRANCH  21  22
HETATM   22  C   UNL     1      26.992  40.575  50.597  1.00  0.00     0.080 A 
HETATM   23  N   UNL     1      27.768  40.928  51.654  1.00  0.00    -0.177 NA
HETATM   24  N   UNL     1      28.856  40.120  51.565  1.00  0.00    -0.281 N 
HETATM   25  H   UNL     1      29.588  40.208  52.263  1.00  0.00     0.189 HD
HETATM   26  C   UNL     1      28.771  39.293  50.507  1.00  0.00     0.036 A 
HETATM   27  C   UNL     1      27.601  39.552  49.865  1.00  0.00    -0.006 A 
HETATM   28  C   UNL     1      29.595  38.230  49.919  1.00  0.00     0.059 C 
HETATM   29  C   UNL     1      27.417  38.685  48.691  1.00  0.00     0.043 C 
HETATM   30  C   UNL     1      28.831  38.008  48.564  1.00  0.00     0.011 C 
ENDBRANCH  21  22
ENDBRANCH  18  21
ENDBRANCH  16  17
ENDBRANCH   1  16
TORSDOF 7
ENDMDL
MODEL 9
REMARK VINA RESULT:      -8.3      2.141      2.956
REMARK  7 active torsions:
REMARK  status: ('A' for Active; 'I' for Inactive)
REMARK    1  A    between atoms: O_2  and  C_3 
REMARK    2  A    between atoms: C_6  and  C_7 
REMARK    3  A    between atoms: C_7  and  C_8 
REMARK    4  A    between atoms: C_7  and  C_14 
REMARK    5  A    between atoms: C_14  and  C_15 
REMARK       I    between atoms: C_15  and  N_16 
REMARK    6  A    between atoms: N_16  and  C_17 
REMARK    7  A    between atoms: C_17  and  C_18 
ROOT
HETATM    1  C   UNL     1      26.361  45.066  52.618  1.00  0.00     0.060 C 
ENDROOT
BRANCH   1   2
HETATM    2  C   UNL     1      25.368  45.364  51.483  1.00  0.00    -0.049 A 
HETATM    3  C   UNL     1      25.196  46.644  50.934  1.00  0.00     0.010 A 
HETATM    4  C   UNL     1      24.268  46.875  49.912  1.00  0.00     0.037 A 
HETATM    5  C   UNL     1      23.476  45.841  49.417  1.00  0.00     0.068 A 
HETATM    6  C   UNL     1      23.607  44.572  49.970  1.00  0.00     0.037 A 
HETATM    7  C   UNL     1      24.534  44.341  50.995  1.00  0.00     0.010 A 
BRANCH   5   8
HETATM    8  O   UNL     1      22.616  46.201  48.416  1.00  0.00    -0.356 OA
HETATM    9  C   UNL     1      22.504  47.591  48.136  1.00  0.00     0.210 C 
ENDBRANCH   5   8
ENDBRANCH   1   2
BRANCH   1  10
HETATM   10  C   UNL     1      27.048  43.702  52.537  1.00  0.00    -0.049 A 
HETATM   11  C   UNL     1      27.232  42.898  53.676  1.00  0.00     0.008 A 
HETATM   12  C   UNL     1      27.877  41.664  53.580  1.00  0.00     0.001 A 
HETATM   13  C   UNL     1      28.348  41.216  52.348  1.00  0.00     0.000 A 
HETATM   14  C   UNL     1      28.174  42.001  51.210  1.00  0.00     0.001 A 
HETATM   15  C   UNL     1      27.527  43.235  51.302  1.00  0.00     0.008 A 
ENDBRANCH   1  10
BRANCH   1  16
HETATM   16  C   UNL     1      25.731  45.289  54.014  1.00  0.00     0.116 C 
BRANCH  16  17
HETATM   17  C   UNL     1      26.425  46.343  54.854  1.00  0.00     0.218 C 
HETATM   18  N   UNL     1      27.620  45.964  55.402  1.00  0.00    -0.355 N 
HETATM   19  H   UNL     1      27.910  44.994  55.432  1.00  0.00     0.162 HD
HETATM   20  O   UNL     1      25.975  47.482  54.967  1.00  0.00    -0.274 OA
BRANCH  18  21
HETATM   21  C   UNL     1      28.311  46.809  56.348  1.00  0.00     0.184 C 
BRANCH  21  22
HETATM   22  C   UNL     1      29.378  46.007  57.024  1.00  0.00     0.080 A 
HETATM   23  N   UNL     1      29.793  46.300  58.283  1.00  0.00    -0.177 NA
HETATM   24  N   UNL     1      30.751  45.376  58.552  1.00  0.00    -0.281 N 
HETATM   25  H   UNL     1      31.215  45.401  59.455  1.00  0.00     0.189 HD
HETATM   26  C   UNL     1      30.931  44.536  57.516  1.00  0.00     0.036 A 
HETATM   27  C   UNL     1      30.077  44.904  56.524  1.00  0.00    -0.006 A 
HETATM   28  C   UNL     1      31.779  43.374  57.224  1.00  0.00     0.059 C 
HETATM   29  C   UNL     1      30.199  44.032  55.346  1.00  0.00     0.043 C 
HETATM   30  C   UNL     1      31.489  43.202  55.690  1.00  0.00     0.011 C 
ENDBRANCH  21  22
ENDBRANCH  18  21
ENDBRANCH  16  17
ENDBRANCH   1  16
TORSDOF 7
ENDMDL
MODEL 10
REMARK VINA RESULT:      -8.2      3.397      8.195
REMARK  7 active torsions:
REMARK  status: ('A' for Active; 'I' for Inactive)
REMARK    1  A    between atoms: O_2  and  C_3 
REMARK    2  A    between atoms: C_6  and  C_7 
REMARK    3  A    between atoms: C_7  and  C_8 
REMARK    4  A    between atoms: C_7  and  C_14 
REMARK    5  A    between atoms: C_14  and  C_15 
REMARK       I    between atoms: C_15  and  N_16 
REMARK    6  A    between atoms: N_16  and  C_17 
REMARK    7  A    between atoms: C_17  and  C_18 
ROOT
HETATM    1  C   UNL     1      27.332  44.301  51.777  1.00  0.00     0.060 C 
ENDROOT
BRANCH   1   2
HETATM    2  C   UNL     1      26.894  43.095  50.931  1.00  0.00    -0.049 A 
HETATM    3  C   UNL     1      26.583  41.843  51.485  1.00  0.00     0.010 A 
HETATM    4  C   UNL     1      26.204  40.767  50.676  1.00  0.00     0.037 A 
HETATM    5  C   UNL     1      26.136  40.901  49.291  1.00  0.00     0.068 A 
HETATM    6  C   UNL     1      26.471  42.123  48.718  1.00  0.00     0.037 A 
HETATM    7  C   UNL     1      26.853  43.201  49.528  1.00  0.00     0.010 A 
BRANCH   5   8
HETATM    8  O   UNL     1      25.746  39.775  48.621  1.00  0.00    -0.356 OA
HETATM    9  C   UNL     1      25.560  39.896  47.217  1.00  0.00     0.210 C 
ENDBRANCH   5   8
ENDBRANCH   1   2
BRANCH   1  10
HETATM   10  C   UNL     1      28.372  43.992  52.857  1.00  0.00    -0.049 A 
HETATM   11  C   UNL     1      28.309  44.579  54.132  1.00  0.00     0.008 A 
HETATM   12  C   UNL     1      29.279  44.295  55.095  1.00  0.00     0.001 A 
HETATM   13  C   UNL     1      30.324  43.423  54.798  1.00  0.00     0.000 A 
HETATM   14  C   UNL     1      30.400  42.833  53.538  1.00  0.00     0.001 A 
HETATM   15  C   UNL     1      29.430  43.114  52.574  1.00  0.00     0.008 A 
ENDBRANCH   1  10
BRANCH   1  16
HETATM   16  C   UNL     1      26.123  45.063  52.372  1.00  0.00     0.116 C 
BRANCH  16  17
HETATM   17  C   UNL     1      25.901  46.443  51.785  1.00  0.00     0.218 C 
HETATM   18  N   UNL     1      25.365  46.466  50.526  1.00  0.00    -0.355 N 
HETATM   19  H   UNL     1      25.329  45.635  49.947  1.00  0.00     0.162 HD
HETATM   20  O   UNL     1      26.118  47.465  52.433  1.00  0.00    -0.274 OA
BRANCH  18  21
HETATM   21  C   UNL     1      25.245  47.700  49.786  1.00  0.00     0.184 C 
BRANCH  21  22
HETATM   22  C   UNL     1      23.813  47.892  49.395  1.00  0.00     0.080 A 
HETATM   23  N   UNL     1      22.976  46.835  49.234  1.00  0.00    -0.177 NA
HETATM   24  N   UNL     1      21.787  47.390  48.884  1.00  0.00    -0.281 N 
HETATM   25  H   UNL     1      20.995  46.779  48.708  1.00  0.00     0.189 HD
HETATM   26  C   UNL     1      21.866  48.732  48.831  1.00  0.00     0.036 A 
HETATM   27  C   UNL     1      23.138  49.091  49.148  1.00  0.00    -0.006 A 
HETATM   28  C   UNL     1      20.950  49.840  48.536  1.00  0.00     0.059 C 
HETATM   29  C   UNL     1      23.318  50.550  49.122  1.00  0.00     0.043 C 
HETATM   30  C   UNL     1      21.972  51.030  48.465  1.00  0.00     0.011 C 
ENDBRANCH  21  22
ENDBRANCH  18  21
ENDBRANCH  16  17
ENDBRANCH   1  16
TORSDOF 7
ENDMDL
