MODEL 1
REMARK VINA RESULT:      -7.8      0.000      0.000
REMARK  7 active torsions:
REMARK  status: ('A' for Active; 'I' for Inactive)
REMARK    1  A    between atoms: O_2  and  C_3 
REMARK    2  A    between atoms: C_3  and  C_4 
REMARK    3  A    between atoms: C_5  and  N_6 
REMARK       I    between atoms: N_6  and  C_7 
REMARK    4  A    between atoms: C_7  and  C_8 
REMARK    5  A    between atoms: C_8  and  N_9 
REMARK    6  A    between atoms: C_11  and  C_12 
REMARK    7  A    between atoms: C_20  and  O_21 
ROOT
HETATM    1  N   UNL     1      19.879  47.598  47.289  1.00  0.00    -0.054 N 
HETATM    2  H   UNL     1      18.848  47.611  47.390  1.00  0.00     0.281 HD
HETATM    3  C   UNL     1      20.370  49.048  47.304  1.00  0.00     0.228 C 
HETATM    4  C   UNL     1      21.906  49.093  47.558  1.00  0.00     0.055 C 
HETATM    5  C   UNL     1      22.376  48.244  48.754  1.00  0.00     0.065 C 
HETATM    6  C   UNL     1      21.866  46.808  48.597  1.00  0.00     0.066 C 
HETATM    7  C   UNL     1      20.355  46.768  48.455  1.00  0.00     0.239 C 
HETATM    8  C   UNL     1      22.480  50.520  47.624  1.00  0.00     0.010 C 
HETATM    9  C   UNL     1      24.008  50.491  47.684  1.00  0.00     0.001 C 
HETATM   10  C   UNL     1      24.519  49.652  48.850  1.00  0.00     0.003 C 
HETATM   11  C   UNL     1      23.916  48.244  48.857  1.00  0.00     0.038 C 
ENDROOT
BRANCH   1  12
HETATM   12  C   UNL     1      20.060  46.964  45.888  1.00  0.00     0.338 C 
BRANCH  12  13
HETATM   13  C   UNL     1      18.854  46.285  45.229  1.00  0.00     0.248 C 
HETATM   14  N   UNL     1      17.840  47.023  44.700  1.00  0.00    -0.319 N 
HETATM   15  H   UNL     1      17.379  46.590  43.904  1.00  0.00     0.169 HD
HETATM   16  O   UNL     1      18.876  45.073  44.994  1.00  0.00    -0.271 OA
BRANCH  14  17
HETATM   17  C   UNL     1      17.445  48.301  45.004  1.00  0.00     0.094 A 
HETATM   18  C   UNL     1      16.646  48.867  45.983  1.00  0.00     0.080 A 
HETATM   19  C   UNL     1      16.508  50.297  45.737  1.00  0.00    -0.026 A 
HETATM   20  C   UNL     1      17.215  50.697  44.617  1.00  0.00    -0.008 A 
HETATM   21  C   UNL     1      15.728  51.298  46.554  1.00  0.00     0.041 C 
HETATM   22  S   UNL     1      17.911  49.394  43.789  1.00  0.00    -0.075 SA
HETATM   23  C   UNL     1      17.306  52.097  44.088  1.00  0.00     0.047 C 
HETATM   24  C   UNL     1      16.828  53.103  45.142  1.00  0.00     0.005 C 
HETATM   25  C   UNL     1      15.534  52.631  45.812  1.00  0.00     0.005 C 
BRANCH  18  26
HETATM   26  C   UNL     1      15.951  48.100  47.019  1.00  0.00     0.296 C 
HETATM   27  O   UNL     1      14.766  48.268  47.297  1.00  0.00    -0.259 OA
BRANCH  26  28
HETATM   28  O   UNL     1      16.775  47.228  47.656  1.00  0.00    -0.322 OA
HETATM   29  C   UNL     1      16.566  47.097  49.063  1.00  0.00     0.213 C 
ENDBRANCH  26  28
ENDBRANCH  18  26
ENDBRANCH  14  17
ENDBRANCH  12  13
ENDBRANCH   1  12
BRANCH   3  30
HETATM   30  C   UNL     1      19.499  50.046  48.061  1.00  0.00    -0.027 A 
HETATM   31  C   UNL     1      18.767  49.741  49.217  1.00  0.00     0.012 A 
HETATM   32  C   UNL     1      18.049  50.729  49.902  1.00  0.00     0.043 A 
HETATM   33  C   UNL     1      18.053  52.036  49.439  1.00  0.00     0.116 A 
HETATM   34  F   UNL     1      17.381  52.980  50.108  1.00  0.00    -0.206 F 
HETATM   35  C   UNL     1      18.760  52.375  48.297  1.00  0.00     0.043 A 
HETATM   36  C   UNL     1      19.474  51.388  47.612  1.00  0.00     0.012 A 
ENDBRANCH   3  30
BRANCH   5  37
HETATM   37  O   UNL     1      21.822  48.746  49.967  1.00  0.00    -0.389 OA
HETATM   38  H   UNL     1      22.513  49.188  50.495  1.00  0.00     0.210 HD
ENDBRANCH   5  37
TORSDOF 7
ENDMDL
MODEL 2
REMARK VINA RESULT:      -7.1      3.590      8.038
REMARK  7 active torsions:
REMARK  status: ('A' for Active; 'I' for Inactive)
REMARK    1  A    between atoms: O_2  and  C_3 
REMARK    2  A    between atoms: C_3  and  C_4 
REMARK    3  A    between atoms: C_5  and  N_6 
REMARK       I    between atoms: N_6  and  C_7 
REMARK    4  A    between atoms: C_7  and  C_8 
REMARK    5  A    between atoms: C_8  and  N_9 
REMARK    6  A    between atoms: C_11  and  C_12 
REMARK    7  A    between atoms: C_20  and  O_21 
ROOT
HETATM    1  N   UNL     1      19.951  47.617  48.525  1.00  0.00    -0.054 N 
HETATM    2  H   UNL     1      19.794  46.676  48.120  1.00  0.00     0.281 HD
HETATM    3  C   UNL     1      19.544  48.653  47.474  1.00  0.00     0.228 C 
HETATM    4  C   UNL     1      19.373  50.053  48.136  1.00  0.00     0.055 C 
HETATM    5  C   UNL     1      18.502  50.051  49.405  1.00  0.00     0.065 C 
HETATM    6  C   UNL     1      19.039  49.013  50.396  1.00  0.00     0.066 C 
HETATM    7  C   UNL     1      19.104  47.631  49.772  1.00  0.00     0.239 C 
HETATM    8  C   UNL     1      18.928  51.151  47.153  1.00  0.00     0.010 C 
HETATM    9  C   UNL     1      18.963  52.526  47.820  1.00  0.00     0.001 C 
HETATM   10  C   UNL     1      18.120  52.568  49.090  1.00  0.00     0.003 C 
HETATM   11  C   UNL     1      18.488  51.446  50.065  1.00  0.00     0.038 C 
ENDROOT
BRANCH   1  12
HETATM   12  C   UNL     1      21.483  47.624  48.747  1.00  0.00     0.338 C 
BRANCH  12  13
HETATM   13  C   UNL     1      22.358  46.734  47.856  1.00  0.00     0.248 C 
HETATM   14  N   UNL     1      23.305  45.920  48.397  1.00  0.00    -0.319 N 
HETATM   15  H   UNL     1      23.473  45.066  47.871  1.00  0.00     0.169 HD
HETATM   16  O   UNL     1      22.086  46.596  46.660  1.00  0.00    -0.271 OA
BRANCH  14  17
HETATM   17  C   UNL     1      23.961  46.027  49.597  1.00  0.00     0.094 A 
HETATM   18  C   UNL     1      24.814  46.961  50.162  1.00  0.00     0.080 A 
HETATM   19  C   UNL     1      25.282  46.478  51.454  1.00  0.00    -0.026 A 
HETATM   20  C   UNL     1      24.744  45.243  51.768  1.00  0.00    -0.008 A 
HETATM   21  C   UNL     1      26.223  47.174  52.408  1.00  0.00     0.041 C 
HETATM   22  S   UNL     1      23.817  44.598  50.506  1.00  0.00    -0.075 SA
HETATM   23  C   UNL     1      24.998  44.466  53.026  1.00  0.00     0.047 C 
HETATM   24  C   UNL     1      25.634  45.365  54.094  1.00  0.00     0.005 C 
HETATM   25  C   UNL     1      26.751  46.227  53.499  1.00  0.00     0.005 C 
BRANCH  18  26
HETATM   26  C   UNL     1      25.263  48.177  49.482  1.00  0.00     0.296 C 
HETATM   27  O   UNL     1      24.590  49.203  49.426  1.00  0.00    -0.259 OA
BRANCH  26  28
HETATM   28  O   UNL     1      26.475  48.019  48.888  1.00  0.00    -0.322 OA
HETATM   29  C   UNL     1      27.480  48.955  49.280  1.00  0.00     0.213 C 
ENDBRANCH  26  28
ENDBRANCH  18  26
ENDBRANCH  14  17
ENDBRANCH  12  13
ENDBRANCH   1  12
BRANCH   3  30
HETATM   30  C   UNL     1      18.484  48.212  46.468  1.00  0.00    -0.027 A 
HETATM   31  C   UNL     1      17.193  47.786  46.814  1.00  0.00     0.012 A 
HETATM   32  C   UNL     1      16.248  47.468  45.832  1.00  0.00     0.043 A 
HETATM   33  C   UNL     1      16.580  47.572  44.490  1.00  0.00     0.116 A 
HETATM   34  F   UNL     1      15.667  47.285  43.555  1.00  0.00    -0.206 F 
HETATM   35  C   UNL     1      17.846  47.985  44.109  1.00  0.00     0.043 A 
HETATM   36  C   UNL     1      18.792  48.299  45.090  1.00  0.00     0.012 A 
ENDBRANCH   3  30
BRANCH   5  37
HETATM   37  O   UNL     1      17.167  49.664  49.091  1.00  0.00    -0.389 OA
HETATM   38  H   UNL     1      16.559  49.945  49.801  1.00  0.00     0.210 HD
ENDBRANCH   5  37
TORSDOF 7
ENDMDL
MODEL 3
REMARK VINA RESULT:      -7.1     25.809     27.650
REMARK  7 active torsions:
REMARK  status: ('A' for Active; 'I' for Inactive)
REMARK    1  A    between atoms: O_2  and  C_3 
REMARK    2  A    between atoms: C_3  and  C_4 
REMARK    3  A    between atoms: C_5  and  N_6 
REMARK       I    between atoms: N_6  and  C_7 
REMARK    4  A    between atoms: C_7  and  C_8 
REMARK    5  A    between atoms: C_8  and  N_9 
REMARK    6  A    between atoms: C_11  and  C_12 
REMARK    7  A    between atoms: C_20  and  O_21 
ROOT
HETATM    1  N   UNL     1      37.835  42.641  64.967  1.00  0.00    -0.054 N 
HETATM    2  H   UNL     1      37.274  41.775  64.872  1.00  0.00     0.281 HD
HETATM    3  C   UNL     1      39.256  42.237  65.369  1.00  0.00     0.228 C 
HETATM    4  C   UNL     1      40.238  43.425  65.142  1.00  0.00     0.055 C 
HETATM    5  C   UNL     1      40.126  44.083  63.754  1.00  0.00     0.065 C 
HETATM    6  C   UNL     1      38.672  44.487  63.492  1.00  0.00     0.066 C 
HETATM    7  C   UNL     1      37.735  43.299  63.614  1.00  0.00     0.239 C 
HETATM    8  C   UNL     1      41.700  43.093  65.488  1.00  0.00     0.010 C 
HETATM    9  C   UNL     1      42.574  44.346  65.426  1.00  0.00     0.001 C 
HETATM   10  C   UNL     1      42.486  45.038  64.070  1.00  0.00     0.003 C 
HETATM   11  C   UNL     1      41.039  45.323  63.659  1.00  0.00     0.038 C 
ENDROOT
BRANCH   1  12
HETATM   12  C   UNL     1      37.115  43.369  66.128  1.00  0.00     0.338 C 
BRANCH  12  13
HETATM   13  C   UNL     1      35.629  43.711  65.970  1.00  0.00     0.248 C 
HETATM   14  N   UNL     1      35.228  44.992  65.743  1.00  0.00    -0.319 N 
HETATM   15  H   UNL     1      34.380  45.072  65.188  1.00  0.00     0.169 HD
HETATM   16  O   UNL     1      34.794  42.810  65.851  1.00  0.00    -0.271 OA
BRANCH  14  17
HETATM   17  C   UNL     1      35.865  46.169  66.045  1.00  0.00     0.094 A 
HETATM   18  C   UNL     1      36.017  46.928  67.193  1.00  0.00     0.080 A 
HETATM   19  C   UNL     1      36.731  48.158  66.875  1.00  0.00    -0.026 A 
HETATM   20  C   UNL     1      37.071  48.225  65.535  1.00  0.00    -0.008 A 
HETATM   21  C   UNL     1      37.112  49.270  67.822  1.00  0.00     0.041 C 
HETATM   22  S   UNL     1      36.440  46.934  64.640  1.00  0.00    -0.075 SA
HETATM   23  C   UNL     1      37.824  49.340  64.873  1.00  0.00     0.047 C 
HETATM   24  C   UNL     1      38.501  50.230  65.922  1.00  0.00     0.005 C 
HETATM   25  C   UNL     1      37.549  50.544  67.080  1.00  0.00     0.005 C 
BRANCH  18  26
HETATM   26  C   UNL     1      35.425  46.586  68.486  1.00  0.00     0.296 C 
HETATM   27  O   UNL     1      34.650  47.326  69.087  1.00  0.00    -0.259 OA
BRANCH  26  28
HETATM   28  O   UNL     1      35.867  45.390  68.956  1.00  0.00    -0.322 OA
HETATM   29  C   UNL     1      34.870  44.550  69.539  1.00  0.00     0.213 C 
ENDBRANCH  26  28
ENDBRANCH  18  26
ENDBRANCH  14  17
ENDBRANCH  12  13
ENDBRANCH   1  12
BRANCH   3  30
HETATM   30  C   UNL     1      39.712  40.849  64.928  1.00  0.00    -0.027 A 
HETATM   31  C   UNL     1      39.545  40.335  63.633  1.00  0.00     0.012 A 
HETATM   32  C   UNL     1      40.057  39.081  63.280  1.00  0.00     0.043 A 
HETATM   33  C   UNL     1      40.743  38.323  64.217  1.00  0.00     0.116 A 
HETATM   34  F   UNL     1      41.247  37.133  63.869  1.00  0.00    -0.206 F 
HETATM   35  C   UNL     1      40.924  38.795  65.507  1.00  0.00     0.043 A 
HETATM   36  C   UNL     1      40.410  40.046  65.860  1.00  0.00     0.012 A 
ENDBRANCH   3  30
BRANCH   5  37
HETATM   37  O   UNL     1      40.484  43.155  62.734  1.00  0.00    -0.389 OA
HETATM   38  H   UNL     1      41.448  43.171  62.588  1.00  0.00     0.210 HD
ENDBRANCH   5  37
TORSDOF 7
ENDMDL
MODEL 4
REMARK VINA RESULT:      -7.0     25.993     28.553
REMARK  7 active torsions:
REMARK  status: ('A' for Active; 'I' for Inactive)
REMARK    1  A    between atoms: O_2  and  C_3 
REMARK    2  A    between atoms: C_3  and  C_4 
REMARK    3  A    between atoms: C_5  and  N_6 
REMARK       I    between atoms: N_6  and  C_7 
REMARK    4  A    between atoms: C_7  and  C_8 
REMARK    5  A    between atoms: C_8  and  N_9 
REMARK    6  A    between atoms: C_11  and  C_12 
REMARK    7  A    between atoms: C_20  and  O_21 
ROOT
HETATM    1  N   UNL     1      39.851  46.782  68.043  1.00  0.00    -0.054 N 
HETATM    2  H   UNL     1      39.739  45.751  68.058  1.00  0.00     0.281 HD
HETATM    3  C   UNL     1      39.019  47.327  66.879  1.00  0.00     0.228 C 
HETATM    4  C   UNL     1      38.817  48.864  67.037  1.00  0.00     0.055 C 
HETATM    5  C   UNL     1      38.333  49.300  68.432  1.00  0.00     0.065 C 
HETATM    6  C   UNL     1      39.272  48.736  69.502  1.00  0.00     0.066 C 
HETATM    7  C   UNL     1      39.380  47.224  69.405  1.00  0.00     0.239 C 
HETATM    8  C   UNL     1      37.958  49.491  65.924  1.00  0.00     0.010 C 
HETATM    9  C   UNL     1      37.958  51.016  66.030  1.00  0.00     0.001 C 
HETATM   10  C   UNL     1      37.493  51.494  67.401  1.00  0.00     0.003 C 
HETATM   11  C   UNL     1      38.280  50.838  68.539  1.00  0.00     0.038 C 
ENDROOT
BRANCH   1  12
HETATM   12  C   UNL     1      41.366  46.940  67.766  1.00  0.00     0.338 C 
BRANCH  12  13
HETATM   13  C   UNL     1      42.279  45.725  67.966  1.00  0.00     0.248 C 
HETATM   14  N   UNL     1      42.334  44.732  67.036  1.00  0.00    -0.319 N 
HETATM   15  H   UNL     1      43.237  44.268  66.972  1.00  0.00     0.169 HD
HETATM   16  O   UNL     1      43.119  45.722  68.871  1.00  0.00    -0.271 OA
BRANCH  14  17
HETATM   17  C   UNL     1      41.399  44.362  66.103  1.00  0.00     0.094 A 
HETATM   18  C   UNL     1      41.053  44.812  64.839  1.00  0.00     0.080 A 
HETATM   19  C   UNL     1      39.889  44.078  64.360  1.00  0.00    -0.026 A 
HETATM   20  C   UNL     1      39.461  43.135  65.278  1.00  0.00    -0.008 A 
HETATM   21  C   UNL     1      39.180  44.242  63.038  1.00  0.00     0.041 C 
HETATM   22  S   UNL     1      40.323  43.208  66.734  1.00  0.00    -0.075 SA
HETATM   23  C   UNL     1      38.305  42.196  65.102  1.00  0.00     0.047 C 
HETATM   24  C   UNL     1      37.874  42.144  63.631  1.00  0.00     0.005 C 
HETATM   25  C   UNL     1      37.808  43.548  63.022  1.00  0.00     0.005 C 
BRANCH  18  26
HETATM   26  C   UNL     1      41.695  45.943  64.168  1.00  0.00     0.296 C 
HETATM   27  O   UNL     1      41.215  47.074  64.152  1.00  0.00    -0.259 OA
BRANCH  26  28
HETATM   28  O   UNL     1      42.841  45.585  63.534  1.00  0.00    -0.322 OA
HETATM   29  C   UNL     1      44.046  46.110  64.094  1.00  0.00     0.213 C 
ENDBRANCH  26  28
ENDBRANCH  18  26
ENDBRANCH  14  17
ENDBRANCH  12  13
ENDBRANCH   1  12
BRANCH   3  30
HETATM   30  C   UNL     1      37.809  46.493  66.467  1.00  0.00    -0.027 A 
HETATM   31  C   UNL     1      37.157  46.603  65.230  1.00  0.00     0.012 A 
HETATM   32  C   UNL     1      36.099  45.751  64.892  1.00  0.00     0.043 A 
HETATM   33  C   UNL     1      35.679  44.777  65.785  1.00  0.00     0.116 A 
HETATM   34  F   UNL     1      34.680  43.953  65.449  1.00  0.00    -0.206 F 
HETATM   35  C   UNL     1      36.296  44.641  67.018  1.00  0.00     0.043 A 
HETATM   36  C   UNL     1      37.350  45.495  67.357  1.00  0.00     0.012 A 
ENDBRANCH   3  30
BRANCH   5  37
HETATM   37  O   UNL     1      37.039  48.764  68.698  1.00  0.00    -0.389 OA
HETATM   38  H   UNL     1      37.112  47.982  69.276  1.00  0.00     0.210 HD
ENDBRANCH   5  37
TORSDOF 7
ENDMDL
MODEL 5
REMARK VINA RESULT:      -6.8      1.623      2.494
REMARK  7 active torsions:
REMARK  status: ('A' for Active; 'I' for Inactive)
REMARK    1  A    between atoms: O_2  and  C_3 
REMARK    2  A    between atoms: C_3  and  C_4 
REMARK    3  A    between atoms: C_5  and  N_6 
REMARK       I    between atoms: N_6  and  C_7 
REMARK    4  A    between atoms: C_7  and  C_8 
REMARK    5  A    between atoms: C_8  and  N_9 
REMARK    6  A    between atoms: C_11  and  C_12 
REMARK    7  A    between atoms: C_20  and  O_21 
ROOT
HETATM    1  N   UNL     1      19.818  47.605  47.322  1.00  0.00    -0.054 N 
HETATM    2  H   UNL     1      18.788  47.615  47.442  1.00  0.00     0.281 HD
HETATM    3  C   UNL     1      20.305  49.056  47.334  1.00  0.00     0.228 C 
HETATM    4  C   UNL     1      21.846  49.105  47.559  1.00  0.00     0.055 C 
HETATM    5  C   UNL     1      22.340  48.252  48.743  1.00  0.00     0.065 C 
HETATM    6  C   UNL     1      21.831  46.816  48.590  1.00  0.00     0.066 C 
HETATM    7  C   UNL     1      20.318  46.772  48.475  1.00  0.00     0.239 C 
HETATM    8  C   UNL     1      22.416  50.533  47.621  1.00  0.00     0.010 C 
HETATM    9  C   UNL     1      23.945  50.508  47.652  1.00  0.00     0.001 C 
HETATM   10  C   UNL     1      24.480  49.666  48.805  1.00  0.00     0.003 C 
HETATM   11  C   UNL     1      23.881  48.257  48.817  1.00  0.00     0.038 C 
ENDROOT
BRANCH   1  12
HETATM   12  C   UNL     1      19.975  46.977  45.915  1.00  0.00     0.338 C 
BRANCH  12  13
HETATM   13  C   UNL     1      18.784  46.223  45.312  1.00  0.00     0.248 C 
HETATM   14  N   UNL     1      17.760  46.894  44.718  1.00  0.00    -0.319 N 
HETATM   15  H   UNL     1      17.311  46.387  43.960  1.00  0.00     0.169 HD
HETATM   16  O   UNL     1      18.830  44.996  45.181  1.00  0.00    -0.271 OA
BRANCH  14  17
HETATM   17  C   UNL     1      17.340  48.186  44.911  1.00  0.00     0.094 A 
HETATM   18  C   UNL     1      17.549  49.387  44.254  1.00  0.00     0.080 A 
HETATM   19  C   UNL     1      16.912  50.468  44.995  1.00  0.00    -0.026 A 
HETATM   20  C   UNL     1      16.269  50.006  46.129  1.00  0.00    -0.008 A 
HETATM   21  C   UNL     1      16.888  51.935  44.640  1.00  0.00     0.041 C 
HETATM   22  S   UNL     1      16.528  48.353  46.395  1.00  0.00    -0.075 SA
HETATM   23  C   UNL     1      15.499  50.842  47.108  1.00  0.00     0.047 C 
HETATM   24  C   UNL     1      15.191  52.221  46.511  1.00  0.00     0.005 C 
HETATM   25  C   UNL     1      16.421  52.811  45.815  1.00  0.00     0.005 C 
BRANCH  18  26
HETATM   26  C   UNL     1      18.396  49.536  43.069  1.00  0.00     0.296 C 
HETATM   27  O   UNL     1      19.092  50.527  42.862  1.00  0.00    -0.259 OA
BRANCH  26  28
HETATM   28  O   UNL     1      18.283  48.484  42.218  1.00  0.00    -0.322 OA
HETATM   29  C   UNL     1      18.153  48.821  40.835  1.00  0.00     0.213 C 
ENDBRANCH  26  28
ENDBRANCH  18  26
ENDBRANCH  14  17
ENDBRANCH  12  13
ENDBRANCH   1  12
BRANCH   3  30
HETATM   30  C   UNL     1      19.445  50.049  48.110  1.00  0.00    -0.027 A 
HETATM   31  C   UNL     1      18.699  49.726  49.253  1.00  0.00     0.012 A 
HETATM   32  C   UNL     1      17.992  50.707  49.959  1.00  0.00     0.043 A 
HETATM   33  C   UNL     1      18.023  52.026  49.531  1.00  0.00     0.116 A 
HETATM   34  F   UNL     1      17.362  52.963  50.220  1.00  0.00    -0.206 F 
HETATM   35  C   UNL     1      18.744  52.383  48.404  1.00  0.00     0.043 A 
HETATM   36  C   UNL     1      19.447  51.402  47.697  1.00  0.00     0.012 A 
ENDBRANCH   3  30
BRANCH   5  37
HETATM   37  O   UNL     1      21.807  48.748  49.968  1.00  0.00    -0.389 OA
HETATM   38  H   UNL     1      21.976  48.113  50.689  1.00  0.00     0.210 HD
ENDBRANCH   5  37
TORSDOF 7
ENDMDL
MODEL 6
REMARK VINA RESULT:      -6.7     13.877     17.242
REMARK  7 active torsions:
REMARK  status: ('A' for Active; 'I' for Inactive)
REMARK    1  A    between atoms: O_2  and  C_3 
REMARK    2  A    between atoms: C_3  and  C_4 
REMARK    3  A    between atoms: C_5  and  N_6 
REMARK       I    between atoms: N_6  and  C_7 
REMARK    4  A    between atoms: C_7  and  C_8 
REMARK    5  A    between atoms: C_8  and  N_9 
REMARK    6  A    between atoms: C_11  and  C_12 
REMARK    7  A    between atoms: C_20  and  O_21 
ROOT
HETATM    1  N   UNL     1      35.923  51.339  43.127  1.00  0.00    -0.054 N 
HETATM    2  H   UNL     1      35.823  50.996  44.100  1.00  0.00     0.281 HD
HETATM    3  C   UNL     1      36.505  52.754  43.187  1.00  0.00     0.228 C 
HETATM    4  C   UNL     1      37.050  53.171  41.788  1.00  0.00     0.055 C 
HETATM    5  C   UNL     1      37.969  52.126  41.129  1.00  0.00     0.065 C 
HETATM    6  C   UNL     1      37.257  50.770  41.083  1.00  0.00     0.066 C 
HETATM    7  C   UNL     1      36.822  50.324  42.467  1.00  0.00     0.239 C 
HETATM    8  C   UNL     1      37.688  54.571  41.766  1.00  0.00     0.010 C 
HETATM    9  C   UNL     1      38.027  54.993  40.336  1.00  0.00     0.001 C 
HETATM   10  C   UNL     1      38.929  53.981  39.640  1.00  0.00     0.003 C 
HETATM   11  C   UNL     1      38.360  52.561  39.701  1.00  0.00     0.038 C 
ENDROOT
BRANCH   1  12
HETATM   12  C   UNL     1      34.455  51.362  42.638  1.00  0.00     0.338 C 
BRANCH  12  13
HETATM   13  C   UNL     1      33.339  51.546  43.674  1.00  0.00     0.248 C 
HETATM   14  N   UNL     1      32.143  50.913  43.532  1.00  0.00    -0.319 N 
HETATM   15  H   UNL     1      31.687  50.679  44.410  1.00  0.00     0.169 HD
HETATM   16  O   UNL     1      33.575  52.112  44.746  1.00  0.00    -0.271 OA
BRANCH  14  17
HETATM   17  C   UNL     1      31.539  50.440  42.395  1.00  0.00     0.094 A 
HETATM   18  C   UNL     1      30.890  51.026  41.321  1.00  0.00     0.080 A 
HETATM   19  C   UNL     1      30.358  49.989  40.445  1.00  0.00    -0.026 A 
HETATM   20  C   UNL     1      30.655  48.720  40.910  1.00  0.00    -0.008 A 
HETATM   21  C   UNL     1      29.583  50.178  39.163  1.00  0.00     0.041 C 
HETATM   22  S   UNL     1      31.422  48.745  42.420  1.00  0.00    -0.075 SA
HETATM   23  C   UNL     1      30.278  47.429  40.247  1.00  0.00     0.047 C 
HETATM   24  C   UNL     1      29.843  47.676  38.797  1.00  0.00     0.005 C 
HETATM   25  C   UNL     1      28.901  48.881  38.698  1.00  0.00     0.005 C 
BRANCH  18  26
HETATM   26  C   UNL     1      30.671  52.467  41.182  1.00  0.00     0.296 C 
HETATM   27  O   UNL     1      29.555  52.981  41.195  1.00  0.00    -0.259 OA
BRANCH  26  28
HETATM   28  O   UNL     1      31.830  53.149  40.992  1.00  0.00    -0.322 OA
HETATM   29  C   UNL     1      32.562  52.804  39.815  1.00  0.00     0.213 C 
ENDBRANCH  26  28
ENDBRANCH  18  26
ENDBRANCH  14  17
ENDBRANCH  12  13
ENDBRANCH   1  12
BRANCH   3  30
HETATM   30  C   UNL     1      37.364  53.078  44.406  1.00  0.00    -0.027 A 
HETATM   31  C   UNL     1      38.424  52.280  44.863  1.00  0.00     0.012 A 
HETATM   32  C   UNL     1      39.217  52.680  45.944  1.00  0.00     0.043 A 
HETATM   33  C   UNL     1      38.963  53.883  46.584  1.00  0.00     0.116 A 
HETATM   34  F   UNL     1      39.737  54.270  47.605  1.00  0.00    -0.206 F 
HETATM   35  C   UNL     1      37.923  54.696  46.164  1.00  0.00     0.043 A 
HETATM   36  C   UNL     1      37.128  54.295  45.087  1.00  0.00     0.012 A 
ENDBRANCH   3  30
BRANCH   5  37
HETATM   37  O   UNL     1      39.149  51.942  41.906  1.00  0.00    -0.389 OA
HETATM   38  H   UNL     1      39.140  52.537  42.679  1.00  0.00     0.210 HD
ENDBRANCH   5  37
TORSDOF 7
ENDMDL
MODEL 7
REMARK VINA RESULT:      -6.4     25.992     28.605
REMARK  7 active torsions:
REMARK  status: ('A' for Active; 'I' for Inactive)
REMARK    1  A    between atoms: O_2  and  C_3 
REMARK    2  A    between atoms: C_3  and  C_4 
REMARK    3  A    between atoms: C_5  and  N_6 
REMARK       I    between atoms: N_6  and  C_7 
REMARK    4  A    between atoms: C_7  and  C_8 
REMARK    5  A    between atoms: C_8  and  N_9 
REMARK    6  A    between atoms: C_11  and  C_12 
REMARK    7  A    between atoms: C_20  and  O_21 
ROOT
HETATM    1  N   UNL     1      40.610  47.163  66.945  1.00  0.00    -0.054 N 
HETATM    2  H   UNL     1      40.621  46.127  66.901  1.00  0.00     0.281 HD
HETATM    3  C   UNL     1      39.418  47.654  66.118  1.00  0.00     0.228 C 
HETATM    4  C   UNL     1      39.104  49.141  66.458  1.00  0.00     0.055 C 
HETATM    5  C   UNL     1      39.006  49.439  67.966  1.00  0.00     0.065 C 
HETATM    6  C   UNL     1      40.274  48.949  68.671  1.00  0.00     0.066 C 
HETATM    7  C   UNL     1      40.514  47.471  68.418  1.00  0.00     0.239 C 
HETATM    8  C   UNL     1      37.893  49.707  65.695  1.00  0.00     0.010 C 
HETATM    9  C   UNL     1      37.756  51.212  65.928  1.00  0.00     0.001 C 
HETATM   10  C   UNL     1      37.665  51.555  67.411  1.00  0.00     0.003 C 
HETATM   11  C   UNL     1      38.819  50.950  68.216  1.00  0.00     0.038 C 
ENDROOT
BRANCH   1  12
HETATM   12  C   UNL     1      41.950  47.531  66.262  1.00  0.00     0.338 C 
BRANCH  12  13
HETATM   13  C   UNL     1      43.053  46.468  66.191  1.00  0.00     0.248 C 
HETATM   14  N   UNL     1      42.853  45.297  65.527  1.00  0.00    -0.319 N 
HETATM   15  H   UNL     1      43.693  44.903  65.112  1.00  0.00     0.169 HD
HETATM   16  O   UNL     1      44.199  46.738  66.564  1.00  0.00    -0.271 OA
BRANCH  14  17
HETATM   17  C   UNL     1      41.678  44.652  65.237  1.00  0.00     0.094 A 
HETATM   18  C   UNL     1      40.820  43.823  65.941  1.00  0.00     0.080 A 
HETATM   19  C   UNL     1      39.758  43.354  65.061  1.00  0.00    -0.026 A 
HETATM   20  C   UNL     1      39.885  43.869  63.782  1.00  0.00    -0.008 A 
HETATM   21  C   UNL     1      38.613  42.436  65.411  1.00  0.00     0.041 C 
HETATM   22  S   UNL     1      41.303  44.773  63.583  1.00  0.00    -0.075 SA
HETATM   23  C   UNL     1      38.958  43.608  62.633  1.00  0.00     0.047 C 
HETATM   24  C   UNL     1      37.641  42.999  63.131  1.00  0.00     0.005 C 
HETATM   25  C   UNL     1      37.896  41.895  64.163  1.00  0.00     0.005 C 
BRANCH  18  26
HETATM   26  C   UNL     1      41.046  43.395  67.323  1.00  0.00     0.296 C 
HETATM   27  O   UNL     1      41.135  44.180  68.263  1.00  0.00    -0.259 OA
BRANCH  26  28
HETATM   28  O   UNL     1      41.192  42.048  67.428  1.00  0.00    -0.322 OA
HETATM   29  C   UNL     1      42.522  41.556  67.251  1.00  0.00     0.213 C 
ENDBRANCH  26  28
ENDBRANCH  18  26
ENDBRANCH  14  17
ENDBRANCH  12  13
ENDBRANCH   1  12
BRANCH   3  30
HETATM   30  C   UNL     1      38.240  46.692  65.997  1.00  0.00    -0.027 A 
HETATM   31  C   UNL     1      37.771  45.880  67.040  1.00  0.00     0.012 A 
HETATM   32  C   UNL     1      36.635  45.077  66.879  1.00  0.00     0.043 A 
HETATM   33  C   UNL     1      35.954  45.075  65.672  1.00  0.00     0.116 A 
HETATM   34  F   UNL     1      34.858  44.320  65.528  1.00  0.00    -0.206 F 
HETATM   35  C   UNL     1      36.390  45.859  64.616  1.00  0.00     0.043 A 
HETATM   36  C   UNL     1      37.525  46.659  64.777  1.00  0.00     0.012 A 
ENDBRANCH   3  30
BRANCH   5  37
HETATM   37  O   UNL     1      37.914  48.727  68.542  1.00  0.00    -0.389 OA
HETATM   38  H   UNL     1      37.481  48.171  67.868  1.00  0.00     0.210 HD
ENDBRANCH   5  37
TORSDOF 7
ENDMDL
MODEL 8
REMARK VINA RESULT:      -6.4      2.933      6.903
REMARK  7 active torsions:
REMARK  status: ('A' for Active; 'I' for Inactive)
REMARK    1  A    between atoms: O_2  and  C_3 
REMARK    2  A    between atoms: C_3  and  C_4 
REMARK    3  A    between atoms: C_5  and  N_6 
REMARK       I    between atoms: N_6  and  C_7 
REMARK    4  A    between atoms: C_7  and  C_8 
REMARK    5  A    between atoms: C_8  and  N_9 
REMARK    6  A    between atoms: C_11  and  C_12 
REMARK    7  A    between atoms: C_20  and  O_21 
ROOT
HETATM    1  N   UNL     1      17.260  49.173  47.937  1.00  0.00    -0.054 N 
HETATM    2  H   UNL     1      17.340  48.142  48.008  1.00  0.00     0.281 HD
HETATM    3  C   UNL     1      17.685  49.579  46.523  1.00  0.00     0.228 C 
HETATM    4  C   UNL     1      17.217  51.034  46.219  1.00  0.00     0.055 C 
HETATM    5  C   UNL     1      15.737  51.306  46.548  1.00  0.00     0.065 C 
HETATM    6  C   UNL     1      15.451  50.907  47.998  1.00  0.00     0.066 C 
HETATM    7  C   UNL     1      15.814  49.455  48.257  1.00  0.00     0.239 C 
HETATM    8  C   UNL     1      17.573  51.513  44.800  1.00  0.00     0.010 C 
HETATM    9  C   UNL     1      17.259  53.000  44.632  1.00  0.00     0.001 C 
HETATM   10  C   UNL     1      15.803  53.317  44.957  1.00  0.00     0.003 C 
HETATM   11  C   UNL     1      15.392  52.795  46.336  1.00  0.00     0.038 C 
ENDROOT
BRANCH   1  12
HETATM   12  C   UNL     1      18.292  49.651  48.987  1.00  0.00     0.338 C 
BRANCH  12  13
HETATM   13  C   UNL     1      18.677  48.699  50.125  1.00  0.00     0.248 C 
HETATM   14  N   UNL     1      19.506  47.643  49.902  1.00  0.00    -0.319 N 
HETATM   15  H   UNL     1      20.080  47.386  50.701  1.00  0.00     0.169 HD
HETATM   16  O   UNL     1      18.400  48.985  51.294  1.00  0.00    -0.271 OA
BRANCH  14  17
HETATM   17  C   UNL     1      19.764  46.972  48.734  1.00  0.00     0.094 A 
HETATM   18  C   UNL     1      20.706  47.097  47.726  1.00  0.00     0.080 A 
HETATM   19  C   UNL     1      20.417  46.141  46.664  1.00  0.00    -0.026 A 
HETATM   20  C   UNL     1      19.305  45.370  46.954  1.00  0.00    -0.008 A 
HETATM   21  C   UNL     1      21.185  45.933  45.382  1.00  0.00     0.041 C 
HETATM   22  S   UNL     1      18.532  45.855  48.381  1.00  0.00    -0.075 SA
HETATM   23  C   UNL     1      18.740  44.281  46.092  1.00  0.00     0.047 C 
HETATM   24  C   UNL     1      19.753  43.864  45.019  1.00  0.00     0.005 C 
HETATM   25  C   UNL     1      20.401  45.088  44.364  1.00  0.00     0.005 C 
BRANCH  18  26
HETATM   26  C   UNL     1      21.743  48.129  47.696  1.00  0.00     0.296 C 
HETATM   27  O   UNL     1      22.943  47.878  47.764  1.00  0.00    -0.259 OA
BRANCH  26  28
HETATM   28  O   UNL     1      21.222  49.382  47.635  1.00  0.00    -0.322 OA
HETATM   29  C   UNL     1      22.126  50.443  47.950  1.00  0.00     0.213 C 
ENDBRANCH  26  28
ENDBRANCH  18  26
ENDBRANCH  14  17
ENDBRANCH  12  13
ENDBRANCH   1  12
BRANCH   3  30
HETATM   30  C   UNL     1      17.488  48.530  45.433  1.00  0.00    -0.027 A 
HETATM   31  C   UNL     1      18.286  48.423  44.284  1.00  0.00     0.012 A 
HETATM   32  C   UNL     1      18.094  47.386  43.363  1.00  0.00     0.043 A 
HETATM   33  C   UNL     1      17.101  46.443  43.578  1.00  0.00     0.116 A 
HETATM   34  F   UNL     1      16.933  45.444  42.704  1.00  0.00    -0.206 F 
HETATM   35  C   UNL     1      16.289  46.519  44.698  1.00  0.00     0.043 A 
HETATM   36  C   UNL     1      16.479  47.556  45.616  1.00  0.00     0.012 A 
ENDBRANCH   3  30
BRANCH   5  37
HETATM   37  O   UNL     1      14.891  50.504  45.728  1.00  0.00    -0.389 OA
HETATM   38  H   UNL     1      14.403  51.066  45.098  1.00  0.00     0.210 HD
ENDBRANCH   5  37
TORSDOF 7
ENDMDL
MODEL 9
REMARK VINA RESULT:      -6.4     25.303     28.332
REMARK  7 active torsions:
REMARK  status: ('A' for Active; 'I' for Inactive)
REMARK    1  A    between atoms: O_2  and  C_3 
REMARK    2  A    between atoms: C_3  and  C_4 
REMARK    3  A    between atoms: C_5  and  N_6 
REMARK       I    between atoms: N_6  and  C_7 
REMARK    4  A    between atoms: C_7  and  C_8 
REMARK    5  A    between atoms: C_8  and  N_9 
REMARK    6  A    between atoms: C_11  and  C_12 
REMARK    7  A    between atoms: C_20  and  O_21 
ROOT
HETATM    1  N   UNL     1      39.340  46.347  65.624  1.00  0.00    -0.054 N 
HETATM    2  H   UNL     1      39.255  45.698  64.821  1.00  0.00     0.281 HD
HETATM    3  C   UNL     1      39.655  45.513  66.869  1.00  0.00     0.228 C 
HETATM    4  C   UNL     1      40.186  46.430  68.011  1.00  0.00     0.055 C 
HETATM    5  C   UNL     1      41.310  47.390  67.582  1.00  0.00     0.065 C 
HETATM    6  C   UNL     1      40.857  48.201  66.364  1.00  0.00     0.066 C 
HETATM    7  C   UNL     1      40.440  47.296  65.218  1.00  0.00     0.239 C 
HETATM    8  C   UNL     1      40.561  45.665  69.293  1.00  0.00     0.010 C 
HETATM    9  C   UNL     1      40.891  46.634  70.429  1.00  0.00     0.001 C 
HETATM   10  C   UNL     1      41.995  47.612  70.044  1.00  0.00     0.003 C 
HETATM   11  C   UNL     1      41.689  48.344  68.734  1.00  0.00     0.038 C 
ENDROOT
BRANCH   1  12
HETATM   12  C   UNL     1      37.919  46.954  65.706  1.00  0.00     0.338 C 
BRANCH  12  13
HETATM   13  C   UNL     1      37.087  47.051  64.421  1.00  0.00     0.248 C 
HETATM   14  N   UNL     1      36.576  45.934  63.834  1.00  0.00    -0.319 N 
HETATM   15  H   UNL     1      35.699  46.084  63.343  1.00  0.00     0.169 HD
HETATM   16  O   UNL     1      36.706  48.151  64.010  1.00  0.00    -0.271 OA
BRANCH  14  17
HETATM   17  C   UNL     1      37.005  44.634  63.920  1.00  0.00     0.094 A 
HETATM   18  C   UNL     1      36.749  43.577  64.778  1.00  0.00     0.080 A 
HETATM   19  C   UNL     1      37.589  42.441  64.421  1.00  0.00    -0.026 A 
HETATM   20  C   UNL     1      38.392  42.717  63.328  1.00  0.00    -0.008 A 
HETATM   21  C   UNL     1      37.637  41.089  65.089  1.00  0.00     0.041 C 
HETATM   22  S   UNL     1      38.263  44.327  62.819  1.00  0.00    -0.075 SA
HETATM   23  C   UNL     1      39.361  41.770  62.686  1.00  0.00     0.047 C 
HETATM   24  C   UNL     1      39.095  40.332  63.150  1.00  0.00     0.005 C 
HETATM   25  C   UNL     1      38.868  40.271  64.663  1.00  0.00     0.005 C 
BRANCH  18  26
HETATM   26  C   UNL     1      35.863  43.662  65.940  1.00  0.00     0.296 C 
HETATM   27  O   UNL     1      36.271  43.841  67.085  1.00  0.00    -0.259 OA
BRANCH  26  28
HETATM   28  O   UNL     1      34.559  43.474  65.610  1.00  0.00    -0.322 OA
HETATM   29  C   UNL     1      34.086  42.130  65.705  1.00  0.00     0.213 C 
ENDBRANCH  26  28
ENDBRANCH  18  26
ENDBRANCH  14  17
ENDBRANCH  12  13
ENDBRANCH   1  12
BRANCH   3  30
HETATM   30  C   UNL     1      40.378  44.191  66.629  1.00  0.00    -0.027 A 
HETATM   31  C   UNL     1      40.248  43.058  67.445  1.00  0.00     0.012 A 
HETATM   32  C   UNL     1      40.885  41.854  67.120  1.00  0.00     0.043 A 
HETATM   33  C   UNL     1      41.660  41.767  65.974  1.00  0.00     0.116 A 
HETATM   34  F   UNL     1      42.250  40.609  65.657  1.00  0.00    -0.206 F 
HETATM   35  C   UNL     1      41.816  42.866  65.145  1.00  0.00     0.043 A 
HETATM   36  C   UNL     1      41.183  44.069  65.472  1.00  0.00     0.012 A 
ENDBRANCH   3  30
BRANCH   5  37
HETATM   37  O   UNL     1      42.463  46.656  67.179  1.00  0.00    -0.389 OA
HETATM   38  H   UNL     1      42.341  45.707  67.368  1.00  0.00     0.210 HD
ENDBRANCH   5  37
TORSDOF 7
ENDMDL
MODEL 10
REMARK VINA RESULT:      -6.4      2.758      6.365
REMARK  7 active torsions:
REMARK  status: ('A' for Active; 'I' for Inactive)
REMARK    1  A    between atoms: O_2  and  C_3 
REMARK    2  A    between atoms: C_3  and  C_4 
REMARK    3  A    between atoms: C_5  and  N_6 
REMARK       I    between atoms: N_6  and  C_7 
REMARK    4  A    between atoms: C_7  and  C_8 
REMARK    5  A    between atoms: C_8  and  N_9 
REMARK    6  A    between atoms: C_11  and  C_12 
REMARK    7  A    between atoms: C_20  and  O_21 
ROOT
HETATM    1  N   UNL     1      17.831  49.081  46.786  1.00  0.00    -0.054 N 
HETATM    2  H   UNL     1      18.755  48.645  46.610  1.00  0.00     0.281 HD
HETATM    3  C   UNL     1      17.894  49.780  48.146  1.00  0.00     0.228 C 
HETATM    4  C   UNL     1      16.706  50.777  48.295  1.00  0.00     0.055 C 
HETATM    5  C   UNL     1      16.520  51.724  47.095  1.00  0.00     0.065 C 
HETATM    6  C   UNL     1      16.420  50.906  45.804  1.00  0.00     0.066 C 
HETATM    7  C   UNL     1      17.634  50.013  45.617  1.00  0.00     0.239 C 
HETATM    8  C   UNL     1      16.713  51.551  49.625  1.00  0.00     0.010 C 
HETATM    9  C   UNL     1      15.428  52.364  49.788  1.00  0.00     0.001 C 
HETATM   10  C   UNL     1      15.198  53.311  48.616  1.00  0.00     0.003 C 
HETATM   11  C   UNL     1      15.253  52.587  47.268  1.00  0.00     0.038 C 
ENDROOT
BRANCH   1  12
HETATM   12  C   UNL     1      16.894  47.850  46.836  1.00  0.00     0.338 C 
BRANCH  12  13
HETATM   13  C   UNL     1      16.771  47.075  48.153  1.00  0.00     0.248 C 
HETATM   14  N   UNL     1      17.627  46.058  48.447  1.00  0.00    -0.319 N 
HETATM   15  H   UNL     1      17.813  45.942  49.440  1.00  0.00     0.169 HD
HETATM   16  O   UNL     1      16.025  47.484  49.047  1.00  0.00    -0.271 OA
BRANCH  14  17
HETATM   17  C   UNL     1      18.360  45.267  47.600  1.00  0.00     0.094 A 
HETATM   18  C   UNL     1      19.684  44.861  47.546  1.00  0.00     0.080 A 
HETATM   19  C   UNL     1      19.909  44.085  46.333  1.00  0.00    -0.026 A 
HETATM   20  C   UNL     1      18.753  43.954  45.583  1.00  0.00    -0.008 A 
HETATM   21  C   UNL     1      21.200  43.451  45.875  1.00  0.00     0.041 C 
HETATM   22  S   UNL     1      17.461  44.844  46.221  1.00  0.00    -0.075 SA
HETATM   23  C   UNL     1      18.623  43.206  44.291  1.00  0.00     0.047 C 
HETATM   24  C   UNL     1      19.832  42.287  44.077  1.00  0.00     0.005 C 
HETATM   25  C   UNL     1      21.142  43.010  44.403  1.00  0.00     0.005 C 
BRANCH  18  26
HETATM   26  C   UNL     1      20.708  45.275  48.507  1.00  0.00     0.296 C 
HETATM   27  O   UNL     1      21.316  44.484  49.223  1.00  0.00    -0.259 OA
BRANCH  26  28
HETATM   28  O   UNL     1      20.866  46.624  48.542  1.00  0.00    -0.322 OA
HETATM   29  C   UNL     1      22.143  47.107  48.124  1.00  0.00     0.213 C 
ENDBRANCH  26  28
ENDBRANCH  18  26
ENDBRANCH  14  17
ENDBRANCH  12  13
ENDBRANCH   1  12
BRANCH   3  30
HETATM   30  C   UNL     1      19.274  50.251  48.598  1.00  0.00    -0.027 A 
HETATM   31  C   UNL     1      19.628  50.499  49.933  1.00  0.00     0.012 A 
HETATM   32  C   UNL     1      20.936  50.856  50.281  1.00  0.00     0.043 A 
HETATM   33  C   UNL     1      21.908  50.971  49.299  1.00  0.00     0.116 A 
HETATM   34  F   UNL     1      23.161  51.294  49.639  1.00  0.00    -0.206 F 
HETATM   35  C   UNL     1      21.595  50.739  47.969  1.00  0.00     0.043 A 
HETATM   36  C   UNL     1      20.288  50.386  47.622  1.00  0.00     0.012 A 
ENDBRANCH   3  30
BRANCH   5  37
HETATM   37  O   UNL     1      17.654  52.575  46.954  1.00  0.00    -0.389 OA
HETATM   38  H   UNL     1      17.368  53.501  46.844  1.00  0.00     0.210 HD
ENDBRANCH   5  37
TORSDOF 7
ENDMDL
