MODEL 1
REMARK VINA RESULT:     -10.3      0.000      0.000
REMARK  3 active torsions:
REMARK  status: ('A' for Active; 'I' for Inactive)
REMARK    1  A    between atoms: C_4  and  C_5 
REMARK    2  A    between atoms: C_9  and  C_10 
REMARK       I    between atoms: C_10  and  N_11 
REMARK    3  A    between atoms: N_11  and  N_12 
ROOT
HETATM    1  C   UNL     1      24.820  44.356  51.595  1.00  0.00     0.289 C 
HETATM    2  N   UNL     1      24.945  45.602  51.002  1.00  0.00    -0.241 N 
HETATM    3  O   UNL     1      23.877  43.591  51.430  1.00  0.00    -0.264 OA
HETATM    4  H   UNL     1      25.690  46.216  51.297  1.00  0.00     0.192 HD
ENDROOT
BRANCH   1   5
HETATM    5  C   UNL     1      25.953  43.987  52.410  1.00  0.00     0.121 A 
HETATM    6  N   UNL     1      26.490  42.730  52.365  1.00  0.00    -0.272 N 
HETATM    7  N   UNL     1      27.591  42.576  53.117  1.00  0.00    -0.174 NA
HETATM    8  H   UNL     1      26.158  41.948  51.806  1.00  0.00     0.189 HD
HETATM    9  C   UNL     1      27.759  43.762  53.721  1.00  0.00     0.089 A 
HETATM   10  C   UNL     1      26.742  44.670  53.316  1.00  0.00     0.071 A 
BRANCH   9  11
HETATM   11  C   UNL     1      28.880  44.027  54.625  1.00  0.00    -0.006 A 
HETATM   12  C   UNL     1      28.958  45.243  55.319  1.00  0.00     0.014 A 
HETATM   13  C   UNL     1      30.001  45.486  56.217  1.00  0.00     0.001 A 
HETATM   14  C   UNL     1      30.981  44.518  56.425  1.00  0.00     0.000 A 
HETATM   15  C   UNL     1      30.924  43.310  55.732  1.00  0.00     0.001 A 
HETATM   16  C   UNL     1      29.879  43.065  54.837  1.00  0.00     0.014 A 
ENDBRANCH   9  11
ENDBRANCH   1   5
BRANCH   2  17
HETATM   17  N   UNL     1      23.948  46.133  50.245  1.00  0.00    -0.165 NA
HETATM   18  C   UNL     1      24.182  47.237  49.606  1.00  0.00     0.157 A 
HETATM   19  C   UNL     1      23.051  48.016  48.903  1.00  0.00     0.277 A 
HETATM   20  C   UNL     1      25.405  48.025  49.379  1.00  0.00     0.027 A 
HETATM   21  O   UNL     1      21.891  47.686  48.810  1.00  0.00    -0.266 OA
HETATM   22  N   UNL     1      23.641  49.170  48.435  1.00  0.00    -0.321 N 
HETATM   23  C   UNL     1      25.004  49.177  48.699  1.00  0.00     0.048 A 
HETATM   24  H   UNL     1      23.127  49.873  47.925  1.00  0.00     0.169 HD
HETATM   25  C   UNL     1      25.902  50.156  48.324  1.00  0.00     0.030 A 
HETATM   26  C   UNL     1      27.250  49.947  48.631  1.00  0.00     0.002 A 
HETATM   27  C   UNL     1      27.667  48.770  49.279  1.00  0.00     0.001 A 
HETATM   28  C   UNL     1      26.742  47.789  49.649  1.00  0.00     0.016 A 
ENDBRANCH   2  17
TORSDOF 3
ENDMDL
MODEL 2
REMARK VINA RESULT:     -10.0      2.001      2.875
REMARK  3 active torsions:
REMARK  status: ('A' for Active; 'I' for Inactive)
REMARK    1  A    between atoms: C_4  and  C_5 
REMARK    2  A    between atoms: C_9  and  C_10 
REMARK       I    between atoms: C_10  and  N_11 
REMARK    3  A    between atoms: N_11  and  N_12 
ROOT
HETATM    1  C   UNL     1      27.197  42.715  51.564  1.00  0.00     0.289 C 
HETATM    2  N   UNL     1      25.944  43.140  51.978  1.00  0.00    -0.241 N 
HETATM    3  O   UNL     1      27.455  42.267  50.453  1.00  0.00    -0.264 OA
HETATM    4  H   UNL     1      25.799  43.370  52.949  1.00  0.00     0.192 HD
ENDROOT
BRANCH   1   5
HETATM    5  C   UNL     1      28.228  42.897  52.559  1.00  0.00     0.121 A 
HETATM    6  N   UNL     1      29.513  42.486  52.342  1.00  0.00    -0.272 N 
HETATM    7  N   UNL     1      30.366  42.807  53.328  1.00  0.00    -0.174 NA
HETATM    8  H   UNL     1      29.868  42.009  51.516  1.00  0.00     0.189 HD
HETATM    9  C   UNL     1      29.604  43.409  54.254  1.00  0.00     0.089 A 
HETATM   10  C   UNL     1      28.252  43.470  53.816  1.00  0.00     0.071 A 
BRANCH   9  11
HETATM   11  C   UNL     1      30.161  43.942  55.498  1.00  0.00    -0.006 A 
HETATM   12  C   UNL     1      29.748  45.192  55.982  1.00  0.00     0.014 A 
HETATM   13  C   UNL     1      30.242  45.688  57.191  1.00  0.00     0.001 A 
HETATM   14  C   UNL     1      31.161  44.942  57.926  1.00  0.00     0.000 A 
HETATM   15  C   UNL     1      31.591  43.705  57.452  1.00  0.00     0.001 A 
HETATM   16  C   UNL     1      31.094  43.206  56.244  1.00  0.00     0.014 A 
ENDBRANCH   9  11
ENDBRANCH   1   5
BRANCH   2  17
HETATM   17  N   UNL     1      24.847  42.993  51.189  1.00  0.00    -0.165 NA
HETATM   18  C   UNL     1      24.383  44.040  50.581  1.00  0.00     0.157 A 
HETATM   19  C   UNL     1      23.027  44.009  49.844  1.00  0.00     0.277 A 
HETATM   20  C   UNL     1      24.888  45.413  50.420  1.00  0.00     0.027 A 
HETATM   21  O   UNL     1      22.303  43.051  49.696  1.00  0.00    -0.266 OA
HETATM   22  N   UNL     1      22.813  45.302  49.422  1.00  0.00    -0.321 N 
HETATM   23  C   UNL     1      23.889  46.118  49.743  1.00  0.00     0.048 A 
HETATM   24  H   UNL     1      21.991  45.574  48.903  1.00  0.00     0.169 HD
HETATM   25  C   UNL     1      24.025  47.454  49.423  1.00  0.00     0.030 A 
HETATM   26  C   UNL     1      25.218  48.087  49.783  1.00  0.00     0.002 A 
HETATM   27  C   UNL     1      26.245  47.374  50.428  1.00  0.00     0.001 A 
HETATM   28  C   UNL     1      26.091  46.019  50.741  1.00  0.00     0.016 A 
ENDBRANCH   2  17
TORSDOF 3
ENDMDL
MODEL 3
REMARK VINA RESULT:      -9.7      2.375      3.557
REMARK  3 active torsions:
REMARK  status: ('A' for Active; 'I' for Inactive)
REMARK    1  A    between atoms: C_4  and  C_5 
REMARK    2  A    between atoms: C_9  and  C_10 
REMARK       I    between atoms: C_10  and  N_11 
REMARK    3  A    between atoms: N_11  and  N_12 
ROOT
HETATM    1  C   UNL     1      26.144  47.112  53.236  1.00  0.00     0.289 C 
HETATM    2  N   UNL     1      25.972  46.827  51.891  1.00  0.00    -0.241 N 
HETATM    3  O   UNL     1      25.520  47.964  53.859  1.00  0.00    -0.264 OA
HETATM    4  H   UNL     1      26.620  46.203  51.433  1.00  0.00     0.192 HD
ENDROOT
BRANCH   1   5
HETATM    5  C   UNL     1      27.112  46.262  53.889  1.00  0.00     0.121 A 
HETATM    6  N   UNL     1      27.453  45.041  53.377  1.00  0.00    -0.272 N 
HETATM    7  N   UNL     1      28.429  44.416  54.054  1.00  0.00    -0.174 NA
HETATM    8  H   UNL     1      27.071  44.604  52.542  1.00  0.00     0.189 HD
HETATM    9  C   UNL     1      28.708  45.233  55.081  1.00  0.00     0.089 A 
HETATM   10  C   UNL     1      27.890  46.396  55.022  1.00  0.00     0.071 A 
BRANCH   9  11
HETATM   11  C   UNL     1      29.750  44.927  56.063  1.00  0.00    -0.006 A 
HETATM   12  C   UNL     1      29.883  45.705  57.222  1.00  0.00     0.014 A 
HETATM   13  C   UNL     1      30.846  45.393  58.185  1.00  0.00     0.001 A 
HETATM   14  C   UNL     1      31.692  44.303  57.996  1.00  0.00     0.000 A 
HETATM   15  C   UNL     1      31.581  43.528  56.843  1.00  0.00     0.001 A 
HETATM   16  C   UNL     1      30.615  43.837  55.881  1.00  0.00     0.014 A 
ENDBRANCH   9  11
ENDBRANCH   1   5
BRANCH   2  17
HETATM   17  N   UNL     1      25.140  47.565  51.108  1.00  0.00    -0.165 NA
HETATM   18  C   UNL     1      24.340  46.939  50.301  1.00  0.00     0.157 A 
HETATM   19  C   UNL     1      23.523  47.694  49.232  1.00  0.00     0.277 A 
HETATM   20  C   UNL     1      23.998  45.517  50.130  1.00  0.00     0.027 A 
HETATM   21  O   UNL     1      23.478  48.891  49.063  1.00  0.00    -0.266 OA
HETATM   22  N   UNL     1      22.885  46.714  48.504  1.00  0.00    -0.321 N 
HETATM   23  C   UNL     1      23.148  45.454  49.023  1.00  0.00     0.048 A 
HETATM   24  H   UNL     1      22.272  46.926  47.731  1.00  0.00     0.169 HD
HETATM   25  C   UNL     1      22.629  44.258  48.567  1.00  0.00     0.030 A 
HETATM   26  C   UNL     1      22.967  43.098  49.268  1.00  0.00     0.002 A 
HETATM   27  C   UNL     1      23.790  43.159  50.408  1.00  0.00     0.001 A 
HETATM   28  C   UNL     1      24.304  44.380  50.857  1.00  0.00     0.016 A 
ENDBRANCH   2  17
TORSDOF 3
ENDMDL
MODEL 4
REMARK VINA RESULT:      -9.5      2.281      8.246
REMARK  3 active torsions:
REMARK  status: ('A' for Active; 'I' for Inactive)
REMARK    1  A    between atoms: C_4  and  C_5 
REMARK    2  A    between atoms: C_9  and  C_10 
REMARK       I    between atoms: C_10  and  N_11 
REMARK    3  A    between atoms: N_11  and  N_12 
ROOT
HETATM    1  C   UNL     1      26.426  45.176  50.385  1.00  0.00     0.289 C 
HETATM    2  N   UNL     1      25.950  44.579  51.542  1.00  0.00    -0.241 N 
HETATM    3  O   UNL     1      27.284  44.700  49.651  1.00  0.00    -0.264 OA
HETATM    4  H   UNL     1      25.341  45.103  52.152  1.00  0.00     0.192 HD
ENDROOT
BRANCH   1   5
HETATM    5  C   UNL     1      25.772  46.423  50.067  1.00  0.00     0.121 A 
HETATM    6  N   UNL     1      26.480  47.580  49.893  1.00  0.00    -0.272 N 
HETATM    7  N   UNL     1      25.733  48.629  49.516  1.00  0.00    -0.174 NA
HETATM    8  H   UNL     1      27.486  47.696  49.986  1.00  0.00     0.189 HD
HETATM    9  C   UNL     1      24.476  48.160  49.489  1.00  0.00     0.089 A 
HETATM   10  C   UNL     1      24.456  46.783  49.845  1.00  0.00     0.071 A 
BRANCH   9  11
HETATM   11  C   UNL     1      23.338  48.995  49.098  1.00  0.00    -0.006 A 
HETATM   12  C   UNL     1      23.523  50.355  48.810  1.00  0.00     0.014 A 
HETATM   13  C   UNL     1      22.451  51.148  48.393  1.00  0.00     0.001 A 
HETATM   14  C   UNL     1      21.180  50.591  48.267  1.00  0.00     0.000 A 
HETATM   15  C   UNL     1      20.979  49.244  48.562  1.00  0.00     0.001 A 
HETATM   16  C   UNL     1      22.052  48.449  48.975  1.00  0.00     0.014 A 
ENDBRANCH   9  11
ENDBRANCH   1   5
BRANCH   2  17
HETATM   17  N   UNL     1      26.491  43.427  52.022  1.00  0.00    -0.165 NA
HETATM   18  C   UNL     1      27.349  43.507  52.990  1.00  0.00     0.157 A 
HETATM   19  C   UNL     1      28.166  42.279  53.446  1.00  0.00     0.277 A 
HETATM   20  C   UNL     1      27.796  44.619  53.846  1.00  0.00     0.027 A 
HETATM   21  O   UNL     1      28.070  41.148  53.029  1.00  0.00    -0.266 OA
HETATM   22  N   UNL     1      29.036  42.757  54.401  1.00  0.00    -0.321 N 
HETATM   23  C   UNL     1      28.822  44.107  54.643  1.00  0.00     0.048 A 
HETATM   24  H   UNL     1      29.697  42.162  54.878  1.00  0.00     0.169 HD
HETATM   25  C   UNL     1      29.483  44.884  55.573  1.00  0.00     0.030 A 
HETATM   26  C   UNL     1      29.076  46.214  55.710  1.00  0.00     0.002 A 
HETATM   27  C   UNL     1      28.016  46.726  54.940  1.00  0.00     0.001 A 
HETATM   28  C   UNL     1      27.356  45.922  54.004  1.00  0.00     0.016 A 
ENDBRANCH   2  17
TORSDOF 3
ENDMDL
MODEL 5
REMARK VINA RESULT:      -9.4      3.639      5.018
REMARK  3 active torsions:
REMARK  status: ('A' for Active; 'I' for Inactive)
REMARK    1  A    between atoms: C_4  and  C_5 
REMARK    2  A    between atoms: C_9  and  C_10 
REMARK       I    between atoms: C_10  and  N_11 
REMARK    3  A    between atoms: N_11  and  N_12 
ROOT
HETATM    1  C   UNL     1      26.415  44.433  52.086  1.00  0.00     0.289 C 
HETATM    2  N   UNL     1      25.391  43.514  52.253  1.00  0.00    -0.241 N 
HETATM    3  O   UNL     1      26.374  45.401  51.335  1.00  0.00    -0.264 OA
HETATM    4  H   UNL     1      25.563  42.678  52.791  1.00  0.00     0.192 HD
ENDROOT
BRANCH   1   5
HETATM    5  C   UNL     1      27.558  44.187  52.933  1.00  0.00     0.121 A 
HETATM    6  N   UNL     1      28.667  43.537  52.469  1.00  0.00    -0.272 N 
HETATM    7  N   UNL     1      29.673  43.467  53.355  1.00  0.00    -0.174 NA
HETATM    8  H   UNL     1      28.800  43.151  51.538  1.00  0.00     0.189 HD
HETATM    9  C   UNL     1      29.191  44.049  54.464  1.00  0.00     0.089 A 
HETATM   10  C   UNL     1      27.860  44.500  54.245  1.00  0.00     0.071 A 
BRANCH   9  11
HETATM   11  C   UNL     1      29.994  44.202  55.679  1.00  0.00    -0.006 A 
HETATM   12  C   UNL     1      30.981  43.259  55.999  1.00  0.00     0.014 A 
HETATM   13  C   UNL     1      31.781  43.421  57.133  1.00  0.00     0.001 A 
HETATM   14  C   UNL     1      31.597  44.524  57.963  1.00  0.00     0.000 A 
HETATM   15  C   UNL     1      30.611  45.463  57.665  1.00  0.00     0.001 A 
HETATM   16  C   UNL     1      29.814  45.303  56.529  1.00  0.00     0.014 A 
ENDBRANCH   9  11
ENDBRANCH   1   5
BRANCH   2  17
HETATM   17  N   UNL     1      24.262  43.561  51.497  1.00  0.00    -0.165 NA
HETATM   18  C   UNL     1      24.186  42.791  50.457  1.00  0.00     0.157 A 
HETATM   19  C   UNL     1      23.044  42.933  49.429  1.00  0.00     0.277 A 
HETATM   20  C   UNL     1      25.036  41.698  49.954  1.00  0.00     0.027 A 
HETATM   21  O   UNL     1      22.101  43.689  49.493  1.00  0.00    -0.266 OA
HETATM   22  N   UNL     1      23.345  42.041  48.425  1.00  0.00    -0.321 N 
HETATM   23  C   UNL     1      24.491  41.317  48.726  1.00  0.00     0.048 A 
HETATM   24  H   UNL     1      22.758  41.920  47.613  1.00  0.00     0.169 HD
HETATM   25  C   UNL     1      25.043  40.308  47.962  1.00  0.00     0.030 A 
HETATM   26  C   UNL     1      26.168  39.654  48.471  1.00  0.00     0.002 A 
HETATM   27  C   UNL     1      26.698  40.004  49.726  1.00  0.00     0.001 A 
HETATM   28  C   UNL     1      26.123  41.028  50.487  1.00  0.00     0.016 A 
ENDBRANCH   2  17
TORSDOF 3
ENDMDL
MODEL 6
REMARK VINA RESULT:      -9.4      2.141      8.254
REMARK  3 active torsions:
REMARK  status: ('A' for Active; 'I' for Inactive)
REMARK    1  A    between atoms: C_4  and  C_5 
REMARK    2  A    between atoms: C_9  and  C_10 
REMARK       I    between atoms: C_10  and  N_11 
REMARK    3  A    between atoms: N_11  and  N_12 
ROOT
HETATM    1  C   UNL     1      25.014  44.066  50.754  1.00  0.00     0.289 C 
HETATM    2  N   UNL     1      26.326  43.781  50.410  1.00  0.00    -0.241 N 
HETATM    3  O   UNL     1      24.230  43.267  51.253  1.00  0.00    -0.264 OA
HETATM    4  H   UNL     1      26.856  44.460  49.885  1.00  0.00     0.192 HD
ENDROOT
BRANCH   1   5
HETATM    5  C   UNL     1      24.640  45.440  50.520  1.00  0.00     0.121 A 
HETATM    6  N   UNL     1      25.118  46.455  51.302  1.00  0.00    -0.272 N 
HETATM    7  N   UNL     1      24.744  47.680  50.899  1.00  0.00    -0.174 NA
HETATM    8  H   UNL     1      25.734  46.365  52.105  1.00  0.00     0.189 HD
HETATM    9  C   UNL     1      23.948  47.463  49.841  1.00  0.00     0.089 A 
HETATM   10  C   UNL     1      23.844  46.068  49.581  1.00  0.00     0.071 A 
BRANCH   9  11
HETATM   11  C   UNL     1      23.340  48.557  49.082  1.00  0.00    -0.006 A 
HETATM   12  C   UNL     1      21.972  48.534  48.778  1.00  0.00     0.014 A 
HETATM   13  C   UNL     1      21.375  49.595  48.093  1.00  0.00     0.001 A 
HETATM   14  C   UNL     1      22.143  50.688  47.696  1.00  0.00     0.000 A 
HETATM   15  C   UNL     1      23.507  50.719  47.979  1.00  0.00     0.001 A 
HETATM   16  C   UNL     1      24.103  49.660  48.668  1.00  0.00     0.014 A 
ENDBRANCH   9  11
ENDBRANCH   1   5
BRANCH   2  17
HETATM   17  N   UNL     1      26.832  42.523  50.512  1.00  0.00    -0.165 NA
HETATM   18  C   UNL     1      27.702  42.284  51.443  1.00  0.00     0.157 A 
HETATM   19  C   UNL     1      28.481  40.952  51.495  1.00  0.00     0.277 A 
HETATM   20  C   UNL     1      28.195  43.075  52.583  1.00  0.00     0.027 A 
HETATM   21  O   UNL     1      28.342  40.001  50.761  1.00  0.00    -0.266 OA
HETATM   22  N   UNL     1      29.377  41.096  52.531  1.00  0.00    -0.321 N 
HETATM   23  C   UNL     1      29.211  42.317  53.171  1.00  0.00     0.048 A 
HETATM   24  H   UNL     1      30.021  40.366  52.796  1.00  0.00     0.169 HD
HETATM   25  C   UNL     1      29.907  42.760  54.278  1.00  0.00     0.030 A 
HETATM   26  C   UNL     1      29.547  43.999  54.814  1.00  0.00     0.002 A 
HETATM   27  C   UNL     1      28.497  44.750  54.253  1.00  0.00     0.001 A 
HETATM   28  C   UNL     1      27.801  44.282  53.133  1.00  0.00     0.016 A 
ENDBRANCH   2  17
TORSDOF 3
ENDMDL
MODEL 7
REMARK VINA RESULT:      -9.4      3.471      5.014
REMARK  3 active torsions:
REMARK  status: ('A' for Active; 'I' for Inactive)
REMARK    1  A    between atoms: C_4  and  C_5 
REMARK    2  A    between atoms: C_9  and  C_10 
REMARK       I    between atoms: C_10  and  N_11 
REMARK    3  A    between atoms: N_11  and  N_12 
ROOT
HETATM    1  C   UNL     1      25.900  45.530  52.511  1.00  0.00     0.289 C 
HETATM    2  N   UNL     1      25.123  44.397  52.688  1.00  0.00    -0.241 N 
HETATM    3  O   UNL     1      25.734  46.365  51.629  1.00  0.00    -0.264 OA
HETATM    4  H   UNL     1      25.413  43.700  53.357  1.00  0.00     0.192 HD
ENDROOT
BRANCH   1   5
HETATM    5  C   UNL     1      26.927  45.690  53.513  1.00  0.00     0.121 A 
HETATM    6  N   UNL     1      27.149  46.891  54.127  1.00  0.00    -0.272 N 
HETATM    7  N   UNL     1      28.078  46.850  55.094  1.00  0.00    -0.174 NA
HETATM    8  H   UNL     1      26.664  47.766  53.943  1.00  0.00     0.189 HD
HETATM    9  C   UNL     1      28.523  45.584  55.085  1.00  0.00     0.089 A 
HETATM   10  C   UNL     1      27.837  44.828  54.095  1.00  0.00     0.071 A 
BRANCH   9  11
HETATM   11  C   UNL     1      29.543  45.107  56.021  1.00  0.00    -0.006 A 
HETATM   12  C   UNL     1      30.393  44.050  55.665  1.00  0.00     0.014 A 
HETATM   13  C   UNL     1      31.398  43.618  56.534  1.00  0.00     0.001 A 
HETATM   14  C   UNL     1      31.558  44.233  57.773  1.00  0.00     0.000 A 
HETATM   15  C   UNL     1      30.712  45.276  58.147  1.00  0.00     0.001 A 
HETATM   16  C   UNL     1      29.710  45.711  57.276  1.00  0.00     0.014 A 
ENDBRANCH   9  11
ENDBRANCH   1   5
BRANCH   2  17
HETATM   17  N   UNL     1      24.144  44.060  51.805  1.00  0.00    -0.165 NA
HETATM   18  C   UNL     1      24.392  43.128  50.939  1.00  0.00     0.157 A 
HETATM   19  C   UNL     1      23.425  42.834  49.772  1.00  0.00     0.277 A 
HETATM   20  C   UNL     1      25.510  42.185  50.772  1.00  0.00     0.027 A 
HETATM   21  O   UNL     1      22.354  43.358  49.568  1.00  0.00    -0.266 OA
HETATM   22  N   UNL     1      24.056  41.876  49.010  1.00  0.00    -0.321 N 
HETATM   23  C   UNL     1      25.258  41.490  49.587  1.00  0.00     0.048 A 
HETATM   24  H   UNL     1      23.643  41.491  48.174  1.00  0.00     0.169 HD
HETATM   25  C   UNL     1      26.115  40.516  49.113  1.00  0.00     0.030 A 
HETATM   26  C   UNL     1      27.250  40.228  49.875  1.00  0.00     0.002 A 
HETATM   27  C   UNL     1      27.490  40.895  51.091  1.00  0.00     0.001 A 
HETATM   28  C   UNL     1      26.608  41.877  51.556  1.00  0.00     0.016 A 
ENDBRANCH   2  17
TORSDOF 3
ENDMDL
MODEL 8
REMARK VINA RESULT:      -9.0      3.137      8.968
REMARK  3 active torsions:
REMARK  status: ('A' for Active; 'I' for Inactive)
REMARK    1  A    between atoms: C_4  and  C_5 
REMARK    2  A    between atoms: C_9  and  C_10 
REMARK       I    between atoms: C_10  and  N_11 
REMARK    3  A    between atoms: N_11  and  N_12 
ROOT
HETATM    1  C   UNL     1      23.207  46.530  48.792  1.00  0.00     0.289 C 
HETATM    2  N   UNL     1      24.330  46.278  49.565  1.00  0.00    -0.241 N 
HETATM    3  O   UNL     1      22.740  45.761  47.960  1.00  0.00    -0.264 OA
HETATM    4  H   UNL     1      24.717  47.021  50.128  1.00  0.00     0.192 HD
ENDROOT
BRANCH   1   5
HETATM    5  C   UNL     1      22.571  47.791  49.091  1.00  0.00     0.121 A 
HETATM    6  N   UNL     1      23.260  48.824  49.664  1.00  0.00    -0.272 N 
HETATM    7  N   UNL     1      22.547  49.954  49.795  1.00  0.00    -0.174 NA
HETATM    8  H   UNL     1      24.235  48.817  49.953  1.00  0.00     0.189 HD
HETATM    9  C   UNL     1      21.326  49.641  49.336  1.00  0.00     0.089 A 
HETATM   10  C   UNL     1      21.295  48.287  48.900  1.00  0.00     0.071 A 
BRANCH   9  11
HETATM   11  C   UNL     1      20.237  50.618  49.282  1.00  0.00    -0.006 A 
HETATM   12  C   UNL     1      20.272  51.667  48.352  1.00  0.00     0.014 A 
HETATM   13  C   UNL     1      19.216  52.578  48.264  1.00  0.00     0.001 A 
HETATM   14  C   UNL     1      18.117  52.454  49.111  1.00  0.00     0.000 A 
HETATM   15  C   UNL     1      18.075  51.425  50.050  1.00  0.00     0.001 A 
HETATM   16  C   UNL     1      19.129  50.511  50.135  1.00  0.00     0.014 A 
ENDBRANCH   9  11
ENDBRANCH   1   5
BRANCH   2  17
HETATM   17  N   UNL     1      25.085  45.162  49.380  1.00  0.00    -0.165 NA
HETATM   18  C   UNL     1      25.895  44.805  50.327  1.00  0.00     0.157 A 
HETATM   19  C   UNL     1      26.937  43.685  50.116  1.00  0.00     0.277 A 
HETATM   20  C   UNL     1      26.096  45.276  51.707  1.00  0.00     0.027 A 
HETATM   21  O   UNL     1      27.077  43.001  49.129  1.00  0.00    -0.266 OA
HETATM   22  N   UNL     1      27.679  43.657  51.276  1.00  0.00    -0.321 N 
HETATM   23  C   UNL     1      27.192  44.568  52.204  1.00  0.00     0.048 A 
HETATM   24  H   UNL     1      28.439  43.008  51.417  1.00  0.00     0.169 HD
HETATM   25  C   UNL     1      27.670  44.761  53.485  1.00  0.00     0.030 A 
HETATM   26  C   UNL     1      27.000  45.687  54.291  1.00  0.00     0.002 A 
HETATM   27  C   UNL     1      25.870  46.374  53.812  1.00  0.00     0.001 A 
HETATM   28  C   UNL     1      25.399  46.162  52.511  1.00  0.00     0.016 A 
ENDBRANCH   2  17
TORSDOF 3
ENDMDL
MODEL 9
REMARK VINA RESULT:      -8.9      1.953      2.407
REMARK  3 active torsions:
REMARK  status: ('A' for Active; 'I' for Inactive)
REMARK    1  A    between atoms: C_4  and  C_5 
REMARK    2  A    between atoms: C_9  and  C_10 
REMARK       I    between atoms: C_10  and  N_11 
REMARK    3  A    between atoms: N_11  and  N_12 
ROOT
HETATM    1  C   UNL     1      25.284  43.585  50.843  1.00  0.00     0.289 C 
HETATM    2  N   UNL     1      23.963  43.999  50.903  1.00  0.00    -0.241 N 
HETATM    3  O   UNL     1      25.833  43.130  49.847  1.00  0.00    -0.264 OA
HETATM    4  H   UNL     1      23.561  44.237  51.797  1.00  0.00     0.192 HD
ENDROOT
BRANCH   1   5
HETATM    5  C   UNL     1      26.009  43.787  52.075  1.00  0.00     0.121 A 
HETATM    6  N   UNL     1      25.380  43.769  53.289  1.00  0.00    -0.272 N 
HETATM    7  N   UNL     1      26.208  43.885  54.339  1.00  0.00    -0.174 NA
HETATM    8  H   UNL     1      24.384  43.644  53.455  1.00  0.00     0.189 HD
HETATM    9  C   UNL     1      27.426  44.037  53.796  1.00  0.00     0.089 A 
HETATM   10  C   UNL     1      27.341  43.998  52.377  1.00  0.00     0.071 A 
BRANCH   9  11
HETATM   11  C   UNL     1      28.633  44.175  54.612  1.00  0.00    -0.006 A 
HETATM   12  C   UNL     1      28.818  45.307  55.418  1.00  0.00     0.014 A 
HETATM   13  C   UNL     1      29.946  45.427  56.234  1.00  0.00     0.001 A 
HETATM   14  C   UNL     1      30.907  44.418  56.246  1.00  0.00     0.000 A 
HETATM   15  C   UNL     1      30.744  43.293  55.440  1.00  0.00     0.001 A 
HETATM   16  C   UNL     1      29.613  43.171  54.628  1.00  0.00     0.014 A 
ENDBRANCH   9  11
ENDBRANCH   1   5
BRANCH   2  17
HETATM   17  N   UNL     1      23.117  43.833  49.850  1.00  0.00    -0.165 NA
HETATM   18  C   UNL     1      22.787  44.877  49.156  1.00  0.00     0.157 A 
HETATM   19  C   UNL     1      21.674  44.816  48.088  1.00  0.00     0.277 A 
HETATM   20  C   UNL     1      23.261  46.272  49.154  1.00  0.00     0.027 A 
HETATM   21  O   UNL     1      21.054  43.837  47.742  1.00  0.00    -0.266 OA
HETATM   22  N   UNL     1      21.527  46.111  47.644  1.00  0.00    -0.321 N 
HETATM   23  C   UNL     1      22.447  46.956  48.249  1.00  0.00     0.048 A 
HETATM   24  H   UNL     1      20.860  46.367  46.931  1.00  0.00     0.169 HD
HETATM   25  C   UNL     1      22.607  48.304  47.995  1.00  0.00     0.030 A 
HETATM   26  C   UNL     1      23.638  48.970  48.665  1.00  0.00     0.002 A 
HETATM   27  C   UNL     1      24.488  48.278  49.547  1.00  0.00     0.001 A 
HETATM   28  C   UNL     1      24.312  46.911  49.789  1.00  0.00     0.016 A 
ENDBRANCH   2  17
TORSDOF 3
ENDMDL
MODEL 10
REMARK VINA RESULT:      -8.7      4.325      6.514
REMARK  3 active torsions:
REMARK  status: ('A' for Active; 'I' for Inactive)
REMARK    1  A    between atoms: C_4  and  C_5 
REMARK    2  A    between atoms: C_9  and  C_10 
REMARK       I    between atoms: C_10  and  N_11 
REMARK    3  A    between atoms: N_11  and  N_12 
ROOT
HETATM    1  C   UNL     1      25.930  42.787  50.961  1.00  0.00     0.289 C 
HETATM    2  N   UNL     1      26.839  42.438  49.974  1.00  0.00    -0.241 N 
HETATM    3  O   UNL     1      24.715  42.658  50.873  1.00  0.00    -0.264 OA
HETATM    4  H   UNL     1      27.807  42.701  50.081  1.00  0.00     0.192 HD
ENDROOT
BRANCH   1   5
HETATM    5  C   UNL     1      26.549  43.282  52.168  1.00  0.00     0.121 A 
HETATM    6  N   UNL     1      25.803  43.745  53.217  1.00  0.00    -0.272 N 
HETATM    7  N   UNL     1      26.526  44.087  54.295  1.00  0.00    -0.174 NA
HETATM    8  H   UNL     1      24.790  43.814  53.258  1.00  0.00     0.189 HD
HETATM    9  C   UNL     1      27.801  43.890  53.926  1.00  0.00     0.089 A 
HETATM   10  C   UNL     1      27.858  43.401  52.591  1.00  0.00     0.071 A 
BRANCH   9  11
HETATM   11  C   UNL     1      28.924  44.126  54.836  1.00  0.00    -0.006 A 
HETATM   12  C   UNL     1      29.919  43.153  55.001  1.00  0.00     0.014 A 
HETATM   13  C   UNL     1      31.016  43.388  55.833  1.00  0.00     0.001 A 
HETATM   14  C   UNL     1      31.126  44.597  56.517  1.00  0.00     0.000 A 
HETATM   15  C   UNL     1      30.137  45.569  56.373  1.00  0.00     0.001 A 
HETATM   16  C   UNL     1      29.042  45.336  55.537  1.00  0.00     0.014 A 
ENDBRANCH   9  11
ENDBRANCH   1   5
BRANCH   2  17
HETATM   17  N   UNL     1      26.431  42.005  48.752  1.00  0.00    -0.165 NA
HETATM   18  C   UNL     1      26.974  40.932  48.267  1.00  0.00     0.157 A 
HETATM   19  C   UNL     1      26.728  40.492  46.808  1.00  0.00     0.277 A 
HETATM   20  C   UNL     1      27.886  39.925  48.834  1.00  0.00     0.027 A 
HETATM   21  O   UNL     1      25.997  41.023  46.004  1.00  0.00    -0.266 OA
HETATM   22  N   UNL     1      27.537  39.394  46.618  1.00  0.00    -0.321 N 
HETATM   23  C   UNL     1      28.203  39.055  47.789  1.00  0.00     0.048 A 
HETATM   24  H   UNL     1      27.576  38.895  45.742  1.00  0.00     0.169 HD
HETATM   25  C   UNL     1      29.051  37.979  47.962  1.00  0.00     0.030 A 
HETATM   26  C   UNL     1      29.576  37.770  49.241  1.00  0.00     0.002 A 
HETATM   27  C   UNL     1      29.229  38.618  50.309  1.00  0.00     0.001 A 
HETATM   28  C   UNL     1      28.366  39.701  50.114  1.00  0.00     0.016 A 
ENDBRANCH   2  17
TORSDOF 3
ENDMDL
