MODEL 1
REMARK VINA RESULT:      -8.2      0.000      0.000
REMARK  10 active torsions:
REMARK  status: ('A' for Active; 'I' for Inactive)
REMARK    1  A    between atoms: C_2  and  O_3 
REMARK    2  A    between atoms: O_3  and  C_4 
REMARK    3  A    between atoms: C_4  and  C_5 
REMARK    4  A    between atoms: C_6  and  C_7 
REMARK    5  A    between atoms: C_16  and  C_17 
REMARK    6  A    between atoms: C_17  and  C_18 
REMARK       I    between atoms: C_18  and  N_19 
REMARK    7  A    between atoms: N_19  and  C_20 
REMARK    8  A    between atoms: C_20  and  C_21 
REMARK    9  A    between atoms: C_21  and  N_22 
REMARK   10  A    between atoms: C_31  and  C_32 
ROOT
HETATM    1  C   UNL     1      21.326  48.352  48.516  1.00  0.00     0.075 C 
HETATM    2  C   UNL     1      22.775  47.807  48.439  1.00  0.00     0.151 C 
HETATM    3  N   UNL     1      23.012  46.446  48.816  1.00  0.00    -0.321 N 
HETATM    4  C   UNL     1      23.974  45.766  49.340  1.00  0.00     0.011 C 
HETATM    5  C   UNL     1      22.019  45.597  48.068  1.00  0.00     0.170 C 
HETATM    6  S   UNL     1      22.443  43.925  48.091  1.00  0.00    -0.086 SA
HETATM    7  C   UNL     1      23.810  44.263  49.250  1.00  0.00     0.135 C 
HETATM    8  N   UNL     1      21.040  46.109  47.424  1.00  0.00    -0.219 NA
HETATM    9  C   UNL     1      20.618  47.455  47.623  1.00  0.00     0.157 C 
ENDROOT
BRANCH   4  10
HETATM   10  C   UNL     1      25.229  46.430  49.830  1.00  0.00     0.156 C 
BRANCH  10  11
HETATM   11  C   UNL     1      26.281  45.479  50.360  1.00  0.00     0.223 C 
HETATM   12  N   UNL     1      26.218  45.246  51.711  1.00  0.00    -0.359 N 
HETATM   13  H   UNL     1      25.532  45.753  52.266  1.00  0.00     0.162 HD
HETATM   14  O   UNL     1      27.102  44.930  49.631  1.00  0.00    -0.273 OA
BRANCH  12  15
HETATM   15  C   UNL     1      27.241  44.527  52.473  1.00  0.00     0.150 C 
BRANCH  15  16
HETATM   16  C   UNL     1      27.193  42.988  52.367  1.00  0.00     0.253 C 
BRANCH  16  17
HETATM   17  N   UNL     1      28.540  42.385  52.023  1.00  0.00    -0.077 N 
HETATM   18  H   UNL     1      28.687  42.527  51.004  1.00  0.00     0.279 HD
HETATM   19  C   UNL     1      29.693  43.064  52.712  1.00  0.00     0.269 C 
HETATM   20  C   UNL     1      28.568  40.902  52.269  1.00  0.00     0.269 C 
ENDBRANCH  16  17
ENDBRANCH  15  16
ENDBRANCH  12  15
ENDBRANCH  10  11
ENDBRANCH   4  10
BRANCH   2  21
HETATM   21  C   UNL     1      22.804  48.803  49.458  1.00  0.00     0.044 C 
HETATM   22  C   UNL     1      22.645  50.300  48.390  1.00  0.00    -0.068 C 
HETATM   23  C   UNL     1      21.381  51.085  48.308  1.00  0.00     0.044 C 
HETATM   24  C   UNL     1      24.124  50.860  47.600  1.00  0.00     0.004 C 
HETATM   25  C   UNL     1      25.691  50.051  47.923  1.00  0.00     0.007 C 
HETATM   26  C   UNL     1      25.850  48.713  49.123  1.00  0.00    -0.065 C 
HETATM   27  C   UNL     1      27.215  48.250  49.539  1.00  0.00     0.048 C 
HETATM   28  C   UNL     1      24.432  48.112  49.991  1.00  0.00    -0.002 C 
ENDBRANCH   2  21
BRANCH   1  29
HETATM   29  C   UNL     1      21.232  50.056  49.807  1.00  0.00     0.293 C 
HETATM   30  O   UNL     1      22.203  50.584  50.430  1.00  0.00    -0.259 OA
BRANCH  29  31
HETATM   31  O   UNL     1      20.059  50.820  50.142  1.00  0.00    -0.318 OA
BRANCH  31  32
HETATM   32  C   UNL     1      18.754  50.199  50.152  1.00  0.00     0.174 C 
HETATM   33  C   UNL     1      18.793  48.935  50.986  1.00  0.00     0.034 C 
ENDBRANCH  31  32
ENDBRANCH  29  31
ENDBRANCH   1  29
BRANCH   9  34
HETATM   34  C   UNL     1      19.231  47.585  46.882  1.00  0.00     0.435 C 
HETATM   35  F   UNL     1      18.245  46.995  47.622  1.00  0.00    -0.165 F 
HETATM   36  F   UNL     1      18.847  48.876  46.727  1.00  0.00    -0.165 F 
HETATM   37  F   UNL     1      19.178  46.960  45.682  1.00  0.00    -0.165 F 
ENDBRANCH   9  34
TORSDOF 10
ENDMDL
MODEL 2
REMARK VINA RESULT:      -8.2      1.556      1.947
REMARK  10 active torsions:
REMARK  status: ('A' for Active; 'I' for Inactive)
REMARK    1  A    between atoms: C_2  and  O_3 
REMARK    2  A    between atoms: O_3  and  C_4 
REMARK    3  A    between atoms: C_4  and  C_5 
REMARK    4  A    between atoms: C_6  and  C_7 
REMARK    5  A    between atoms: C_16  and  C_17 
REMARK    6  A    between atoms: C_17  and  C_18 
REMARK       I    between atoms: C_18  and  N_19 
REMARK    7  A    between atoms: N_19  and  C_20 
REMARK    8  A    between atoms: C_20  and  C_21 
REMARK    9  A    between atoms: C_21  and  N_22 
REMARK   10  A    between atoms: C_31  and  C_32 
ROOT
HETATM    1  C   UNL     1      20.981  48.313  48.043  1.00  0.00     0.075 C 
HETATM    2  C   UNL     1      22.415  47.727  48.108  1.00  0.00     0.151 C 
HETATM    3  N   UNL     1      22.568  46.330  48.385  1.00  0.00    -0.321 N 
HETATM    4  C   UNL     1      23.434  45.572  48.966  1.00  0.00     0.011 C 
HETATM    5  C   UNL     1      21.666  45.587  47.435  1.00  0.00     0.170 C 
HETATM    6  S   UNL     1      22.044  43.906  47.357  1.00  0.00    -0.086 SA
HETATM    7  C   UNL     1      23.249  44.090  48.715  1.00  0.00     0.135 C 
HETATM    8  N   UNL     1      20.795  46.188  46.717  1.00  0.00    -0.219 NA
HETATM    9  C   UNL     1      20.381  47.526  46.984  1.00  0.00     0.157 C 
ENDROOT
BRANCH   4  10
HETATM   10  C   UNL     1      24.625  46.145  49.678  1.00  0.00     0.156 C 
BRANCH  10  11
HETATM   11  C   UNL     1      25.349  45.169  50.581  1.00  0.00     0.223 C 
HETATM   12  N   UNL     1      24.766  44.980  51.809  1.00  0.00    -0.359 N 
HETATM   13  H   UNL     1      23.946  45.530  52.054  1.00  0.00     0.162 HD
HETATM   14  O   UNL     1      26.359  44.566  50.228  1.00  0.00    -0.273 OA
BRANCH  12  15
HETATM   15  C   UNL     1      25.386  44.245  52.914  1.00  0.00     0.150 C 
BRANCH  15  16
HETATM   16  C   UNL     1      25.570  45.040  54.224  1.00  0.00     0.253 C 
BRANCH  16  17
HETATM   17  N   UNL     1      26.640  46.109  54.111  1.00  0.00    -0.077 N 
HETATM   18  H   UNL     1      27.040  46.040  53.154  1.00  0.00     0.279 HD
HETATM   19  C   UNL     1      26.106  47.509  54.244  1.00  0.00     0.269 C 
HETATM   20  C   UNL     1      27.769  45.873  55.077  1.00  0.00     0.269 C 
ENDBRANCH  16  17
ENDBRANCH  15  16
ENDBRANCH  12  15
ENDBRANCH  10  11
ENDBRANCH   4  10
BRANCH   2  21
HETATM   21  C   UNL     1      22.328  48.625  49.211  1.00  0.00     0.044 C 
HETATM   22  C   UNL     1      22.293  50.215  48.275  1.00  0.00    -0.068 C 
HETATM   23  C   UNL     1      21.046  51.018  48.122  1.00  0.00     0.044 C 
HETATM   24  C   UNL     1      23.852  50.828  47.711  1.00  0.00     0.004 C 
HETATM   25  C   UNL     1      25.372  49.976  48.134  1.00  0.00     0.007 C 
HETATM   26  C   UNL     1      25.392  48.533  49.218  1.00  0.00    -0.065 C 
HETATM   27  C   UNL     1      26.701  48.019  49.741  1.00  0.00     0.048 C 
HETATM   28  C   UNL     1      23.885  47.871  49.860  1.00  0.00    -0.002 C 
ENDBRANCH   2  21
BRANCH   1  29
HETATM   29  C   UNL     1      20.753  49.897  49.465  1.00  0.00     0.293 C 
HETATM   30  O   UNL     1      21.665  50.394  50.192  1.00  0.00    -0.259 OA
BRANCH  29  31
HETATM   31  O   UNL     1      19.537  50.597  49.785  1.00  0.00    -0.318 OA
BRANCH  31  32
HETATM   32  C   UNL     1      18.334  49.870  50.120  1.00  0.00     0.174 C 
HETATM   33  C   UNL     1      18.666  48.737  51.070  1.00  0.00     0.034 C 
ENDBRANCH  31  32
ENDBRANCH  29  31
ENDBRANCH   1  29
BRANCH   9  34
HETATM   34  C   UNL     1      19.110  47.770  46.081  1.00  0.00     0.435 C 
HETATM   35  F   UNL     1      18.803  49.101  46.050  1.00  0.00    -0.165 F 
HETATM   36  F   UNL     1      19.319  47.413  44.789  1.00  0.00    -0.165 F 
HETATM   37  F   UNL     1      17.983  47.170  46.529  1.00  0.00    -0.165 F 
ENDBRANCH   9  34
TORSDOF 10
ENDMDL
MODEL 3
REMARK VINA RESULT:      -8.0      5.090      7.797
REMARK  10 active torsions:
REMARK  status: ('A' for Active; 'I' for Inactive)
REMARK    1  A    between atoms: C_2  and  O_3 
REMARK    2  A    between atoms: O_3  and  C_4 
REMARK    3  A    between atoms: C_4  and  C_5 
REMARK    4  A    between atoms: C_6  and  C_7 
REMARK    5  A    between atoms: C_16  and  C_17 
REMARK    6  A    between atoms: C_17  and  C_18 
REMARK       I    between atoms: C_18  and  N_19 
REMARK    7  A    between atoms: N_19  and  C_20 
REMARK    8  A    between atoms: C_20  and  C_21 
REMARK    9  A    between atoms: C_21  and  N_22 
REMARK   10  A    between atoms: C_31  and  C_32 
ROOT
HETATM    1  C   UNL     1      26.645  45.306  51.905  1.00  0.00     0.075 C 
HETATM    2  C   UNL     1      26.262  43.854  51.521  1.00  0.00     0.151 C 
HETATM    3  N   UNL     1      27.229  42.817  51.724  1.00  0.00    -0.321 N 
HETATM    4  C   UNL     1      27.539  41.694  51.172  1.00  0.00     0.011 C 
HETATM    5  C   UNL     1      27.727  42.944  53.139  1.00  0.00     0.170 C 
HETATM    6  S   UNL     1      28.571  41.534  53.663  1.00  0.00    -0.086 SA
HETATM    7  C   UNL     1      28.478  40.826  51.984  1.00  0.00     0.135 C 
HETATM    8  N   UNL     1      27.451  43.959  53.866  1.00  0.00    -0.219 NA
HETATM    9  C   UNL     1      26.948  45.175  53.317  1.00  0.00     0.157 C 
ENDROOT
BRANCH   4  10
HETATM   10  C   UNL     1      26.868  41.228  49.912  1.00  0.00     0.156 C 
BRANCH  10  11
HETATM   11  C   UNL     1      27.375  39.903  49.381  1.00  0.00     0.223 C 
HETATM   12  N   UNL     1      26.689  38.803  49.830  1.00  0.00    -0.359 N 
HETATM   13  H   UNL     1      25.946  38.931  50.513  1.00  0.00     0.162 HD
HETATM   14  O   UNL     1      28.304  39.824  48.582  1.00  0.00    -0.273 OA
BRANCH  12  15
HETATM   15  C   UNL     1      27.116  37.419  49.614  1.00  0.00     0.150 C 
BRANCH  15  16
HETATM   16  C   UNL     1      26.379  36.662  48.488  1.00  0.00     0.253 C 
BRANCH  16  17
HETATM   17  N   UNL     1      27.328  35.924  47.565  1.00  0.00    -0.077 N 
HETATM   18  H   UNL     1      28.035  35.455  48.165  1.00  0.00     0.279 HD
HETATM   19  C   UNL     1      26.664  34.833  46.769  1.00  0.00     0.269 C 
HETATM   20  C   UNL     1      28.074  36.867  46.661  1.00  0.00     0.269 C 
ENDBRANCH  16  17
ENDBRANCH  15  16
ENDBRANCH  12  15
ENDBRANCH  10  11
ENDBRANCH   4  10
BRANCH   2  21
HETATM   21  C   UNL     1      26.293  44.570  50.290  1.00  0.00     0.044 C 
HETATM   22  C   UNL     1      24.764  45.580  50.516  1.00  0.00    -0.068 C 
HETATM   23  C   UNL     1      24.815  47.037  50.828  1.00  0.00     0.044 C 
HETATM   24  C   UNL     1      23.231  44.770  50.173  1.00  0.00     0.004 C 
HETATM   25  C   UNL     1      23.210  43.090  49.545  1.00  0.00     0.007 C 
HETATM   26  C   UNL     1      24.726  42.197  49.147  1.00  0.00    -0.065 C 
HETATM   27  C   UNL     1      24.646  40.903  48.391  1.00  0.00     0.048 C 
HETATM   28  C   UNL     1      26.305  42.940  49.420  1.00  0.00    -0.002 C 
ENDBRANCH   2  21
BRANCH   1  29
HETATM   29  C   UNL     1      26.473  46.601  50.210  1.00  0.00     0.293 C 
HETATM   30  O   UNL     1      26.211  46.253  49.019  1.00  0.00    -0.259 OA
BRANCH  29  31
HETATM   31  O   UNL     1      26.638  48.031  50.199  1.00  0.00    -0.318 OA
BRANCH  31  32
HETATM   32  C   UNL     1      27.470  48.669  49.205  1.00  0.00     0.174 C 
HETATM   33  C   UNL     1      26.681  49.745  48.487  1.00  0.00     0.034 C 
ENDBRANCH  31  32
ENDBRANCH  29  31
ENDBRANCH   1  29
BRANCH   9  34
HETATM   34  C   UNL     1      27.033  46.239  54.480  1.00  0.00     0.435 C 
HETATM   35  F   UNL     1      25.779  46.651  54.833  1.00  0.00    -0.165 F 
HETATM   36  F   UNL     1      27.580  45.726  55.609  1.00  0.00    -0.165 F 
HETATM   37  F   UNL     1      27.686  47.377  54.148  1.00  0.00    -0.165 F 
ENDBRANCH   9  34
TORSDOF 10
ENDMDL
MODEL 4
REMARK VINA RESULT:      -7.7      3.852      8.583
REMARK  10 active torsions:
REMARK  status: ('A' for Active; 'I' for Inactive)
REMARK    1  A    between atoms: C_2  and  O_3 
REMARK    2  A    between atoms: O_3  and  C_4 
REMARK    3  A    between atoms: C_4  and  C_5 
REMARK    4  A    between atoms: C_6  and  C_7 
REMARK    5  A    between atoms: C_16  and  C_17 
REMARK    6  A    between atoms: C_17  and  C_18 
REMARK       I    between atoms: C_18  and  N_19 
REMARK    7  A    between atoms: N_19  and  C_20 
REMARK    8  A    between atoms: C_20  and  C_21 
REMARK    9  A    between atoms: C_21  and  N_22 
REMARK   10  A    between atoms: C_31  and  C_32 
ROOT
HETATM    1  C   UNL     1      23.990  46.483  49.580  1.00  0.00     0.075 C 
HETATM    2  C   UNL     1      22.897  46.974  48.596  1.00  0.00     0.151 C 
HETATM    3  N   UNL     1      22.192  48.181  48.907  1.00  0.00    -0.321 N 
HETATM    4  C   UNL     1      21.014  48.665  48.704  1.00  0.00     0.011 C 
HETATM    5  C   UNL     1      23.223  49.232  49.218  1.00  0.00     0.170 C 
HETATM    6  S   UNL     1      22.559  50.824  49.202  1.00  0.00    -0.086 SA
HETATM    7  C   UNL     1      20.878  50.145  48.994  1.00  0.00     0.135 C 
HETATM    8  N   UNL     1      24.459  48.942  49.377  1.00  0.00    -0.219 NA
HETATM    9  C   UNL     1      24.906  47.607  49.598  1.00  0.00     0.157 C 
ENDROOT
BRANCH   4  10
HETATM   10  C   UNL     1      19.931  47.849  48.058  1.00  0.00     0.156 C 
BRANCH  10  11
HETATM   11  C   UNL     1      18.552  48.472  48.117  1.00  0.00     0.223 C 
HETATM   12  N   UNL     1      18.196  49.186  47.000  1.00  0.00    -0.359 N 
HETATM   13  H   UNL     1      18.875  49.300  46.251  1.00  0.00     0.162 HD
HETATM   14  O   UNL     1      17.799  48.320  49.074  1.00  0.00    -0.273 OA
BRANCH  12  15
HETATM   15  C   UNL     1      17.006  50.035  46.908  1.00  0.00     0.150 C 
BRANCH  15  16
HETATM   16  C   UNL     1      17.142  51.444  47.523  1.00  0.00     0.253 C 
BRANCH  16  17
HETATM   17  N   UNL     1      16.876  51.456  49.016  1.00  0.00    -0.077 N 
HETATM   18  H   UNL     1      16.920  50.470  49.342  1.00  0.00     0.279 HD
HETATM   19  C   UNL     1      17.916  52.205  49.804  1.00  0.00     0.269 C 
HETATM   20  C   UNL     1      15.496  51.963  49.333  1.00  0.00     0.269 C 
ENDBRANCH  16  17
ENDBRANCH  15  16
ENDBRANCH  12  15
ENDBRANCH  10  11
ENDBRANCH   4  10
BRANCH   2  21
HETATM   21  C   UNL     1      22.400  45.748  49.126  1.00  0.00     0.044 C 
HETATM   22  C   UNL     1      23.543  44.585  48.261  1.00  0.00    -0.068 C 
HETATM   23  C   UNL     1      24.661  43.898  48.969  1.00  0.00     0.044 C 
HETATM   24  C   UNL     1      23.141  44.191  46.586  1.00  0.00     0.004 C 
HETATM   25  C   UNL     1      21.642  44.827  45.835  1.00  0.00     0.007 C 
HETATM   26  C   UNL     1      20.443  45.801  46.767  1.00  0.00    -0.065 C 
HETATM   27  C   UNL     1      19.097  46.087  46.169  1.00  0.00     0.048 C 
HETATM   28  C   UNL     1      20.740  46.213  48.460  1.00  0.00    -0.002 C 
ENDBRANCH   2  21
BRANCH   1  29
HETATM   29  C   UNL     1      23.544  44.508  50.273  1.00  0.00     0.293 C 
HETATM   30  O   UNL     1      22.526  43.815  49.970  1.00  0.00    -0.259 OA
BRANCH  29  31
HETATM   31  O   UNL     1      24.335  43.713  51.175  1.00  0.00    -0.318 OA
BRANCH  31  32
HETATM   32  C   UNL     1      24.928  44.304  52.352  1.00  0.00     0.174 C 
HETATM   33  C   UNL     1      26.416  44.492  52.139  1.00  0.00     0.034 C 
ENDBRANCH  31  32
ENDBRANCH  29  31
ENDBRANCH   1  29
BRANCH   9  34
HETATM   34  C   UNL     1      26.417  47.727  50.037  1.00  0.00     0.435 C 
HETATM   35  F   UNL     1      26.940  48.912  49.604  1.00  0.00    -0.165 F 
HETATM   36  F   UNL     1      26.564  47.733  51.385  1.00  0.00    -0.165 F 
HETATM   37  F   UNL     1      27.229  46.781  49.508  1.00  0.00    -0.165 F 
ENDBRANCH   9  34
TORSDOF 10
ENDMDL
MODEL 5
REMARK VINA RESULT:      -7.5      1.638      2.226
REMARK  10 active torsions:
REMARK  status: ('A' for Active; 'I' for Inactive)
REMARK    1  A    between atoms: C_2  and  O_3 
REMARK    2  A    between atoms: O_3  and  C_4 
REMARK    3  A    between atoms: C_4  and  C_5 
REMARK    4  A    between atoms: C_6  and  C_7 
REMARK    5  A    between atoms: C_16  and  C_17 
REMARK    6  A    between atoms: C_17  and  C_18 
REMARK       I    between atoms: C_18  and  N_19 
REMARK    7  A    between atoms: N_19  and  C_20 
REMARK    8  A    between atoms: C_20  and  C_21 
REMARK    9  A    between atoms: C_21  and  N_22 
REMARK   10  A    between atoms: C_31  and  C_32 
ROOT
HETATM    1  C   UNL     1      20.186  49.019  47.758  1.00  0.00     0.075 C 
HETATM    2  C   UNL     1      21.535  48.257  47.767  1.00  0.00     0.151 C 
HETATM    3  N   UNL     1      21.509  46.825  47.798  1.00  0.00    -0.321 N 
HETATM    4  C   UNL     1      22.248  45.877  48.265  1.00  0.00     0.011 C 
HETATM    5  C   UNL     1      20.582  46.374  46.702  1.00  0.00     0.170 C 
HETATM    6  S   UNL     1      20.765  44.697  46.340  1.00  0.00    -0.086 SA
HETATM    7  C   UNL     1      21.907  44.495  47.750  1.00  0.00     0.135 C 
HETATM    8  N   UNL     1      19.827  47.192  46.072  1.00  0.00    -0.219 NA
HETATM    9  C   UNL     1      19.557  48.505  46.556  1.00  0.00     0.157 C 
ENDROOT
BRANCH   4  10
HETATM   10  C   UNL     1      23.457  46.168  49.107  1.00  0.00     0.156 C 
BRANCH  10  11
HETATM   11  C   UNL     1      24.074  44.951  49.764  1.00  0.00     0.223 C 
HETATM   12  N   UNL     1      25.133  44.405  49.083  1.00  0.00    -0.359 N 
HETATM   13  H   UNL     1      25.394  44.798  48.181  1.00  0.00     0.162 HD
HETATM   14  O   UNL     1      23.682  44.511  50.841  1.00  0.00    -0.273 OA
BRANCH  12  15
HETATM   15  C   UNL     1      25.756  43.122  49.416  1.00  0.00     0.150 C 
BRANCH  15  16
HETATM   16  C   UNL     1      26.958  43.195  50.382  1.00  0.00     0.253 C 
BRANCH  16  17
HETATM   17  N   UNL     1      26.644  42.613  51.746  1.00  0.00    -0.077 N 
HETATM   18  H   UNL     1      25.741  42.106  51.662  1.00  0.00     0.279 HD
HETATM   19  C   UNL     1      27.654  41.600  52.212  1.00  0.00     0.269 C 
HETATM   20  C   UNL     1      26.449  43.688  52.780  1.00  0.00     0.269 C 
ENDBRANCH  16  17
ENDBRANCH  15  16
ENDBRANCH  12  15
ENDBRANCH  10  11
ENDBRANCH   4  10
BRANCH   2  21
HETATM   21  C   UNL     1      21.492  48.957  49.007  1.00  0.00     0.044 C 
HETATM   22  C   UNL     1      21.690  50.676  48.366  1.00  0.00    -0.068 C 
HETATM   23  C   UNL     1      20.554  51.640  48.316  1.00  0.00     0.044 C 
HETATM   24  C   UNL     1      23.338  51.181  47.971  1.00  0.00     0.004 C 
HETATM   25  C   UNL     1      24.725  50.090  48.287  1.00  0.00     0.007 C 
HETATM   26  C   UNL     1      24.521  48.491  49.099  1.00  0.00    -0.065 C 
HETATM   27  C   UNL     1      25.732  47.739  49.567  1.00  0.00     0.048 C 
HETATM   28  C   UNL     1      22.915  47.918  49.565  1.00  0.00    -0.002 C 
ENDBRANCH   2  21
BRANCH   1  29
HETATM   29  C   UNL     1      20.064  50.352  49.428  1.00  0.00     0.293 C 
HETATM   30  O   UNL     1      20.894  50.441  50.382  1.00  0.00    -0.259 OA
BRANCH  29  31
HETATM   31  O   UNL     1      19.025  51.312  49.689  1.00  0.00    -0.318 OA
BRANCH  31  32
HETATM   32  C   UNL     1      17.677  50.879  49.981  1.00  0.00     0.174 C 
HETATM   33  C   UNL     1      16.907  50.691  48.689  1.00  0.00     0.034 C 
ENDBRANCH  31  32
ENDBRANCH  29  31
ENDBRANCH   1  29
BRANCH   9  34
HETATM   34  C   UNL     1      18.375  49.056  45.668  1.00  0.00     0.435 C 
HETATM   35  F   UNL     1      18.530  48.648  44.373  1.00  0.00    -0.165 F 
HETATM   36  F   UNL     1      17.169  48.578  46.060  1.00  0.00    -0.165 F 
HETATM   37  F   UNL     1      18.313  50.407  45.596  1.00  0.00    -0.165 F 
ENDBRANCH   9  34
TORSDOF 10
ENDMDL
MODEL 6
REMARK VINA RESULT:      -7.3      3.058      4.296
REMARK  10 active torsions:
REMARK  status: ('A' for Active; 'I' for Inactive)
REMARK    1  A    between atoms: C_2  and  O_3 
REMARK    2  A    between atoms: O_3  and  C_4 
REMARK    3  A    between atoms: C_4  and  C_5 
REMARK    4  A    between atoms: C_6  and  C_7 
REMARK    5  A    between atoms: C_16  and  C_17 
REMARK    6  A    between atoms: C_17  and  C_18 
REMARK       I    between atoms: C_18  and  N_19 
REMARK    7  A    between atoms: N_19  and  C_20 
REMARK    8  A    between atoms: C_20  and  C_21 
REMARK    9  A    between atoms: C_21  and  N_22 
REMARK   10  A    between atoms: C_31  and  C_32 
ROOT
HETATM    1  C   UNL     1      18.783  50.124  47.200  1.00  0.00     0.075 C 
HETATM    2  C   UNL     1      19.978  49.137  47.158  1.00  0.00     0.151 C 
HETATM    3  N   UNL     1      19.732  47.786  46.751  1.00  0.00    -0.321 N 
HETATM    4  C   UNL     1      20.220  46.620  47.003  1.00  0.00     0.011 C 
HETATM    5  C   UNL     1      18.966  47.844  45.456  1.00  0.00     0.170 C 
HETATM    6  S   UNL     1      18.960  46.329  44.632  1.00  0.00    -0.086 SA
HETATM    7  C   UNL     1      19.777  45.527  46.053  1.00  0.00     0.135 C 
HETATM    8  N   UNL     1      18.473  48.937  45.009  1.00  0.00    -0.219 NA
HETATM    9  C   UNL     1      18.318  50.093  45.827  1.00  0.00     0.157 C 
ENDROOT
BRANCH   4  10
HETATM   10  C   UNL     1      21.282  46.423  48.047  1.00  0.00     0.156 C 
BRANCH  10  11
HETATM   11  C   UNL     1      21.540  44.979  48.419  1.00  0.00     0.223 C 
HETATM   12  N   UNL     1      22.573  44.385  47.737  1.00  0.00    -0.359 N 
HETATM   13  H   UNL     1      23.048  44.912  47.008  1.00  0.00     0.162 HD
HETATM   14  O   UNL     1      20.900  44.396  49.290  1.00  0.00    -0.273 OA
BRANCH  12  15
HETATM   15  C   UNL     1      22.877  42.953  47.782  1.00  0.00     0.150 C 
BRANCH  15  16
HETATM   16  C   UNL     1      23.886  42.519  48.867  1.00  0.00     0.253 C 
BRANCH  16  17
HETATM   17  N   UNL     1      25.298  42.983  48.567  1.00  0.00    -0.077 N 
HETATM   18  H   UNL     1      25.297  43.358  47.599  1.00  0.00     0.279 HD
HETATM   19  C   UNL     1      25.760  44.107  49.454  1.00  0.00     0.269 C 
HETATM   20  C   UNL     1      26.278  41.842  48.596  1.00  0.00     0.269 C 
ENDBRANCH  16  17
ENDBRANCH  15  16
ENDBRANCH  12  15
ENDBRANCH  10  11
ENDBRANCH   4  10
BRANCH   2  21
HETATM   21  C   UNL     1      19.812  49.464  48.535  1.00  0.00     0.044 C 
HETATM   22  C   UNL     1      20.440  51.200  48.487  1.00  0.00    -0.068 C 
HETATM   23  C   UNL     1      19.528  52.376  48.577  1.00  0.00     0.044 C 
HETATM   24  C   UNL     1      22.196  51.399  48.502  1.00  0.00     0.004 C 
HETATM   25  C   UNL     1      23.272  49.973  48.658  1.00  0.00     0.007 C 
HETATM   26  C   UNL     1      22.626  48.306  48.902  1.00  0.00    -0.065 C 
HETATM   27  C   UNL     1      23.563  47.197  49.281  1.00  0.00     0.048 C 
HETATM   28  C   UNL     1      20.883  48.015  48.939  1.00  0.00    -0.002 C 
ENDBRANCH   2  21
BRANCH   1  29
HETATM   29  C   UNL     1      18.556  50.945  49.163  1.00  0.00     0.293 C 
HETATM   30  O   UNL     1      19.046  50.480  50.236  1.00  0.00    -0.259 OA
BRANCH  29  31
HETATM   31  O   UNL     1      17.814  52.125  49.523  1.00  0.00    -0.318 OA
BRANCH  31  32
HETATM   32  C   UNL     1      16.389  52.058  49.750  1.00  0.00     0.174 C 
HETATM   33  C   UNL     1      15.711  51.390  48.571  1.00  0.00     0.034 C 
ENDBRANCH  31  32
ENDBRANCH  29  31
ENDBRANCH   1  29
BRANCH   9  34
HETATM   34  C   UNL     1      17.418  51.089  44.997  1.00  0.00     0.435 C 
HETATM   35  F   UNL     1      17.576  52.364  45.461  1.00  0.00    -0.165 F 
HETATM   36  F   UNL     1      17.767  51.131  43.688  1.00  0.00    -0.165 F 
HETATM   37  F   UNL     1      16.088  50.852  45.094  1.00  0.00    -0.165 F 
ENDBRANCH   9  34
TORSDOF 10
ENDMDL
MODEL 7
REMARK VINA RESULT:      -7.3      3.871      8.772
REMARK  10 active torsions:
REMARK  status: ('A' for Active; 'I' for Inactive)
REMARK    1  A    between atoms: C_2  and  O_3 
REMARK    2  A    between atoms: O_3  and  C_4 
REMARK    3  A    between atoms: C_4  and  C_5 
REMARK    4  A    between atoms: C_6  and  C_7 
REMARK    5  A    between atoms: C_16  and  C_17 
REMARK    6  A    between atoms: C_17  and  C_18 
REMARK       I    between atoms: C_18  and  N_19 
REMARK    7  A    between atoms: N_19  and  C_20 
REMARK    8  A    between atoms: C_20  and  C_21 
REMARK    9  A    between atoms: C_21  and  N_22 
REMARK   10  A    between atoms: C_31  and  C_32 
ROOT
HETATM    1  C   UNL     1      24.007  46.422  49.547  1.00  0.00     0.075 C 
HETATM    2  C   UNL     1      22.900  46.871  48.559  1.00  0.00     0.151 C 
HETATM    3  N   UNL     1      22.147  48.049  48.869  1.00  0.00    -0.321 N 
HETATM    4  C   UNL     1      20.952  48.487  48.661  1.00  0.00     0.011 C 
HETATM    5  C   UNL     1      23.135  49.139  49.186  1.00  0.00     0.170 C 
HETATM    6  S   UNL     1      22.409  50.704  49.169  1.00  0.00    -0.086 SA
HETATM    7  C   UNL     1      20.757  49.960  48.953  1.00  0.00     0.135 C 
HETATM    8  N   UNL     1      24.380  48.898  49.350  1.00  0.00    -0.219 NA
HETATM    9  C   UNL     1      24.878  47.581  49.571  1.00  0.00     0.157 C 
ENDROOT
BRANCH   4  10
HETATM   10  C   UNL     1      19.904  47.630  48.009  1.00  0.00     0.156 C 
BRANCH  10  11
HETATM   11  C   UNL     1      18.639  48.366  47.622  1.00  0.00     0.223 C 
HETATM   12  N   UNL     1      17.582  48.183  48.479  1.00  0.00    -0.359 N 
HETATM   13  H   UNL     1      17.689  47.542  49.262  1.00  0.00     0.162 HD
HETATM   14  O   UNL     1      18.575  49.099  46.639  1.00  0.00    -0.273 OA
BRANCH  12  15
HETATM   15  C   UNL     1      16.213  48.628  48.208  1.00  0.00     0.150 C 
BRANCH  15  16
HETATM   16  C   UNL     1      15.962  50.144  48.359  1.00  0.00     0.253 C 
BRANCH  16  17
HETATM   17  N   UNL     1      16.001  50.875  47.032  1.00  0.00    -0.077 N 
HETATM   18  H   UNL     1      16.989  50.874  46.711  1.00  0.00     0.279 HD
HETATM   19  C   UNL     1      15.208  50.195  45.949  1.00  0.00     0.269 C 
HETATM   20  C   UNL     1      15.587  52.314  47.175  1.00  0.00     0.269 C 
ENDBRANCH  16  17
ENDBRANCH  15  16
ENDBRANCH  12  15
ENDBRANCH  10  11
ENDBRANCH   4  10
BRANCH   2  21
HETATM   21  C   UNL     1      22.449  45.626  49.085  1.00  0.00     0.044 C 
HETATM   22  C   UNL     1      23.632  44.509  48.214  1.00  0.00    -0.068 C 
HETATM   23  C   UNL     1      24.776  43.861  48.918  1.00  0.00     0.044 C 
HETATM   24  C   UNL     1      23.243  44.107  46.538  1.00  0.00     0.004 C 
HETATM   25  C   UNL     1      21.720  44.690  45.792  1.00  0.00     0.007 C 
HETATM   26  C   UNL     1      20.487  45.616  46.729  1.00  0.00    -0.065 C 
HETATM   27  C   UNL     1      19.131  45.855  46.134  1.00  0.00     0.048 C 
HETATM   28  C   UNL     1      20.772  46.032  48.423  1.00  0.00    -0.002 C 
ENDBRANCH   2  21
BRANCH   1  29
HETATM   29  C   UNL     1      23.636  44.430  50.235  1.00  0.00     0.293 C 
HETATM   30  O   UNL     1      22.592  43.742  50.024  1.00  0.00    -0.259 OA
BRANCH  29  31
HETATM   31  O   UNL     1      24.517  43.615  51.030  1.00  0.00    -0.318 OA
BRANCH  31  32
HETATM   32  C   UNL     1      25.046  44.107  52.282  1.00  0.00     0.174 C 
HETATM   33  C   UNL     1      26.492  44.521  52.101  1.00  0.00     0.034 C 
ENDBRANCH  31  32
ENDBRANCH  29  31
ENDBRANCH   1  29
BRANCH   9  34
HETATM   34  C   UNL     1      26.381  47.759  50.017  1.00  0.00     0.435 C 
HETATM   35  F   UNL     1      26.474  47.739  51.380  1.00  0.00    -0.165 F 
HETATM   36  F   UNL     1      27.172  46.747  49.582  1.00  0.00    -0.165 F 
HETATM   37  F   UNL     1      26.935  48.940  49.654  1.00  0.00    -0.165 F 
ENDBRANCH   9  34
TORSDOF 10
ENDMDL
MODEL 8
REMARK VINA RESULT:      -7.0      3.940      5.230
REMARK  10 active torsions:
REMARK  status: ('A' for Active; 'I' for Inactive)
REMARK    1  A    between atoms: C_2  and  O_3 
REMARK    2  A    between atoms: O_3  and  C_4 
REMARK    3  A    between atoms: C_4  and  C_5 
REMARK    4  A    between atoms: C_6  and  C_7 
REMARK    5  A    between atoms: C_16  and  C_17 
REMARK    6  A    between atoms: C_17  and  C_18 
REMARK       I    between atoms: C_18  and  N_19 
REMARK    7  A    between atoms: N_19  and  C_20 
REMARK    8  A    between atoms: C_20  and  C_21 
REMARK    9  A    between atoms: C_21  and  N_22 
REMARK   10  A    between atoms: C_31  and  C_32 
ROOT
HETATM    1  C   UNL     1      18.770  50.156  47.199  1.00  0.00     0.075 C 
HETATM    2  C   UNL     1      19.931  49.132  47.124  1.00  0.00     0.151 C 
HETATM    3  N   UNL     1      19.645  47.811  46.650  1.00  0.00    -0.321 N 
HETATM    4  C   UNL     1      20.090  46.618  46.852  1.00  0.00     0.011 C 
HETATM    5  C   UNL     1      18.898  47.956  45.351  1.00  0.00     0.170 C 
HETATM    6  S   UNL     1      18.851  46.482  44.456  1.00  0.00    -0.086 SA
HETATM    7  C   UNL     1      19.622  45.587  45.847  1.00  0.00     0.135 C 
HETATM    8  N   UNL     1      18.448  49.085  44.950  1.00  0.00    -0.219 NA
HETATM    9  C   UNL     1      18.322  50.206  45.821  1.00  0.00     0.157 C 
ENDROOT
BRANCH   4  10
HETATM   10  C   UNL     1      21.131  46.336  47.898  1.00  0.00     0.156 C 
BRANCH  10  11
HETATM   11  C   UNL     1      21.633  44.908  47.919  1.00  0.00     0.223 C 
HETATM   12  N   UNL     1      22.620  44.631  47.006  1.00  0.00    -0.359 N 
HETATM   13  H   UNL     1      22.905  45.358  46.354  1.00  0.00     0.162 HD
HETATM   14  O   UNL     1      21.214  44.072  48.715  1.00  0.00    -0.273 OA
BRANCH  12  15
HETATM   15  C   UNL     1      23.115  43.286  46.708  1.00  0.00     0.150 C 
BRANCH  15  16
HETATM   16  C   UNL     1      22.259  42.464  45.720  1.00  0.00     0.253 C 
BRANCH  16  17
HETATM   17  N   UNL     1      21.404  41.423  46.417  1.00  0.00    -0.077 N 
HETATM   18  H   UNL     1      20.803  41.927  47.097  1.00  0.00     0.279 HD
HETATM   19  C   UNL     1      20.470  40.695  45.489  1.00  0.00     0.269 C 
HETATM   20  C   UNL     1      22.240  40.451  47.205  1.00  0.00     0.269 C 
ENDBRANCH  16  17
ENDBRANCH  15  16
ENDBRANCH  12  15
ENDBRANCH  10  11
ENDBRANCH   4  10
BRANCH   2  21
HETATM   21  C   UNL     1      19.759  49.400  48.512  1.00  0.00     0.044 C 
HETATM   22  C   UNL     1      20.427  51.120  48.550  1.00  0.00    -0.068 C 
HETATM   23  C   UNL     1      19.541  52.312  48.686  1.00  0.00     0.044 C 
HETATM   24  C   UNL     1      22.187  51.278  48.590  1.00  0.00     0.004 C 
HETATM   25  C   UNL     1      23.229  49.822  48.690  1.00  0.00     0.007 C 
HETATM   26  C   UNL     1      22.542  48.161  48.851  1.00  0.00    -0.065 C 
HETATM   27  C   UNL     1      23.450  47.014  49.187  1.00  0.00     0.048 C 
HETATM   28  C   UNL     1      20.793  47.909  48.859  1.00  0.00    -0.002 C 
ENDBRANCH   2  21
BRANCH   1  29
HETATM   29  C   UNL     1      18.546  50.892  49.196  1.00  0.00     0.293 C 
HETATM   30  O   UNL     1      19.078  50.408  50.241  1.00  0.00    -0.259 OA
BRANCH  29  31
HETATM   31  O   UNL     1      17.760  52.023  49.615  1.00  0.00    -0.318 OA
BRANCH  31  32
HETATM   32  C   UNL     1      16.322  51.924  49.714  1.00  0.00     0.174 C 
HETATM   33  C   UNL     1      15.702  52.044  48.337  1.00  0.00     0.034 C 
ENDBRANCH  31  32
ENDBRANCH  29  31
ENDBRANCH   1  29
BRANCH   9  34
HETATM   34  C   UNL     1      17.467  51.270  45.030  1.00  0.00     0.435 C 
HETATM   35  F   UNL     1      17.917  51.375  43.744  1.00  0.00    -0.165 F 
HETATM   36  F   UNL     1      16.162  50.913  44.932  1.00  0.00    -0.165 F 
HETATM   37  F   UNL     1      17.545  52.529  45.523  1.00  0.00    -0.165 F 
ENDBRANCH   9  34
TORSDOF 10
ENDMDL
MODEL 9
REMARK VINA RESULT:      -6.9      3.602      6.208
REMARK  10 active torsions:
REMARK  status: ('A' for Active; 'I' for Inactive)
REMARK    1  A    between atoms: C_2  and  O_3 
REMARK    2  A    between atoms: O_3  and  C_4 
REMARK    3  A    between atoms: C_4  and  C_5 
REMARK    4  A    between atoms: C_6  and  C_7 
REMARK    5  A    between atoms: C_16  and  C_17 
REMARK    6  A    between atoms: C_17  and  C_18 
REMARK       I    between atoms: C_18  and  N_19 
REMARK    7  A    between atoms: N_19  and  C_20 
REMARK    8  A    between atoms: C_20  and  C_21 
REMARK    9  A    between atoms: C_21  and  N_22 
REMARK   10  A    between atoms: C_31  and  C_32 
ROOT
HETATM    1  C   UNL     1      17.639  51.788  47.194  1.00  0.00     0.075 C 
HETATM    2  C   UNL     1      18.942  50.980  47.422  1.00  0.00     0.151 C 
HETATM    3  N   UNL     1      18.981  49.615  46.993  1.00  0.00    -0.321 N 
HETATM    4  C   UNL     1      19.563  48.525  47.362  1.00  0.00     0.011 C 
HETATM    5  C   UNL     1      18.507  49.583  45.564  1.00  0.00     0.170 C 
HETATM    6  S   UNL     1      18.890  48.094  44.782  1.00  0.00    -0.086 SA
HETATM    7  C   UNL     1      19.490  47.395  46.357  1.00  0.00     0.135 C 
HETATM    8  N   UNL     1      17.972  50.602  45.006  1.00  0.00    -0.219 NA
HETATM    9  C   UNL     1      17.486  51.713  45.754  1.00  0.00     0.157 C 
ENDROOT
BRANCH   4  10
HETATM   10  C   UNL     1      20.396  48.465  48.611  1.00  0.00     0.156 C 
BRANCH  10  11
HETATM   11  C   UNL     1      21.834  48.046  48.390  1.00  0.00     0.223 C 
HETATM   12  N   UNL     1      22.226  46.938  49.097  1.00  0.00    -0.359 N 
HETATM   13  H   UNL     1      21.570  46.512  49.749  1.00  0.00     0.162 HD
HETATM   14  O   UNL     1      22.580  48.632  47.611  1.00  0.00    -0.273 OA
BRANCH  12  15
HETATM   15  C   UNL     1      23.610  46.469  49.199  1.00  0.00     0.150 C 
BRANCH  15  16
HETATM   16  C   UNL     1      24.523  47.285  50.137  1.00  0.00     0.253 C 
BRANCH  16  17
HETATM   17  N   UNL     1      24.713  46.622  51.487  1.00  0.00    -0.077 N 
HETATM   18  H   UNL     1      23.924  46.926  52.091  1.00  0.00     0.279 HD
HETATM   19  C   UNL     1      24.644  45.120  51.431  1.00  0.00     0.269 C 
HETATM   20  C   UNL     1      25.981  47.074  52.159  1.00  0.00     0.269 C 
ENDBRANCH  16  17
ENDBRANCH  15  16
ENDBRANCH  12  15
ENDBRANCH  10  11
ENDBRANCH   4  10
BRANCH   2  21
HETATM   21  C   UNL     1      18.443  51.261  48.727  1.00  0.00     0.044 C 
HETATM   22  C   UNL     1      19.643  50.258  49.708  1.00  0.00    -0.068 C 
HETATM   23  C   UNL     1      20.740  50.885  50.499  1.00  0.00     0.044 C 
HETATM   24  C   UNL     1      19.323  48.522  49.801  1.00  0.00     0.004 C 
HETATM   25  C   UNL     1      17.847  47.827  49.056  1.00  0.00     0.007 C 
HETATM   26  C   UNL     1      16.591  48.860  48.274  1.00  0.00    -0.065 C 
HETATM   27  C   UNL     1      15.268  48.260  47.898  1.00  0.00     0.048 C 
HETATM   28  C   UNL     1      16.807  50.611  48.167  1.00  0.00    -0.002 C 
ENDBRANCH   2  21
BRANCH   1  29
HETATM   29  C   UNL     1      16.887  52.541  49.051  1.00  0.00     0.293 C 
HETATM   30  O   UNL     1      17.555  53.136  49.949  1.00  0.00    -0.259 OA
BRANCH  29  31
HETATM   31  O   UNL     1      15.530  52.463  49.525  1.00  0.00    -0.318 OA
BRANCH  31  32
HETATM   32  C   UNL     1      14.669  53.623  49.486  1.00  0.00     0.174 C 
HETATM   33  C   UNL     1      13.759  53.629  50.698  1.00  0.00     0.034 C 
ENDBRANCH  31  32
ENDBRANCH  29  31
ENDBRANCH   1  29
BRANCH   9  34
HETATM   34  C   UNL     1      16.651  52.584  44.737  1.00  0.00     0.435 C 
HETATM   35  F   UNL     1      17.486  53.374  43.998  1.00  0.00    -0.165 F 
HETATM   36  F   UNL     1      15.978  51.824  43.838  1.00  0.00    -0.165 F 
HETATM   37  F   UNL     1      15.788  53.449  45.319  1.00  0.00    -0.165 F 
ENDBRANCH   9  34
TORSDOF 10
ENDMDL
MODEL 10
REMARK VINA RESULT:      -6.9      6.520     11.619
REMARK  10 active torsions:
REMARK  status: ('A' for Active; 'I' for Inactive)
REMARK    1  A    between atoms: C_2  and  O_3 
REMARK    2  A    between atoms: O_3  and  C_4 
REMARK    3  A    between atoms: C_4  and  C_5 
REMARK    4  A    between atoms: C_6  and  C_7 
REMARK    5  A    between atoms: C_16  and  C_17 
REMARK    6  A    between atoms: C_17  and  C_18 
REMARK       I    between atoms: C_18  and  N_19 
REMARK    7  A    between atoms: N_19  and  C_20 
REMARK    8  A    between atoms: C_20  and  C_21 
REMARK    9  A    between atoms: C_21  and  N_22 
REMARK   10  A    between atoms: C_31  and  C_32 
ROOT
HETATM    1  C   UNL     1      17.025  50.119  48.031  1.00  0.00     0.075 C 
HETATM    2  C   UNL     1      15.722  50.831  47.588  1.00  0.00     0.151 C 
HETATM    3  N   UNL     1      15.054  50.360  46.412  1.00  0.00    -0.321 N 
HETATM    4  C   UNL     1      14.325  50.863  45.475  1.00  0.00     0.011 C 
HETATM    5  C   UNL     1      14.895  48.870  46.557  1.00  0.00     0.170 C 
HETATM    6  S   UNL     1      13.754  48.223  45.437  1.00  0.00    -0.086 SA
HETATM    7  C   UNL     1      13.610  49.844  44.611  1.00  0.00     0.135 C 
HETATM    8  N   UNL     1      15.485  48.212  47.482  1.00  0.00    -0.219 NA
HETATM    9  C   UNL     1      16.572  48.755  48.227  1.00  0.00     0.157 C 
ENDROOT
BRANCH   4  10
HETATM   10  C   UNL     1      14.076  52.341  45.382  1.00  0.00     0.156 C 
BRANCH  10  11
HETATM   11  C   UNL     1      13.478  52.798  44.068  1.00  0.00     0.223 C 
HETATM   12  N   UNL     1      14.394  53.080  43.086  1.00  0.00    -0.359 N 
HETATM   13  H   UNL     1      15.386  53.023  43.308  1.00  0.00     0.162 HD
HETATM   14  O   UNL     1      12.267  52.876  43.885  1.00  0.00    -0.273 OA
BRANCH  12  15
HETATM   15  C   UNL     1      14.068  53.722  41.811  1.00  0.00     0.150 C 
BRANCH  15  16
HETATM   16  C   UNL     1      14.979  53.347  40.623  1.00  0.00     0.253 C 
BRANCH  16  17
HETATM   17  N   UNL     1      16.230  54.200  40.557  1.00  0.00    -0.077 N 
HETATM   18  H   UNL     1      16.047  55.055  41.118  1.00  0.00     0.279 HD
HETATM   19  C   UNL     1      17.436  53.544  41.171  1.00  0.00     0.269 C 
HETATM   20  C   UNL     1      16.524  54.652  39.152  1.00  0.00     0.269 C 
ENDBRANCH  16  17
ENDBRANCH  15  16
ENDBRANCH  12  15
ENDBRANCH  10  11
ENDBRANCH   4  10
BRANCH   2  21
HETATM   21  C   UNL     1      16.751  51.804  47.432  1.00  0.00     0.044 C 
HETATM   22  C   UNL     1      17.087  52.144  49.215  1.00  0.00    -0.068 C 
HETATM   23  C   UNL     1      18.310  51.639  49.902  1.00  0.00     0.044 C 
HETATM   24  C   UNL     1      15.969  53.245  50.028  1.00  0.00     0.004 C 
HETATM   25  C   UNL     1      14.653  54.047  49.111  1.00  0.00     0.007 C 
HETATM   26  C   UNL     1      14.470  53.849  47.327  1.00  0.00    -0.065 C 
HETATM   27  C   UNL     1      13.520  54.737  46.578  1.00  0.00     0.048 C 
HETATM   28  C   UNL     1      15.565  52.798  46.423  1.00  0.00    -0.002 C 
ENDBRANCH   2  21
BRANCH   1  29
HETATM   29  C   UNL     1      18.647  51.512  48.128  1.00  0.00     0.293 C 
HETATM   30  O   UNL     1      18.596  52.748  47.850  1.00  0.00    -0.259 OA
BRANCH  29  31
HETATM   31  O   UNL     1      20.004  51.228  48.514  1.00  0.00    -0.318 OA
BRANCH  31  32
HETATM   32  C   UNL     1      20.858  50.425  47.669  1.00  0.00     0.174 C 
HETATM   33  C   UNL     1      20.562  48.955  47.888  1.00  0.00     0.034 C 
ENDBRANCH  31  32
ENDBRANCH  29  31
ENDBRANCH   1  29
BRANCH   9  34
HETATM   34  C   UNL     1      17.191  47.545  49.028  1.00  0.00     0.435 C 
HETATM   35  F   UNL     1      16.195  46.772  49.556  1.00  0.00    -0.165 F 
HETATM   36  F   UNL     1      17.915  46.717  48.235  1.00  0.00    -0.165 F 
HETATM   37  F   UNL     1      17.943  47.907  50.094  1.00  0.00    -0.165 F 
ENDBRANCH   9  34
TORSDOF 10
ENDMDL
