MODEL 1
REMARK VINA RESULT:      -8.2      0.000      0.000
REMARK  8 active torsions:
REMARK  status: ('A' for Active; 'I' for Inactive)
REMARK    1  A    between atoms: C_2  and  O_3 
REMARK    2  A    between atoms: C_2  and  C_4 
REMARK    3  A    between atoms: C_2  and  C_29 
REMARK    4  A    between atoms: N_11  and  C_13 
REMARK    5  A    between atoms: C_13  and  C_14 
REMARK    6  A    between atoms: C_16  and  S_17 
REMARK    7  A    between atoms: S_17  and  C_18 
REMARK    8  A    between atoms: C_29  and  N_30 
ROOT
HETATM    1  C   UNL     1      27.952  42.938  53.516  1.00  0.00    -0.022 A 
HETATM    2  C   UNL     1      26.835  43.793  53.386  1.00  0.00     0.022 A 
HETATM    3  C   UNL     1      26.710  44.997  54.104  1.00  0.00     0.002 A 
HETATM    4  C   UNL     1      27.746  45.367  54.955  1.00  0.00     0.076 A 
HETATM    5  O   UNL     1      27.688  46.509  55.701  1.00  0.00    -0.349 OA
HETATM    6  C   UNL     1      27.748  47.682  54.880  1.00  0.00     0.203 C 
HETATM    7  C   UNL     1      26.347  48.148  54.477  1.00  0.00     0.262 C 
HETATM    8  N   UNL     1      25.681  47.239  53.461  1.00  0.00    -0.059 N 
HETATM    9  H   UNL     1      24.731  47.608  53.344  1.00  0.00     0.280 HD
HETATM   10  C   UNL     1      25.466  45.833  53.985  1.00  0.00     0.276 C 
HETATM   11  C   UNL     1      28.855  44.545  55.120  1.00  0.00     0.038 A 
HETATM   12  C   UNL     1      28.965  43.351  54.398  1.00  0.00     0.013 A 
ENDROOT
BRANCH   8  13
HETATM   13  C   UNL     1      26.301  47.306  52.081  1.00  0.00     0.299 C 
BRANCH  13  14
HETATM   14  C   UNL     1      25.418  46.772  51.013  1.00  0.00     0.080 A 
HETATM   15  O   UNL     1      24.355  47.546  50.656  1.00  0.00    -0.306 OA
HETATM   16  C   UNL     1      23.700  46.911  49.633  1.00  0.00     0.120 A 
HETATM   17  C   UNL     1      24.325  45.707  49.379  1.00  0.00     0.047 A 
HETATM   18  C   UNL     1      25.433  45.618  50.258  1.00  0.00     0.038 A 
BRANCH  16  19
HETATM   19  S   UNL     1      22.298  47.583  48.846  1.00  0.00    -0.025 SA
BRANCH  19  20
HETATM   20  C   UNL     1      22.976  49.117  48.427  1.00  0.00     0.197 A 
HETATM   21  N   UNL     1      22.517  50.309  48.914  1.00  0.00    -0.322 N 
HETATM   22  C   UNL     1      21.408  50.553  49.798  1.00  0.00     0.159 C 
HETATM   23  C   UNL     1      23.329  51.262  48.371  1.00  0.00     0.235 A 
HETATM   24  N   UNL     1      24.243  50.688  47.618  1.00  0.00    -0.143 NA
HETATM   25  N   UNL     1      24.014  49.335  47.649  1.00  0.00    -0.123 NA
ENDBRANCH  19  20
ENDBRANCH  16  19
ENDBRANCH  13  14
ENDBRANCH   8  13
BRANCH   1  26
HETATM   26  C   UNL     1      28.044  41.643  52.682  1.00  0.00     0.105 C 
HETATM   27  C   UNL     1      29.501  41.160  52.544  1.00  0.00     0.053 C 
BRANCH  26  28
HETATM   28  O   UNL     1      27.322  40.633  53.403  1.00  0.00    -0.384 OA
HETATM   29  H   UNL     1      26.410  40.598  53.060  1.00  0.00     0.211 HD
ENDBRANCH  26  28
BRANCH  26  30
HETATM   30  C   UNL     1      27.395  41.769  51.255  1.00  0.00     0.276 C 
BRANCH  30  31
HETATM   31  N   UNL     1      27.476  40.518  50.370  1.00  0.00    -0.076 N 
HETATM   32  H   UNL     1      28.075  39.824  50.832  1.00  0.00     0.279 HD
HETATM   33  C   UNL     1      26.140  39.855  50.142  1.00  0.00     0.269 C 
HETATM   34  C   UNL     1      28.148  40.831  49.058  1.00  0.00     0.269 C 
ENDBRANCH  30  31
ENDBRANCH  26  30
ENDBRANCH   1  26
TORSDOF 8
ENDMDL
MODEL 2
REMARK VINA RESULT:      -8.0      1.927      2.402
REMARK  8 active torsions:
REMARK  status: ('A' for Active; 'I' for Inactive)
REMARK    1  A    between atoms: C_2  and  O_3 
REMARK    2  A    between atoms: C_2  and  C_4 
REMARK    3  A    between atoms: C_2  and  C_29 
REMARK    4  A    between atoms: N_11  and  C_13 
REMARK    5  A    between atoms: C_13  and  C_14 
REMARK    6  A    between atoms: C_16  and  S_17 
REMARK    7  A    between atoms: S_17  and  C_18 
REMARK    8  A    between atoms: C_29  and  N_30 
ROOT
HETATM    1  C   UNL     1      27.020  42.305  52.072  1.00  0.00    -0.022 A 
HETATM    2  C   UNL     1      26.122  43.289  51.601  1.00  0.00     0.022 A 
HETATM    3  C   UNL     1      25.773  44.424  52.355  1.00  0.00     0.002 A 
HETATM    4  C   UNL     1      26.361  44.592  53.605  1.00  0.00     0.076 A 
HETATM    5  O   UNL     1      26.056  45.657  54.403  1.00  0.00    -0.349 OA
HETATM    6  C   UNL     1      26.535  46.889  53.851  1.00  0.00     0.203 C 
HETATM    7  C   UNL     1      25.476  47.546  52.963  1.00  0.00     0.262 C 
HETATM    8  N   UNL     1      25.260  46.819  51.648  1.00  0.00    -0.059 N 
HETATM    9  H   UNL     1      24.476  47.303  51.194  1.00  0.00     0.280 HD
HETATM   10  C   UNL     1      24.755  45.403  51.838  1.00  0.00     0.276 C 
HETATM   11  C   UNL     1      27.239  43.639  54.108  1.00  0.00     0.038 A 
HETATM   12  C   UNL     1      27.576  42.515  53.345  1.00  0.00     0.013 A 
ENDROOT
BRANCH   8  13
HETATM   13  C   UNL     1      26.417  46.949  50.680  1.00  0.00     0.299 C 
BRANCH  13  14
HETATM   14  C   UNL     1      26.266  48.082  49.732  1.00  0.00     0.080 A 
HETATM   15  O   UNL     1      24.998  48.536  49.520  1.00  0.00    -0.306 OA
HETATM   16  C   UNL     1      25.074  49.604  48.665  1.00  0.00     0.120 A 
HETATM   17  C   UNL     1      26.390  49.792  48.297  1.00  0.00     0.047 A 
HETATM   18  C   UNL     1      27.159  48.822  48.987  1.00  0.00     0.038 A 
BRANCH  16  19
HETATM   19  S   UNL     1      23.675  50.513  48.160  1.00  0.00    -0.025 SA
BRANCH  19  20
HETATM   20  C   UNL     1      22.512  49.238  48.275  1.00  0.00     0.197 A 
HETATM   21  N   UNL     1      21.371  49.315  49.022  1.00  0.00    -0.322 N 
HETATM   22  C   UNL     1      20.919  50.390  49.867  1.00  0.00     0.159 C 
HETATM   23  C   UNL     1      20.723  48.131  48.822  1.00  0.00     0.235 A 
HETATM   24  N   UNL     1      21.413  47.385  47.986  1.00  0.00    -0.143 NA
HETATM   25  N   UNL     1      22.545  48.082  47.648  1.00  0.00    -0.123 NA
ENDBRANCH  19  20
ENDBRANCH  16  19
ENDBRANCH  13  14
ENDBRANCH   8  13
BRANCH   1  26
HETATM   26  C   UNL     1      27.384  41.095  51.188  1.00  0.00     0.105 C 
HETATM   27  C   UNL     1      28.691  40.424  51.655  1.00  0.00     0.053 C 
BRANCH  26  28
HETATM   28  O   UNL     1      26.328  40.135  51.343  1.00  0.00    -0.384 OA
HETATM   29  H   UNL     1      25.890  40.011  50.481  1.00  0.00     0.211 HD
ENDBRANCH  26  28
BRANCH  26  30
HETATM   30  C   UNL     1      27.491  41.445  49.658  1.00  0.00     0.276 C 
BRANCH  30  31
HETATM   31  N   UNL     1      27.116  40.318  48.685  1.00  0.00    -0.076 N 
HETATM   32  H   UNL     1      26.803  39.504  49.227  1.00  0.00     0.279 HD
HETATM   33  C   UNL     1      25.987  40.679  47.752  1.00  0.00     0.269 C 
HETATM   34  C   UNL     1      28.323  39.855  47.910  1.00  0.00     0.269 C 
ENDBRANCH  30  31
ENDBRANCH  26  30
ENDBRANCH   1  26
TORSDOF 8
ENDMDL
MODEL 3
REMARK VINA RESULT:      -7.7      2.418      3.043
REMARK  8 active torsions:
REMARK  status: ('A' for Active; 'I' for Inactive)
REMARK    1  A    between atoms: C_2  and  O_3 
REMARK    2  A    between atoms: C_2  and  C_4 
REMARK    3  A    between atoms: C_2  and  C_29 
REMARK    4  A    between atoms: N_11  and  C_13 
REMARK    5  A    between atoms: C_13  and  C_14 
REMARK    6  A    between atoms: C_16  and  S_17 
REMARK    7  A    between atoms: S_17  and  C_18 
REMARK    8  A    between atoms: C_29  and  N_30 
ROOT
HETATM    1  C   UNL     1      27.755  42.505  52.800  1.00  0.00    -0.022 A 
HETATM    2  C   UNL     1      26.666  43.406  52.802  1.00  0.00     0.022 A 
HETATM    3  C   UNL     1      26.598  44.518  53.661  1.00  0.00     0.002 A 
HETATM    4  C   UNL     1      27.664  44.749  54.524  1.00  0.00     0.076 A 
HETATM    5  O   UNL     1      27.662  45.795  55.402  1.00  0.00    -0.349 OA
HETATM    6  C   UNL     1      27.745  47.055  54.726  1.00  0.00     0.203 C 
HETATM    7  C   UNL     1      26.354  47.611  54.417  1.00  0.00     0.262 C 
HETATM    8  N   UNL     1      25.636  46.853  53.316  1.00  0.00    -0.059 N 
HETATM    9  H   UNL     1      24.696  47.265  53.268  1.00  0.00     0.280 HD
HETATM   10  C   UNL     1      25.382  45.402  53.674  1.00  0.00     0.276 C 
HETATM   11  C   UNL     1      28.747  43.879  54.562  1.00  0.00     0.038 A 
HETATM   12  C   UNL     1      28.799  42.777  53.700  1.00  0.00     0.013 A 
ENDROOT
BRANCH   8  13
HETATM   13  C   UNL     1      26.228  47.066  51.939  1.00  0.00     0.299 C 
BRANCH  13  14
HETATM   14  C   UNL     1      25.255  46.843  50.839  1.00  0.00     0.080 A 
HETATM   15  O   UNL     1      25.190  45.581  50.330  1.00  0.00    -0.306 OA
HETATM   16  C   UNL     1      24.210  45.567  49.372  1.00  0.00     0.120 A 
HETATM   17  C   UNL     1      23.690  46.839  49.243  1.00  0.00     0.047 A 
HETATM   18  C   UNL     1      24.354  47.659  50.189  1.00  0.00     0.038 A 
BRANCH  16  19
HETATM   19  S   UNL     1      23.766  44.129  48.492  1.00  0.00    -0.025 SA
BRANCH  19  20
HETATM   20  C   UNL     1      22.095  44.507  48.254  1.00  0.00     0.197 A 
HETATM   21  N   UNL     1      21.565  44.882  47.053  1.00  0.00    -0.322 N 
HETATM   22  C   UNL     1      22.235  45.078  45.794  1.00  0.00     0.159 C 
HETATM   23  C   UNL     1      20.231  45.059  47.282  1.00  0.00     0.235 A 
HETATM   24  N   UNL     1      19.958  44.785  48.539  1.00  0.00    -0.143 NA
HETATM   25  N   UNL     1      21.137  44.445  49.154  1.00  0.00    -0.123 NA
ENDBRANCH  19  20
ENDBRANCH  16  19
ENDBRANCH  13  14
ENDBRANCH   8  13
BRANCH   1  26
HETATM   26  C   UNL     1      27.784  41.318  51.816  1.00  0.00     0.105 C 
HETATM   27  C   UNL     1      28.964  40.370  52.106  1.00  0.00     0.053 C 
BRANCH  26  28
HETATM   28  O   UNL     1      26.573  40.576  52.025  1.00  0.00    -0.384 OA
HETATM   29  H   UNL     1      26.756  39.631  51.867  1.00  0.00     0.211 HD
ENDBRANCH  26  28
BRANCH  26  30
HETATM   30  C   UNL     1      27.821  41.758  50.305  1.00  0.00     0.276 C 
BRANCH  30  31
HETATM   31  N   UNL     1      27.366  40.700  49.290  1.00  0.00    -0.076 N 
HETATM   32  H   UNL     1      26.950  39.911  49.798  1.00  0.00     0.279 HD
HETATM   33  C   UNL     1      26.317  41.201  48.329  1.00  0.00     0.269 C 
HETATM   34  C   UNL     1      28.545  40.130  48.544  1.00  0.00     0.269 C 
ENDBRANCH  30  31
ENDBRANCH  26  30
ENDBRANCH   1  26
TORSDOF 8
ENDMDL
MODEL 4
REMARK VINA RESULT:      -7.5      1.940      2.680
REMARK  8 active torsions:
REMARK  status: ('A' for Active; 'I' for Inactive)
REMARK    1  A    between atoms: C_2  and  O_3 
REMARK    2  A    between atoms: C_2  and  C_4 
REMARK    3  A    between atoms: C_2  and  C_29 
REMARK    4  A    between atoms: N_11  and  C_13 
REMARK    5  A    between atoms: C_13  and  C_14 
REMARK    6  A    between atoms: C_16  and  S_17 
REMARK    7  A    between atoms: S_17  and  C_18 
REMARK    8  A    between atoms: C_29  and  N_30 
ROOT
HETATM    1  C   UNL     1      27.278  42.448  51.206  1.00  0.00    -0.022 A 
HETATM    2  C   UNL     1      26.233  43.330  51.564  1.00  0.00     0.022 A 
HETATM    3  C   UNL     1      26.291  44.156  52.701  1.00  0.00     0.002 A 
HETATM    4  C   UNL     1      27.439  44.118  53.487  1.00  0.00     0.076 A 
HETATM    5  O   UNL     1      27.560  44.873  54.617  1.00  0.00    -0.349 OA
HETATM    6  C   UNL     1      27.638  46.271  54.314  1.00  0.00     0.203 C 
HETATM    7  C   UNL     1      26.249  46.915  54.310  1.00  0.00     0.262 C 
HETATM    8  N   UNL     1      25.404  46.509  53.117  1.00  0.00    -0.059 N 
HETATM    9  H   UNL     1      24.482  46.933  53.278  1.00  0.00     0.280 HD
HETATM   10  C   UNL     1      25.120  45.021  53.079  1.00  0.00     0.276 C 
HETATM   11  C   UNL     1      28.482  43.253  53.174  1.00  0.00     0.038 A 
HETATM   12  C   UNL     1      28.409  42.438  52.039  1.00  0.00     0.013 A 
ENDROOT
BRANCH   8  13
HETATM   13  C   UNL     1      25.879  47.091  51.802  1.00  0.00     0.299 C 
BRANCH  13  14
HETATM   14  C   UNL     1      24.869  47.001  50.719  1.00  0.00     0.080 A 
HETATM   15  O   UNL     1      24.312  48.174  50.304  1.00  0.00    -0.306 OA
HETATM   16  C   UNL     1      23.452  47.888  49.276  1.00  0.00     0.120 A 
HETATM   17  C   UNL     1      23.430  46.523  49.075  1.00  0.00     0.047 A 
HETATM   18  C   UNL     1      24.344  45.951  49.995  1.00  0.00     0.038 A 
BRANCH  16  19
HETATM   19  S   UNL     1      22.556  49.116  48.423  1.00  0.00    -0.025 SA
BRANCH  19  20
HETATM   20  C   UNL     1      20.998  48.777  49.093  1.00  0.00     0.197 A 
HETATM   21  N   UNL     1      20.286  49.665  49.848  1.00  0.00    -0.322 N 
HETATM   22  C   UNL     1      20.659  50.991  50.269  1.00  0.00     0.159 C 
HETATM   23  C   UNL     1      19.116  49.031  50.153  1.00  0.00     0.235 A 
HETATM   24  N   UNL     1      19.103  47.838  49.599  1.00  0.00    -0.143 NA
HETATM   25  N   UNL     1      20.295  47.676  48.937  1.00  0.00    -0.123 NA
ENDBRANCH  19  20
ENDBRANCH  16  19
ENDBRANCH  13  14
ENDBRANCH   8  13
BRANCH   1  26
HETATM   26  C   UNL     1      27.167  41.586  49.932  1.00  0.00     0.105 C 
HETATM   27  C   UNL     1      25.825  40.830  49.873  1.00  0.00     0.053 C 
BRANCH  26  28
HETATM   28  O   UNL     1      27.203  42.488  48.816  1.00  0.00    -0.384 OA
HETATM   29  H   UNL     1      28.058  42.958  48.822  1.00  0.00     0.211 HD
ENDBRANCH  26  28
BRANCH  26  30
HETATM   30  C   UNL     1      28.353  40.566  49.761  1.00  0.00     0.276 C 
BRANCH  30  31
HETATM   31  N   UNL     1      27.994  39.228  49.098  1.00  0.00    -0.076 N 
HETATM   32  H   UNL     1      26.993  39.050  49.232  1.00  0.00     0.279 HD
HETATM   33  C   UNL     1      28.242  39.209  47.610  1.00  0.00     0.269 C 
HETATM   34  C   UNL     1      28.709  38.086  49.773  1.00  0.00     0.269 C 
ENDBRANCH  30  31
ENDBRANCH  26  30
ENDBRANCH   1  26
TORSDOF 8
ENDMDL
MODEL 5
REMARK VINA RESULT:      -7.5      3.147      6.857
REMARK  8 active torsions:
REMARK  status: ('A' for Active; 'I' for Inactive)
REMARK    1  A    between atoms: C_2  and  O_3 
REMARK    2  A    between atoms: C_2  and  C_4 
REMARK    3  A    between atoms: C_2  and  C_29 
REMARK    4  A    between atoms: N_11  and  C_13 
REMARK    5  A    between atoms: C_13  and  C_14 
REMARK    6  A    between atoms: C_16  and  S_17 
REMARK    7  A    between atoms: S_17  and  C_18 
REMARK    8  A    between atoms: C_29  and  N_30 
ROOT
HETATM    1  C   UNL     1      26.152  41.327  49.739  1.00  0.00    -0.022 A 
HETATM    2  C   UNL     1      26.442  42.697  49.930  1.00  0.00     0.022 A 
HETATM    3  C   UNL     1      25.658  43.725  49.375  1.00  0.00     0.002 A 
HETATM    4  C   UNL     1      24.537  43.371  48.631  1.00  0.00     0.076 A 
HETATM    5  O   UNL     1      23.741  44.311  48.044  1.00  0.00    -0.349 OA
HETATM    6  C   UNL     1      23.030  45.087  49.016  1.00  0.00     0.203 C 
HETATM    7  C   UNL     1      23.820  46.337  49.412  1.00  0.00     0.262 C 
HETATM    8  N   UNL     1      25.038  46.032  50.264  1.00  0.00    -0.059 N 
HETATM    9  H   UNL     1      25.520  46.931  50.384  1.00  0.00     0.280 HD
HETATM   10  C   UNL     1      26.054  45.165  49.546  1.00  0.00     0.276 C 
HETATM   11  C   UNL     1      24.227  42.034  48.410  1.00  0.00     0.038 A 
HETATM   12  C   UNL     1      25.017  41.022  48.969  1.00  0.00     0.013 A 
ENDROOT
BRANCH   8  13
HETATM   13  C   UNL     1      24.703  45.575  51.669  1.00  0.00     0.299 C 
BRANCH  13  14
HETATM   14  C   UNL     1      25.625  46.117  52.699  1.00  0.00     0.080 A 
HETATM   15  O   UNL     1      26.278  45.205  53.473  1.00  0.00    -0.306 OA
HETATM   16  C   UNL     1      27.109  45.893  54.318  1.00  0.00     0.120 A 
HETATM   17  C   UNL     1      26.943  47.246  54.109  1.00  0.00     0.047 A 
HETATM   18  C   UNL     1      25.996  47.393  53.064  1.00  0.00     0.038 A 
BRANCH  16  19
HETATM   19  S   UNL     1      28.166  45.103  55.458  1.00  0.00    -0.025 SA
BRANCH  19  20
HETATM   20  C   UNL     1      29.069  44.158  54.324  1.00  0.00     0.197 A 
HETATM   21  N   UNL     1      30.168  43.419  54.656  1.00  0.00    -0.322 N 
HETATM   22  C   UNL     1      30.815  43.292  55.937  1.00  0.00     0.159 C 
HETATM   23  C   UNL     1      30.562  42.811  53.500  1.00  0.00     0.235 A 
HETATM   24  N   UNL     1      29.742  43.139  52.526  1.00  0.00    -0.143 NA
HETATM   25  N   UNL     1      28.804  43.996  53.046  1.00  0.00    -0.123 NA
ENDBRANCH  19  20
ENDBRANCH  16  19
ENDBRANCH  13  14
ENDBRANCH   8  13
BRANCH   1  26
HETATM   26  C   UNL     1      27.035  40.245  50.395  1.00  0.00     0.105 C 
HETATM   27  C   UNL     1      27.506  40.671  51.799  1.00  0.00     0.053 C 
BRANCH  26  28
HETATM   28  O   UNL     1      26.212  39.078  50.552  1.00  0.00    -0.384 OA
HETATM   29  H   UNL     1      26.060  38.931  51.504  1.00  0.00     0.211 HD
ENDBRANCH  26  28
BRANCH  26  30
HETATM   30  C   UNL     1      28.280  39.838  49.523  1.00  0.00     0.276 C 
BRANCH  30  31
HETATM   31  N   UNL     1      28.554  38.332  49.410  1.00  0.00    -0.076 N 
HETATM   32  H   UNL     1      27.743  37.819  49.774  1.00  0.00     0.279 HD
HETATM   33  C   UNL     1      28.763  37.863  47.991  1.00  0.00     0.269 C 
HETATM   34  C   UNL     1      29.717  37.931  50.282  1.00  0.00     0.269 C 
ENDBRANCH  30  31
ENDBRANCH  26  30
ENDBRANCH   1  26
TORSDOF 8
ENDMDL
MODEL 6
REMARK VINA RESULT:      -7.4      2.261      4.961
REMARK  8 active torsions:
REMARK  status: ('A' for Active; 'I' for Inactive)
REMARK    1  A    between atoms: C_2  and  O_3 
REMARK    2  A    between atoms: C_2  and  C_4 
REMARK    3  A    between atoms: C_2  and  C_29 
REMARK    4  A    between atoms: N_11  and  C_13 
REMARK    5  A    between atoms: C_13  and  C_14 
REMARK    6  A    between atoms: C_16  and  S_17 
REMARK    7  A    between atoms: S_17  and  C_18 
REMARK    8  A    between atoms: C_29  and  N_30 
ROOT
HETATM    1  C   UNL     1      28.061  44.438  53.941  1.00  0.00    -0.022 A 
HETATM    2  C   UNL     1      27.724  44.710  52.596  1.00  0.00     0.022 A 
HETATM    3  C   UNL     1      27.494  43.696  51.649  1.00  0.00     0.002 A 
HETATM    4  C   UNL     1      27.577  42.372  52.068  1.00  0.00     0.076 A 
HETATM    5  O   UNL     1      27.388  41.333  51.202  1.00  0.00    -0.349 OA
HETATM    6  C   UNL     1      26.030  41.258  50.752  1.00  0.00     0.203 C 
HETATM    7  C   UNL     1      25.827  42.064  49.467  1.00  0.00     0.262 C 
HETATM    8  N   UNL     1      25.873  43.565  49.686  1.00  0.00    -0.059 N 
HETATM    9  H   UNL     1      25.813  43.980  48.749  1.00  0.00     0.280 HD
HETATM   10  C   UNL     1      27.213  44.040  50.213  1.00  0.00     0.276 C 
HETATM   11  C   UNL     1      27.919  42.064  53.380  1.00  0.00     0.038 A 
HETATM   12  C   UNL     1      28.145  43.085  54.310  1.00  0.00     0.013 A 
ENDROOT
BRANCH   8  13
HETATM   13  C   UNL     1      24.675  44.111  50.435  1.00  0.00     0.299 C 
BRANCH  13  14
HETATM   14  C   UNL     1      24.568  45.590  50.374  1.00  0.00     0.080 A 
HETATM   15  O   UNL     1      23.921  46.111  49.293  1.00  0.00    -0.306 OA
HETATM   16  C   UNL     1      23.882  47.472  49.445  1.00  0.00     0.120 A 
HETATM   17  C   UNL     1      24.552  47.814  50.602  1.00  0.00     0.047 A 
HETATM   18  C   UNL     1      24.986  46.608  51.205  1.00  0.00     0.038 A 
BRANCH  16  19
HETATM   19  S   UNL     1      23.103  48.531  48.300  1.00  0.00    -0.025 SA
BRANCH  19  20
HETATM   20  C   UNL     1      21.476  48.304  48.841  1.00  0.00     0.197 A 
HETATM   21  N   UNL     1      20.753  49.260  49.496  1.00  0.00    -0.322 N 
HETATM   22  C   UNL     1      21.162  50.581  49.899  1.00  0.00     0.159 C 
HETATM   23  C   UNL     1      19.527  48.702  49.719  1.00  0.00     0.235 A 
HETATM   24  N   UNL     1      19.494  47.490  49.211  1.00  0.00    -0.143 NA
HETATM   25  N   UNL     1      20.728  47.236  48.665  1.00  0.00    -0.123 NA
ENDBRANCH  19  20
ENDBRANCH  16  19
ENDBRANCH  13  14
ENDBRANCH   8  13
BRANCH   1  26
HETATM   26  C   UNL     1      28.277  45.593  54.940  1.00  0.00     0.105 C 
HETATM   27  C   UNL     1      27.786  46.937  54.367  1.00  0.00     0.053 C 
BRANCH  26  28
HETATM   28  O   UNL     1      27.475  45.299  56.094  1.00  0.00    -0.384 OA
HETATM   29  H   UNL     1      27.700  45.934  56.800  1.00  0.00     0.211 HD
ENDBRANCH  26  28
BRANCH  26  30
HETATM   30  C   UNL     1      29.768  45.739  55.419  1.00  0.00     0.276 C 
BRANCH  30  31
HETATM   31  N   UNL     1      30.127  45.010  56.721  1.00  0.00    -0.076 N 
HETATM   32  H   UNL     1      29.296  44.516  57.065  1.00  0.00     0.279 HD
HETATM   33  C   UNL     1      31.209  43.972  56.552  1.00  0.00     0.269 C 
HETATM   34  C   UNL     1      30.496  45.993  57.802  1.00  0.00     0.269 C 
ENDBRANCH  30  31
ENDBRANCH  26  30
ENDBRANCH   1  26
TORSDOF 8
ENDMDL
MODEL 7
REMARK VINA RESULT:      -7.3      4.495      9.613
REMARK  8 active torsions:
REMARK  status: ('A' for Active; 'I' for Inactive)
REMARK    1  A    between atoms: C_2  and  O_3 
REMARK    2  A    between atoms: C_2  and  C_4 
REMARK    3  A    between atoms: C_2  and  C_29 
REMARK    4  A    between atoms: N_11  and  C_13 
REMARK    5  A    between atoms: C_13  and  C_14 
REMARK    6  A    between atoms: C_16  and  S_17 
REMARK    7  A    between atoms: S_17  and  C_18 
REMARK    8  A    between atoms: C_29  and  N_30 
ROOT
HETATM    1  C   UNL     1      17.770  47.294  47.547  1.00  0.00    -0.022 A 
HETATM    2  C   UNL     1      18.539  48.463  47.355  1.00  0.00     0.022 A 
HETATM    3  C   UNL     1      18.073  49.746  47.696  1.00  0.00     0.002 A 
HETATM    4  C   UNL     1      16.812  49.857  48.272  1.00  0.00     0.076 A 
HETATM    5  O   UNL     1      16.283  51.070  48.609  1.00  0.00    -0.349 OA
HETATM    6  C   UNL     1      16.993  51.674  49.697  1.00  0.00     0.203 C 
HETATM    7  C   UNL     1      18.126  52.568  49.190  1.00  0.00     0.262 C 
HETATM    8  N   UNL     1      19.292  51.789  48.611  1.00  0.00    -0.059 N 
HETATM    9  H   UNL     1      19.933  52.497  48.234  1.00  0.00     0.280 HD
HETATM   10  C   UNL     1      18.903  50.965  47.400  1.00  0.00     0.276 C 
HETATM   11  C   UNL     1      16.020  48.731  48.465  1.00  0.00     0.038 A 
HETATM   12  C   UNL     1      16.498  47.462  48.120  1.00  0.00     0.013 A 
ENDROOT
BRANCH   8  13
HETATM   13  C   UNL     1      20.102  51.039  49.647  1.00  0.00     0.299 C 
BRANCH  13  14
HETATM   14  C   UNL     1      21.273  50.326  49.076  1.00  0.00     0.080 A 
HETATM   15  O   UNL     1      21.340  48.984  49.304  1.00  0.00    -0.306 OA
HETATM   16  C   UNL     1      22.452  48.506  48.661  1.00  0.00     0.120 A 
HETATM   17  C   UNL     1      23.115  49.561  48.067  1.00  0.00     0.047 A 
HETATM   18  C   UNL     1      22.356  50.730  48.326  1.00  0.00     0.038 A 
BRANCH  16  19
HETATM   19  S   UNL     1      22.893  46.820  48.658  1.00  0.00    -0.025 SA
BRANCH  19  20
HETATM   20  C   UNL     1      24.220  46.923  49.762  1.00  0.00     0.197 A 
HETATM   21  N   UNL     1      25.173  45.954  49.898  1.00  0.00    -0.322 N 
HETATM   22  C   UNL     1      25.268  44.684  49.226  1.00  0.00     0.159 C 
HETATM   23  C   UNL     1      26.044  46.427  50.836  1.00  0.00     0.235 A 
HETATM   24  N   UNL     1      25.662  47.621  51.233  1.00  0.00    -0.143 NA
HETATM   25  N   UNL     1      24.506  47.930  50.560  1.00  0.00    -0.123 NA
ENDBRANCH  19  20
ENDBRANCH  16  19
ENDBRANCH  13  14
ENDBRANCH   8  13
BRANCH   1  26
HETATM   26  C   UNL     1      18.346  45.912  47.177  1.00  0.00     0.105 C 
HETATM   27  C   UNL     1      19.321  45.397  48.254  1.00  0.00     0.053 C 
BRANCH  26  28
HETATM   28  O   UNL     1      17.238  45.000  47.129  1.00  0.00    -0.384 OA
HETATM   29  H   UNL     1      16.410  45.516  47.123  1.00  0.00     0.211 HD
ENDBRANCH  26  28
BRANCH  26  30
HETATM   30  C   UNL     1      19.051  45.882  45.771  1.00  0.00     0.276 C 
BRANCH  30  31
HETATM   31  N   UNL     1      20.177  44.852  45.609  1.00  0.00    -0.076 N 
HETATM   32  H   UNL     1      20.439  44.499  46.536  1.00  0.00     0.279 HD
HETATM   33  C   UNL     1      19.780  43.652  44.784  1.00  0.00     0.269 C 
HETATM   34  C   UNL     1      21.419  45.497  45.050  1.00  0.00     0.269 C 
ENDBRANCH  30  31
ENDBRANCH  26  30
ENDBRANCH   1  26
TORSDOF 8
ENDMDL
MODEL 8
REMARK VINA RESULT:      -7.2     10.268     14.245
REMARK  8 active torsions:
REMARK  status: ('A' for Active; 'I' for Inactive)
REMARK    1  A    between atoms: C_2  and  O_3 
REMARK    2  A    between atoms: C_2  and  C_4 
REMARK    3  A    between atoms: C_2  and  C_29 
REMARK    4  A    between atoms: N_11  and  C_13 
REMARK    5  A    between atoms: C_13  and  C_14 
REMARK    6  A    between atoms: C_16  and  S_17 
REMARK    7  A    between atoms: S_17  and  C_18 
REMARK    8  A    between atoms: C_29  and  N_30 
ROOT
HETATM    1  C   UNL     1      30.048  52.110  40.333  1.00  0.00    -0.022 A 
HETATM    2  C   UNL     1      29.325  51.064  40.949  1.00  0.00     0.022 A 
HETATM    3  C   UNL     1      28.224  50.436  40.338  1.00  0.00     0.002 A 
HETATM    4  C   UNL     1      27.855  50.849  39.062  1.00  0.00     0.076 A 
HETATM    5  O   UNL     1      26.785  50.303  38.413  1.00  0.00    -0.349 OA
HETATM    6  C   UNL     1      27.021  48.935  38.060  1.00  0.00     0.203 C 
HETATM    7  C   UNL     1      26.542  47.988  39.163  1.00  0.00     0.262 C 
HETATM    8  N   UNL     1      27.419  48.018  40.401  1.00  0.00    -0.059 N 
HETATM    9  H   UNL     1      26.947  47.415  41.085  1.00  0.00     0.280 HD
HETATM   10  C   UNL     1      27.443  49.379  41.069  1.00  0.00     0.276 C 
HETATM   11  C   UNL     1      28.533  51.885  38.429  1.00  0.00     0.038 A 
HETATM   12  C   UNL     1      29.626  52.499  39.050  1.00  0.00     0.013 A 
ENDROOT
BRANCH   8  13
HETATM   13  C   UNL     1      28.783  47.392  40.201  1.00  0.00     0.299 C 
BRANCH  13  14
HETATM   14  C   UNL     1      28.722  45.988  39.723  1.00  0.00     0.080 A 
HETATM   15  O   UNL     1      27.835  45.167  40.353  1.00  0.00    -0.306 OA
HETATM   16  C   UNL     1      27.891  43.943  39.741  1.00  0.00     0.120 A 
HETATM   17  C   UNL     1      28.854  43.978  38.753  1.00  0.00     0.047 A 
HETATM   18  C   UNL     1      29.383  45.292  38.734  1.00  0.00     0.038 A 
BRANCH  16  19
HETATM   19  S   UNL     1      26.880  42.602  40.211  1.00  0.00    -0.025 SA
BRANCH  19  20
HETATM   20  C   UNL     1      27.970  41.872  41.338  1.00  0.00     0.197 A 
HETATM   21  N   UNL     1      27.704  41.733  42.671  1.00  0.00    -0.322 N 
HETATM   22  C   UNL     1      26.548  42.171  43.409  1.00  0.00     0.159 C 
HETATM   23  C   UNL     1      28.789  41.091  43.195  1.00  0.00     0.235 A 
HETATM   24  N   UNL     1      29.653  40.832  42.238  1.00  0.00    -0.143 NA
HETATM   25  N   UNL     1      29.139  41.332  41.068  1.00  0.00    -0.123 NA
ENDBRANCH  19  20
ENDBRANCH  16  19
ENDBRANCH  13  14
ENDBRANCH   8  13
BRANCH   1  26
HETATM   26  C   UNL     1      31.263  52.741  41.043  1.00  0.00     0.105 C 
HETATM   27  C   UNL     1      32.583  52.386  40.331  1.00  0.00     0.053 C 
BRANCH  26  28
HETATM   28  O   UNL     1      31.098  54.165  40.959  1.00  0.00    -0.384 OA
HETATM   29  H   UNL     1      30.335  54.423  41.509  1.00  0.00     0.211 HD
ENDBRANCH  26  28
BRANCH  26  30
HETATM   30  C   UNL     1      31.367  52.360  42.565  1.00  0.00     0.276 C 
BRANCH  30  31
HETATM   31  N   UNL     1      32.506  51.401  42.938  1.00  0.00    -0.076 N 
HETATM   32  H   UNL     1      33.158  51.337  42.148  1.00  0.00     0.279 HD
HETATM   33  C   UNL     1      33.312  51.858  44.129  1.00  0.00     0.269 C 
HETATM   34  C   UNL     1      31.983  50.004  43.152  1.00  0.00     0.269 C 
ENDBRANCH  30  31
ENDBRANCH  26  30
ENDBRANCH   1  26
TORSDOF 8
ENDMDL
MODEL 9
REMARK VINA RESULT:      -7.2      2.210      5.118
REMARK  8 active torsions:
REMARK  status: ('A' for Active; 'I' for Inactive)
REMARK    1  A    between atoms: C_2  and  O_3 
REMARK    2  A    between atoms: C_2  and  C_4 
REMARK    3  A    between atoms: C_2  and  C_29 
REMARK    4  A    between atoms: N_11  and  C_13 
REMARK    5  A    between atoms: C_13  and  C_14 
REMARK    6  A    between atoms: C_16  and  S_17 
REMARK    7  A    between atoms: S_17  and  C_18 
REMARK    8  A    between atoms: C_29  and  N_30 
ROOT
HETATM    1  C   UNL     1      27.361  44.316  53.274  1.00  0.00    -0.022 A 
HETATM    2  C   UNL     1      27.091  44.437  51.892  1.00  0.00     0.022 A 
HETATM    3  C   UNL     1      27.155  43.347  51.005  1.00  0.00     0.002 A 
HETATM    4  C   UNL     1      27.471  42.095  51.522  1.00  0.00     0.076 A 
HETATM    5  O   UNL     1      27.573  40.994  50.721  1.00  0.00    -0.349 OA
HETATM    6  C   UNL     1      26.303  40.611  50.181  1.00  0.00     0.203 C 
HETATM    7  C   UNL     1      26.050  41.285  48.831  1.00  0.00     0.262 C 
HETATM    8  N   UNL     1      25.768  42.772  48.945  1.00  0.00    -0.059 N 
HETATM    9  H   UNL     1      25.704  43.114  47.979  1.00  0.00     0.280 HD
HETATM   10  C   UNL     1      26.932  43.546  49.532  1.00  0.00     0.276 C 
HETATM   11  C   UNL     1      27.756  41.938  52.873  1.00  0.00     0.038 A 
HETATM   12  C   UNL     1      27.688  43.032  53.743  1.00  0.00     0.013 A 
ENDROOT
BRANCH   8  13
HETATM   13  C   UNL     1      24.424  43.094  49.565  1.00  0.00     0.299 C 
BRANCH  13  14
HETATM   14  C   UNL     1      23.794  44.314  49.002  1.00  0.00     0.080 A 
HETATM   15  O   UNL     1      23.935  45.462  49.723  1.00  0.00    -0.306 OA
HETATM   16  C   UNL     1      23.335  46.474  49.021  1.00  0.00     0.120 A 
HETATM   17  C   UNL     1      22.769  45.952  47.875  1.00  0.00     0.047 A 
HETATM   18  C   UNL     1      23.069  44.566  47.857  1.00  0.00     0.038 A 
BRANCH  16  19
HETATM   19  S   UNL     1      23.321  48.129  49.569  1.00  0.00    -0.025 SA
BRANCH  19  20
HETATM   20  C   UNL     1      24.993  48.479  49.296  1.00  0.00     0.197 A 
HETATM   21  N   UNL     1      25.435  49.491  48.491  1.00  0.00    -0.322 N 
HETATM   22  C   UNL     1      24.665  50.415  47.700  1.00  0.00     0.159 C 
HETATM   23  C   UNL     1      26.797  49.449  48.567  1.00  0.00     0.235 A 
HETATM   24  N   UNL     1      27.165  48.488  49.386  1.00  0.00    -0.143 NA
HETATM   25  N   UNL     1      26.025  47.872  49.839  1.00  0.00    -0.123 NA
ENDBRANCH  19  20
ENDBRANCH  16  19
ENDBRANCH  13  14
ENDBRANCH   8  13
BRANCH   1  26
HETATM   26  C   UNL     1      27.249  45.543  54.201  1.00  0.00     0.105 C 
HETATM   27  C   UNL     1      26.592  46.738  53.483  1.00  0.00     0.053 C 
BRANCH  26  28
HETATM   28  O   UNL     1      26.388  45.167  55.286  1.00  0.00    -0.384 OA
HETATM   29  H   UNL     1      26.313  44.194  55.302  1.00  0.00     0.211 HD
ENDBRANCH  26  28
BRANCH  26  30
HETATM   30  C   UNL     1      28.626  45.992  54.816  1.00  0.00     0.276 C 
BRANCH  30  31
HETATM   31  N   UNL     1      29.075  45.233  56.074  1.00  0.00    -0.076 N 
HETATM   32  H   UNL     1      28.378  44.513  56.292  1.00  0.00     0.279 HD
HETATM   33  C   UNL     1      30.396  44.524  55.908  1.00  0.00     0.269 C 
HETATM   34  C   UNL     1      29.107  46.149  57.270  1.00  0.00     0.269 C 
ENDBRANCH  30  31
ENDBRANCH  26  30
ENDBRANCH   1  26
TORSDOF 8
ENDMDL
MODEL 10
REMARK VINA RESULT:      -7.1      2.185      3.279
REMARK  8 active torsions:
REMARK  status: ('A' for Active; 'I' for Inactive)
REMARK    1  A    between atoms: C_2  and  O_3 
REMARK    2  A    between atoms: C_2  and  C_4 
REMARK    3  A    between atoms: C_2  and  C_29 
REMARK    4  A    between atoms: N_11  and  C_13 
REMARK    5  A    between atoms: C_13  and  C_14 
REMARK    6  A    between atoms: C_16  and  S_17 
REMARK    7  A    between atoms: S_17  and  C_18 
REMARK    8  A    between atoms: C_29  and  N_30 
ROOT
HETATM    1  C   UNL     1      26.617  41.851  50.426  1.00  0.00    -0.022 A 
HETATM    2  C   UNL     1      25.726  42.939  50.289  1.00  0.00     0.022 A 
HETATM    3  C   UNL     1      25.537  43.901  51.297  1.00  0.00     0.002 A 
HETATM    4  C   UNL     1      26.283  43.785  52.466  1.00  0.00     0.076 A 
HETATM    5  O   UNL     1      26.139  44.667  53.498  1.00  0.00    -0.349 OA
HETATM    6  C   UNL     1      26.616  45.972  53.150  1.00  0.00     0.203 C 
HETATM    7  C   UNL     1      25.496  46.833  52.563  1.00  0.00     0.262 C 
HETATM    8  N   UNL     1      25.079  46.405  51.168  1.00  0.00    -0.059 N 
HETATM    9  H   UNL     1      24.275  46.997  50.929  1.00  0.00     0.280 HD
HETATM   10  C   UNL     1      24.521  44.996  51.129  1.00  0.00     0.276 C 
HETATM   11  C   UNL     1      27.160  42.721  52.644  1.00  0.00     0.038 A 
HETATM   12  C   UNL     1      27.336  41.772  51.631  1.00  0.00     0.013 A 
ENDROOT
BRANCH   8  13
HETATM   13  C   UNL     1      26.114  46.700  50.102  1.00  0.00     0.299 C 
BRANCH  13  14
HETATM   14  C   UNL     1      25.893  47.994  49.409  1.00  0.00     0.080 A 
HETATM   15  O   UNL     1      24.653  48.198  48.881  1.00  0.00    -0.306 OA
HETATM   16  C   UNL     1      24.633  49.454  48.334  1.00  0.00     0.120 A 
HETATM   17  C   UNL     1      25.882  50.025  48.475  1.00  0.00     0.047 A 
HETATM   18  C   UNL     1      26.690  49.093  49.171  1.00  0.00     0.038 A 
BRANCH  16  19
HETATM   19  S   UNL     1      23.216  50.139  47.585  1.00  0.00    -0.025 SA
BRANCH  19  20
HETATM   20  C   UNL     1      22.375  50.577  49.032  1.00  0.00     0.197 A 
HETATM   21  N   UNL     1      21.025  50.446  49.195  1.00  0.00    -0.322 N 
HETATM   22  C   UNL     1      20.044  49.981  48.248  1.00  0.00     0.159 C 
HETATM   23  C   UNL     1      20.768  50.868  50.467  1.00  0.00     0.235 A 
HETATM   24  N   UNL     1      21.893  51.214  51.054  1.00  0.00    -0.143 NA
HETATM   25  N   UNL     1      22.905  51.037  50.144  1.00  0.00    -0.123 NA
ENDBRANCH  19  20
ENDBRANCH  16  19
ENDBRANCH  13  14
ENDBRANCH   8  13
BRANCH   1  26
HETATM   26  C   UNL     1      26.800  40.842  49.274  1.00  0.00     0.105 C 
HETATM   27  C   UNL     1      25.519  40.708  48.428  1.00  0.00     0.053 C 
BRANCH  26  28
HETATM   28  O   UNL     1      27.827  41.369  48.420  1.00  0.00    -0.384 OA
HETATM   29  H   UNL     1      27.421  41.640  47.575  1.00  0.00     0.211 HD
ENDBRANCH  26  28
BRANCH  26  30
HETATM   30  C   UNL     1      27.263  39.418  49.755  1.00  0.00     0.276 C 
BRANCH  30  31
HETATM   31  N   UNL     1      28.709  39.032  49.409  1.00  0.00    -0.076 N 
HETATM   32  H   UNL     1      29.190  39.856  49.032  1.00  0.00     0.279 HD
HETATM   33  C   UNL     1      29.510  38.570  50.601  1.00  0.00     0.269 C 
HETATM   34  C   UNL     1      28.740  37.999  48.312  1.00  0.00     0.269 C 
ENDBRANCH  30  31
ENDBRANCH  26  30
ENDBRANCH   1  26
TORSDOF 8
ENDMDL
