MODEL 1
REMARK VINA RESULT:      -7.7      0.000      0.000
REMARK  7 active torsions:
REMARK  status: ('A' for Active; 'I' for Inactive)
REMARK    1  A    between atoms: O_2  and  C_3 
REMARK    2  A    between atoms: C_4  and  C_5 
REMARK    3  A    between atoms: C_5  and  N_6 
REMARK    4  A    between atoms: N_6  and  C_7 
REMARK    5  A    between atoms: C_9  and  N_10 
REMARK    6  A    between atoms: N_10  and  C_11 
REMARK    7  A    between atoms: C_11  and  C_12 
ROOT
HETATM    1  C   UNL     1      25.027  44.858  52.315  1.00  0.00     0.181 A 
HETATM    2  N   UNL     1      25.594  43.713  52.707  1.00  0.00    -0.207 NA
HETATM    3  C   UNL     1      26.638  43.812  53.551  1.00  0.00     0.119 A 
HETATM    4  C   UNL     1      27.080  45.047  54.074  1.00  0.00     0.031 A 
HETATM    5  C   UNL     1      26.411  46.198  53.612  1.00  0.00     0.048 A 
HETATM    6  N   UNL     1      25.410  46.054  52.740  1.00  0.00    -0.330 N 
HETATM    7  H   UNL     1      24.886  46.840  52.378  1.00  0.00     0.168 HD
HETATM    8  C   UNL     1      28.103  45.226  55.034  1.00  0.00     0.017 A 
HETATM    9  C   UNL     1      28.463  46.501  55.476  1.00  0.00     0.001 A 
HETATM   10  C   UNL     1      27.807  47.625  54.984  1.00  0.00     0.002 A 
HETATM   11  C   UNL     1      26.776  47.476  54.057  1.00  0.00     0.030 A 
ENDROOT
BRANCH   1  12
HETATM   12  N   UNL     1      23.967  44.861  51.411  1.00  0.00    -0.258 NA
HETATM   13  H   UNL     1      23.643  43.887  51.381  1.00  0.00     0.130 HD
BRANCH  12  14
HETATM   14  C   UNL     1      24.493  45.088  50.046  1.00  0.00     0.136 C 
BRANCH  14  15
HETATM   15  C   UNL     1      23.767  46.231  49.370  1.00  0.00    -0.012 A 
HETATM   16  C   UNL     1      24.132  47.566  49.647  1.00  0.00     0.075 A 
HETATM   17  C   UNL     1      23.387  48.617  49.101  1.00  0.00     0.037 A 
HETATM   18  C   UNL     1      22.284  48.356  48.286  1.00  0.00     0.003 A 
HETATM   19  C   UNL     1      21.915  47.045  48.011  1.00  0.00     0.001 A 
HETATM   20  C   UNL     1      22.646  45.991  48.553  1.00  0.00     0.011 A 
BRANCH  16  21
HETATM   21  O   UNL     1      25.212  47.731  50.476  1.00  0.00    -0.355 OA
HETATM   22  C   UNL     1      26.437  48.142  49.876  1.00  0.00     0.210 C 
ENDBRANCH  16  21
ENDBRANCH  14  15
ENDBRANCH  12  14
ENDBRANCH   1  12
BRANCH   3  23
HETATM   23  N   UNL     1      27.240  42.591  53.859  1.00  0.00    -0.273 NA
HETATM   24  H   UNL     1      26.487  41.992  54.202  1.00  0.00     0.129 HD
BRANCH  23  25
HETATM   25  C   UNL     1      27.892  41.940  52.721  1.00  0.00     0.120 C 
BRANCH  25  26
HETATM   26  C   UNL     1      29.169  42.673  52.444  1.00  0.00    -0.022 C 
HETATM   27  C   UNL     1      30.222  42.715  53.271  1.00  0.00     0.008 C 
ENDBRANCH  25  26
ENDBRANCH  23  25
ENDBRANCH   3  23
TORSDOF 7
ENDMDL
MODEL 2
REMARK VINA RESULT:      -7.6      3.329      7.887
REMARK  7 active torsions:
REMARK  status: ('A' for Active; 'I' for Inactive)
REMARK    1  A    between atoms: O_2  and  C_3 
REMARK    2  A    between atoms: C_4  and  C_5 
REMARK    3  A    between atoms: C_5  and  N_6 
REMARK    4  A    between atoms: N_6  and  C_7 
REMARK    5  A    between atoms: C_9  and  N_10 
REMARK    6  A    between atoms: N_10  and  C_11 
REMARK    7  A    between atoms: C_11  and  C_12 
ROOT
HETATM    1  C   UNL     1      28.348  41.299  51.780  1.00  0.00     0.181 A 
HETATM    2  N   UNL     1      27.653  42.137  51.005  1.00  0.00    -0.207 NA
HETATM    3  C   UNL     1      27.453  41.756  49.730  1.00  0.00     0.119 A 
HETATM    4  C   UNL     1      27.876  40.503  49.233  1.00  0.00     0.031 A 
HETATM    5  C   UNL     1      28.588  39.683  50.130  1.00  0.00     0.048 A 
HETATM    6  N   UNL     1      28.802  40.122  51.373  1.00  0.00    -0.330 N 
HETATM    7  H   UNL     1      29.299  39.577  52.065  1.00  0.00     0.168 HD
HETATM    8  C   UNL     1      27.622  39.993  47.939  1.00  0.00     0.017 A 
HETATM    9  C   UNL     1      28.096  38.737  47.553  1.00  0.00     0.001 A 
HETATM   10  C   UNL     1      28.823  37.957  48.447  1.00  0.00     0.002 A 
HETATM   11  C   UNL     1      29.064  38.424  49.738  1.00  0.00     0.030 A 
ENDROOT
BRANCH   1  12
HETATM   12  N   UNL     1      28.642  41.623  53.103  1.00  0.00    -0.258 NA
HETATM   13  H   UNL     1      27.904  42.278  53.385  1.00  0.00     0.130 HD
BRANCH  12  14
HETATM   14  C   UNL     1      29.868  42.451  53.141  1.00  0.00     0.136 C 
BRANCH  14  15
HETATM   15  C   UNL     1      29.844  43.400  54.320  1.00  0.00    -0.012 A 
HETATM   16  C   UNL     1      28.912  44.457  54.361  1.00  0.00     0.075 A 
HETATM   17  C   UNL     1      28.967  45.392  55.401  1.00  0.00     0.037 A 
HETATM   18  C   UNL     1      29.939  45.288  56.397  1.00  0.00     0.003 A 
HETATM   19  C   UNL     1      30.864  44.251  56.363  1.00  0.00     0.001 A 
HETATM   20  C   UNL     1      30.822  43.318  55.329  1.00  0.00     0.011 A 
BRANCH  16  21
HETATM   21  O   UNL     1      28.009  44.499  53.330  1.00  0.00    -0.355 OA
HETATM   22  C   UNL     1      26.867  45.335  53.497  1.00  0.00     0.210 C 
ENDBRANCH  16  21
ENDBRANCH  14  15
ENDBRANCH  12  14
ENDBRANCH   1  12
BRANCH   3  23
HETATM   23  N   UNL     1      26.795  42.708  48.947  1.00  0.00    -0.273 NA
HETATM   24  H   UNL     1      26.416  42.193  48.151  1.00  0.00     0.129 HD
BRANCH  23  25
HETATM   25  C   UNL     1      25.705  43.401  49.636  1.00  0.00     0.120 C 
BRANCH  25  26
HETATM   26  C   UNL     1      25.848  44.867  49.360  1.00  0.00    -0.022 C 
HETATM   27  C   UNL     1      26.872  45.626  49.771  1.00  0.00     0.008 C 
ENDBRANCH  25  26
ENDBRANCH  23  25
ENDBRANCH   3  23
TORSDOF 7
ENDMDL
MODEL 3
REMARK VINA RESULT:      -7.6      2.771      7.038
REMARK  7 active torsions:
REMARK  status: ('A' for Active; 'I' for Inactive)
REMARK    1  A    between atoms: O_2  and  C_3 
REMARK    2  A    between atoms: C_4  and  C_5 
REMARK    3  A    between atoms: C_5  and  N_6 
REMARK    4  A    between atoms: N_6  and  C_7 
REMARK    5  A    between atoms: C_9  and  N_10 
REMARK    6  A    between atoms: N_10  and  C_11 
REMARK    7  A    between atoms: C_11  and  C_12 
ROOT
HETATM    1  C   UNL     1      27.718  43.464  52.669  1.00  0.00     0.181 A 
HETATM    2  N   UNL     1      27.784  42.850  51.484  1.00  0.00    -0.207 NA
HETATM    3  C   UNL     1      27.100  43.413  50.471  1.00  0.00     0.119 A 
HETATM    4  C   UNL     1      26.404  44.635  50.607  1.00  0.00     0.031 A 
HETATM    5  C   UNL     1      26.403  45.214  51.891  1.00  0.00     0.048 A 
HETATM    6  N   UNL     1      27.059  44.596  52.877  1.00  0.00    -0.330 N 
HETATM    7  H   UNL     1      27.102  44.966  53.817  1.00  0.00     0.168 HD
HETATM    8  C   UNL     1      25.743  45.335  49.571  1.00  0.00     0.017 A 
HETATM    9  C   UNL     1      25.079  46.538  49.824  1.00  0.00     0.001 A 
HETATM   10  C   UNL     1      25.067  47.076  51.107  1.00  0.00     0.002 A 
HETATM   11  C   UNL     1      25.734  46.420  52.141  1.00  0.00     0.030 A 
ENDROOT
BRANCH   1  12
HETATM   12  N   UNL     1      28.359  42.937  53.787  1.00  0.00    -0.258 NA
HETATM   13  H   UNL     1      27.905  43.390  54.589  1.00  0.00     0.130 HD
BRANCH  12  14
HETATM   14  C   UNL     1      29.745  43.455  53.842  1.00  0.00     0.136 C 
BRANCH  14  15
HETATM   15  C   UNL     1      30.100  43.904  55.244  1.00  0.00    -0.012 A 
HETATM   16  C   UNL     1      29.604  45.126  55.744  1.00  0.00     0.075 A 
HETATM   17  C   UNL     1      30.023  45.584  56.998  1.00  0.00     0.037 A 
HETATM   18  C   UNL     1      30.928  44.842  57.757  1.00  0.00     0.003 A 
HETATM   19  C   UNL     1      31.425  43.639  57.272  1.00  0.00     0.001 A 
HETATM   20  C   UNL     1      31.019  43.175  56.022  1.00  0.00     0.011 A 
BRANCH  16  21
HETATM   21  O   UNL     1      28.739  45.802  54.922  1.00  0.00    -0.355 OA
HETATM   22  C   UNL     1      28.064  46.929  55.473  1.00  0.00     0.210 C 
ENDBRANCH  16  21
ENDBRANCH  14  15
ENDBRANCH  12  14
ENDBRANCH   1  12
BRANCH   3  23
HETATM   23  N   UNL     1      27.138  42.682  49.282  1.00  0.00    -0.273 NA
HETATM   24  H   UNL     1      28.125  42.630  49.023  1.00  0.00     0.129 HD
BRANCH  23  25
HETATM   25  C   UNL     1      26.598  41.326  49.393  1.00  0.00     0.120 C 
BRANCH  25  26
HETATM   26  C   UNL     1      25.109  41.411  49.237  1.00  0.00    -0.022 C 
HETATM   27  C   UNL     1      24.481  41.962  48.190  1.00  0.00     0.008 C 
ENDBRANCH  25  26
ENDBRANCH  23  25
ENDBRANCH   3  23
TORSDOF 7
ENDMDL
MODEL 4
REMARK VINA RESULT:      -7.5      3.127      6.021
REMARK  7 active torsions:
REMARK  status: ('A' for Active; 'I' for Inactive)
REMARK    1  A    between atoms: O_2  and  C_3 
REMARK    2  A    between atoms: C_4  and  C_5 
REMARK    3  A    between atoms: C_5  and  N_6 
REMARK    4  A    between atoms: N_6  and  C_7 
REMARK    5  A    between atoms: C_9  and  N_10 
REMARK    6  A    between atoms: N_10  and  C_11 
REMARK    7  A    between atoms: C_11  and  C_12 
ROOT
HETATM    1  C   UNL     1      29.747  43.320  53.751  1.00  0.00     0.181 A 
HETATM    2  N   UNL     1      28.850  44.311  53.744  1.00  0.00    -0.207 NA
HETATM    3  C   UNL     1      28.791  45.083  54.845  1.00  0.00     0.119 A 
HETATM    4  C   UNL     1      29.676  44.924  55.935  1.00  0.00     0.031 A 
HETATM    5  C   UNL     1      30.595  43.860  55.845  1.00  0.00     0.048 A 
HETATM    6  N   UNL     1      30.587  43.093  54.752  1.00  0.00    -0.330 N 
HETATM    7  H   UNL     1      31.227  42.321  54.624  1.00  0.00     0.168 HD
HETATM    8  C   UNL     1      29.739  45.750  57.081  1.00  0.00     0.017 A 
HETATM    9  C   UNL     1      30.655  45.494  58.105  1.00  0.00     0.001 A 
HETATM   10  C   UNL     1      31.534  44.420  58.006  1.00  0.00     0.002 A 
HETATM   11  C   UNL     1      31.511  43.606  56.875  1.00  0.00     0.030 A 
ENDROOT
BRANCH   1  12
HETATM   12  N   UNL     1      29.856  42.443  52.675  1.00  0.00    -0.258 NA
HETATM   13  H   UNL     1      29.654  43.015  51.847  1.00  0.00     0.130 HD
BRANCH  12  14
HETATM   14  C   UNL     1      28.728  41.485  52.711  1.00  0.00     0.136 C 
BRANCH  14  15
HETATM   15  C   UNL     1      28.296  41.104  51.312  1.00  0.00    -0.012 A 
HETATM   16  C   UNL     1      27.427  41.943  50.584  1.00  0.00     0.075 A 
HETATM   17  C   UNL     1      26.949  41.532  49.335  1.00  0.00     0.037 A 
HETATM   18  C   UNL     1      27.323  40.297  48.804  1.00  0.00     0.003 A 
HETATM   19  C   UNL     1      28.176  39.461  49.515  1.00  0.00     0.001 A 
HETATM   20  C   UNL     1      28.654  39.858  50.762  1.00  0.00     0.011 A 
BRANCH  16  21
HETATM   21  O   UNL     1      27.091  43.126  51.190  1.00  0.00    -0.355 OA
HETATM   22  C   UNL     1      27.347  44.326  50.465  1.00  0.00     0.210 C 
ENDBRANCH  16  21
ENDBRANCH  14  15
ENDBRANCH  12  14
ENDBRANCH   1  12
BRANCH   3  23
HETATM   23  N   UNL     1      27.781  46.046  54.813  1.00  0.00    -0.273 NA
HETATM   24  H   UNL     1      28.226  46.899  54.471  1.00  0.00     0.129 HD
BRANCH  23  25
HETATM   25  C   UNL     1      26.656  45.706  53.940  1.00  0.00     0.120 C 
BRANCH  25  26
HETATM   26  C   UNL     1      26.177  46.971  53.296  1.00  0.00    -0.022 C 
HETATM   27  C   UNL     1      25.453  47.030  52.170  1.00  0.00     0.008 C 
ENDBRANCH  25  26
ENDBRANCH  23  25
ENDBRANCH   3  23
TORSDOF 7
ENDMDL
MODEL 5
REMARK VINA RESULT:      -7.5      1.504      2.561
REMARK  7 active torsions:
REMARK  status: ('A' for Active; 'I' for Inactive)
REMARK    1  A    between atoms: O_2  and  C_3 
REMARK    2  A    between atoms: C_4  and  C_5 
REMARK    3  A    between atoms: C_5  and  N_6 
REMARK    4  A    between atoms: N_6  and  C_7 
REMARK    5  A    between atoms: C_9  and  N_10 
REMARK    6  A    between atoms: N_10  and  C_11 
REMARK    7  A    between atoms: C_11  and  C_12 
ROOT
HETATM    1  C   UNL     1      25.320  46.147  52.178  1.00  0.00     0.181 A 
HETATM    2  N   UNL     1      25.463  44.821  52.101  1.00  0.00    -0.207 NA
HETATM    3  C   UNL     1      26.401  44.265  52.891  1.00  0.00     0.119 A 
HETATM    4  C   UNL     1      27.155  45.015  53.821  1.00  0.00     0.031 A 
HETATM    5  C   UNL     1      26.924  46.405  53.838  1.00  0.00     0.048 A 
HETATM    6  N   UNL     1      26.015  46.917  53.005  1.00  0.00    -0.330 N 
HETATM    7  H   UNL     1      25.798  47.904  52.976  1.00  0.00     0.168 HD
HETATM    8  C   UNL     1      28.088  44.494  54.747  1.00  0.00     0.017 A 
HETATM    9  C   UNL     1      28.784  45.334  55.620  1.00  0.00     0.001 A 
HETATM   10  C   UNL     1      28.559  46.708  55.599  1.00  0.00     0.002 A 
HETATM   11  C   UNL     1      27.626  47.244  54.714  1.00  0.00     0.030 A 
ENDROOT
BRANCH   1  12
HETATM   12  N   UNL     1      24.404  46.818  51.372  1.00  0.00    -0.258 NA
HETATM   13  H   UNL     1      23.544  46.260  51.428  1.00  0.00     0.130 HD
BRANCH  12  14
HETATM   14  C   UNL     1      24.809  46.679  49.955  1.00  0.00     0.136 C 
BRANCH  14  15
HETATM   15  C   UNL     1      25.507  47.930  49.466  1.00  0.00    -0.012 A 
HETATM   16  C   UNL     1      24.780  48.927  48.783  1.00  0.00     0.075 A 
HETATM   17  C   UNL     1      25.452  50.028  48.242  1.00  0.00     0.037 A 
HETATM   18  C   UNL     1      26.837  50.147  48.369  1.00  0.00     0.003 A 
HETATM   19  C   UNL     1      27.562  49.168  49.038  1.00  0.00     0.001 A 
HETATM   20  C   UNL     1      26.904  48.065  49.576  1.00  0.00     0.011 A 
BRANCH  16  21
HETATM   21  O   UNL     1      23.429  48.718  48.681  1.00  0.00    -0.355 OA
HETATM   22  C   UNL     1      22.637  49.799  48.195  1.00  0.00     0.210 C 
ENDBRANCH  16  21
ENDBRANCH  14  15
ENDBRANCH  12  14
ENDBRANCH   1  12
BRANCH   3  23
HETATM   23  N   UNL     1      26.561  42.891  52.706  1.00  0.00    -0.273 NA
HETATM   24  H   UNL     1      25.628  42.532  52.495  1.00  0.00     0.129 HD
BRANCH  23  25
HETATM   25  C   UNL     1      27.472  42.534  51.617  1.00  0.00     0.120 C 
BRANCH  25  26
HETATM   26  C   UNL     1      28.367  41.437  52.108  1.00  0.00    -0.022 C 
HETATM   27  C   UNL     1      28.471  41.050  53.386  1.00  0.00     0.008 C 
ENDBRANCH  25  26
ENDBRANCH  23  25
ENDBRANCH   3  23
TORSDOF 7
ENDMDL
MODEL 6
REMARK VINA RESULT:      -7.5      2.088      7.458
REMARK  7 active torsions:
REMARK  status: ('A' for Active; 'I' for Inactive)
REMARK    1  A    between atoms: O_2  and  C_3 
REMARK    2  A    between atoms: C_4  and  C_5 
REMARK    3  A    between atoms: C_5  and  N_6 
REMARK    4  A    between atoms: N_6  and  C_7 
REMARK    5  A    between atoms: C_9  and  N_10 
REMARK    6  A    between atoms: N_10  and  C_11 
REMARK    7  A    between atoms: C_11  and  C_12 
ROOT
HETATM    1  C   UNL     1      26.023  46.336  52.596  1.00  0.00     0.181 A 
HETATM    2  N   UNL     1      25.459  47.354  51.939  1.00  0.00    -0.207 NA
HETATM    3  C   UNL     1      24.681  47.038  50.887  1.00  0.00     0.119 A 
HETATM    4  C   UNL     1      24.395  45.703  50.524  1.00  0.00     0.031 A 
HETATM    5  C   UNL     1      25.025  44.699  51.285  1.00  0.00     0.048 A 
HETATM    6  N   UNL     1      25.824  45.060  52.292  1.00  0.00    -0.330 N 
HETATM    7  H   UNL     1      26.298  44.387  52.880  1.00  0.00     0.168 HD
HETATM    8  C   UNL     1      23.516  45.291  49.495  1.00  0.00     0.017 A 
HETATM    9  C   UNL     1      23.313  43.937  49.219  1.00  0.00     0.001 A 
HETATM   10  C   UNL     1      23.970  42.963  49.966  1.00  0.00     0.002 A 
HETATM   11  C   UNL     1      24.820  43.341  51.004  1.00  0.00     0.030 A 
ENDROOT
BRANCH   1  12
HETATM   12  N   UNL     1      26.876  46.562  53.673  1.00  0.00    -0.258 NA
HETATM   13  H   UNL     1      27.821  46.523  53.274  1.00  0.00     0.130 HD
BRANCH  12  14
HETATM   14  C   UNL     1      26.839  45.392  54.579  1.00  0.00     0.136 C 
BRANCH  14  15
HETATM   15  C   UNL     1      28.234  44.876  54.856  1.00  0.00    -0.012 A 
HETATM   16  C   UNL     1      28.672  43.668  54.275  1.00  0.00     0.075 A 
HETATM   17  C   UNL     1      29.923  43.145  54.621  1.00  0.00     0.037 A 
HETATM   18  C   UNL     1      30.740  43.808  55.538  1.00  0.00     0.003 A 
HETATM   19  C   UNL     1      30.316  44.998  56.118  1.00  0.00     0.001 A 
HETATM   20  C   UNL     1      29.070  45.525  55.785  1.00  0.00     0.011 A 
BRANCH  16  21
HETATM   21  O   UNL     1      27.797  43.070  53.406  1.00  0.00    -0.355 OA
HETATM   22  C   UNL     1      28.348  42.475  52.234  1.00  0.00     0.210 C 
ENDBRANCH  16  21
ENDBRANCH  14  15
ENDBRANCH  12  14
ENDBRANCH   1  12
BRANCH   3  23
HETATM   23  N   UNL     1      24.187  48.143  50.191  1.00  0.00    -0.273 NA
HETATM   24  H   UNL     1      24.038  48.867  50.896  1.00  0.00     0.129 HD
BRANCH  23  25
HETATM   25  C   UNL     1      25.092  48.654  49.159  1.00  0.00     0.120 C 
BRANCH  25  26
HETATM   26  C   UNL     1      24.530  49.950  48.659  1.00  0.00    -0.022 C 
HETATM   27  C   UNL     1      23.448  50.064  47.878  1.00  0.00     0.008 C 
ENDBRANCH  25  26
ENDBRANCH  23  25
ENDBRANCH   3  23
TORSDOF 7
ENDMDL
MODEL 7
REMARK VINA RESULT:      -7.5      1.726      3.267
REMARK  7 active torsions:
REMARK  status: ('A' for Active; 'I' for Inactive)
REMARK    1  A    between atoms: O_2  and  C_3 
REMARK    2  A    between atoms: C_4  and  C_5 
REMARK    3  A    between atoms: C_5  and  N_6 
REMARK    4  A    between atoms: N_6  and  C_7 
REMARK    5  A    between atoms: C_9  and  N_10 
REMARK    6  A    between atoms: N_10  and  C_11 
REMARK    7  A    between atoms: C_11  and  C_12 
ROOT
HETATM    1  C   UNL     1      25.974  46.437  52.430  1.00  0.00     0.181 A 
HETATM    2  N   UNL     1      26.580  46.626  53.606  1.00  0.00    -0.207 NA
HETATM    3  C   UNL     1      27.218  45.565  54.135  1.00  0.00     0.119 A 
HETATM    4  C   UNL     1      27.324  44.326  53.464  1.00  0.00     0.031 A 
HETATM    5  C   UNL     1      26.663  44.229  52.223  1.00  0.00     0.048 A 
HETATM    6  N   UNL     1      26.006  45.294  51.758  1.00  0.00    -0.330 N 
HETATM    7  H   UNL     1      25.519  45.290  50.872  1.00  0.00     0.168 HD
HETATM    8  C   UNL     1      28.053  43.199  53.908  1.00  0.00     0.017 A 
HETATM    9  C   UNL     1      28.082  42.019  53.162  1.00  0.00     0.001 A 
HETATM   10  C   UNL     1      27.397  41.937  51.952  1.00  0.00     0.002 A 
HETATM   11  C   UNL     1      26.693  43.042  51.478  1.00  0.00     0.030 A 
ENDROOT
BRANCH   1  12
HETATM   12  N   UNL     1      25.255  47.463  51.821  1.00  0.00    -0.258 NA
HETATM   13  H   UNL     1      24.453  47.627  52.440  1.00  0.00     0.130 HD
BRANCH  12  14
HETATM   14  C   UNL     1      24.630  46.950  50.581  1.00  0.00     0.136 C 
BRANCH  14  15
HETATM   15  C   UNL     1      24.395  48.069  49.590  1.00  0.00    -0.012 A 
HETATM   16  C   UNL     1      25.486  48.792  49.065  1.00  0.00     0.075 A 
HETATM   17  C   UNL     1      25.253  49.893  48.233  1.00  0.00     0.037 A 
HETATM   18  C   UNL     1      23.950  50.283  47.920  1.00  0.00     0.003 A 
HETATM   19  C   UNL     1      22.869  49.578  48.435  1.00  0.00     0.001 A 
HETATM   20  C   UNL     1      23.088  48.483  49.268  1.00  0.00     0.011 A 
BRANCH  16  21
HETATM   21  O   UNL     1      26.730  48.358  49.444  1.00  0.00    -0.355 OA
HETATM   22  C   UNL     1      27.837  49.199  49.131  1.00  0.00     0.210 C 
ENDBRANCH  16  21
ENDBRANCH  14  15
ENDBRANCH  12  14
ENDBRANCH   1  12
BRANCH   3  23
HETATM   23  N   UNL     1      27.760  45.798  55.400  1.00  0.00    -0.273 NA
HETATM   24  H   UNL     1      27.782  44.887  55.862  1.00  0.00     0.129 HD
BRANCH  23  25
HETATM   25  C   UNL     1      29.111  46.361  55.380  1.00  0.00     0.120 C 
BRANCH  25  26
HETATM   26  C   UNL     1      29.942  45.596  56.365  1.00  0.00    -0.022 C 
HETATM   27  C   UNL     1      30.708  44.541  56.062  1.00  0.00     0.008 C 
ENDBRANCH  25  26
ENDBRANCH  23  25
ENDBRANCH   3  23
TORSDOF 7
ENDMDL
MODEL 8
REMARK VINA RESULT:      -7.4      1.633      3.737
REMARK  7 active torsions:
REMARK  status: ('A' for Active; 'I' for Inactive)
REMARK    1  A    between atoms: O_2  and  C_3 
REMARK    2  A    between atoms: C_4  and  C_5 
REMARK    3  A    between atoms: C_5  and  N_6 
REMARK    4  A    between atoms: N_6  and  C_7 
REMARK    5  A    between atoms: C_9  and  N_10 
REMARK    6  A    between atoms: N_10  and  C_11 
REMARK    7  A    between atoms: C_11  and  C_12 
ROOT
HETATM    1  C   UNL     1      26.012  45.669  52.537  1.00  0.00     0.181 A 
HETATM    2  N   UNL     1      26.593  45.974  53.700  1.00  0.00    -0.207 NA
HETATM    3  C   UNL     1      27.330  45.008  54.281  1.00  0.00     0.119 A 
HETATM    4  C   UNL     1      27.558  43.754  53.673  1.00  0.00     0.031 A 
HETATM    5  C   UNL     1      26.913  43.530  52.440  1.00  0.00     0.048 A 
HETATM    6  N   UNL     1      26.157  44.502  51.923  1.00  0.00    -0.330 N 
HETATM    7  H   UNL     1      25.676  44.405  51.039  1.00  0.00     0.168 HD
HETATM    8  C   UNL     1      28.392  42.727  54.172  1.00  0.00     0.017 A 
HETATM    9  C   UNL     1      28.538  41.519  53.486  1.00  0.00     0.001 A 
HETATM   10  C   UNL     1      27.869  41.310  52.283  1.00  0.00     0.002 A 
HETATM   11  C   UNL     1      27.062  42.317  51.755  1.00  0.00     0.030 A 
ENDROOT
BRANCH   1  12
HETATM   12  N   UNL     1      25.198  46.587  51.878  1.00  0.00    -0.258 NA
HETATM   13  H   UNL     1      24.240  46.265  52.056  1.00  0.00     0.130 HD
BRANCH  12  14
HETATM   14  C   UNL     1      25.352  46.414  50.416  1.00  0.00     0.136 C 
BRANCH  14  15
HETATM   15  C   UNL     1      25.703  47.726  49.749  1.00  0.00    -0.012 A 
HETATM   16  C   UNL     1      24.683  48.561  49.246  1.00  0.00     0.075 A 
HETATM   17  C   UNL     1      25.021  49.719  48.537  1.00  0.00     0.037 A 
HETATM   18  C   UNL     1      26.358  50.054  48.321  1.00  0.00     0.003 A 
HETATM   19  C   UNL     1      27.370  49.236  48.810  1.00  0.00     0.001 A 
HETATM   20  C   UNL     1      27.045  48.077  49.513  1.00  0.00     0.011 A 
BRANCH  16  21
HETATM   21  O   UNL     1      23.398  48.144  49.481  1.00  0.00    -0.355 OA
HETATM   22  C   UNL     1      22.588  47.860  48.344  1.00  0.00     0.210 C 
ENDBRANCH  16  21
ENDBRANCH  14  15
ENDBRANCH  12  14
ENDBRANCH   1  12
BRANCH   3  23
HETATM   23  N   UNL     1      27.842  45.357  55.533  1.00  0.00    -0.273 NA
HETATM   24  H   UNL     1      28.044  44.472  56.002  1.00  0.00     0.129 HD
BRANCH  23  25
HETATM   25  C   UNL     1      29.063  46.163  55.477  1.00  0.00     0.120 C 
BRANCH  25  26
HETATM   26  C   UNL     1      30.058  45.552  56.418  1.00  0.00    -0.022 C 
HETATM   27  C   UNL     1      30.896  44.557  56.102  1.00  0.00     0.008 C 
ENDBRANCH  25  26
ENDBRANCH  23  25
ENDBRANCH   3  23
TORSDOF 7
ENDMDL
MODEL 9
REMARK VINA RESULT:      -7.3      3.549      6.574
REMARK  7 active torsions:
REMARK  status: ('A' for Active; 'I' for Inactive)
REMARK    1  A    between atoms: O_2  and  C_3 
REMARK    2  A    between atoms: C_4  and  C_5 
REMARK    3  A    between atoms: C_5  and  N_6 
REMARK    4  A    between atoms: N_6  and  C_7 
REMARK    5  A    between atoms: C_9  and  N_10 
REMARK    6  A    between atoms: N_10  and  C_11 
REMARK    7  A    between atoms: C_11  and  C_12 
ROOT
HETATM    1  C   UNL     1      27.816  42.094  53.308  1.00  0.00     0.181 A 
HETATM    2  N   UNL     1      26.878  43.039  53.416  1.00  0.00    -0.207 NA
HETATM    3  C   UNL     1      27.173  44.099  54.193  1.00  0.00     0.119 A 
HETATM    4  C   UNL     1      28.434  44.264  54.810  1.00  0.00     0.031 A 
HETATM    5  C   UNL     1      29.362  43.220  54.626  1.00  0.00     0.048 A 
HETATM    6  N   UNL     1      29.009  42.168  53.883  1.00  0.00    -0.330 N 
HETATM    7  H   UNL     1      29.633  41.392  53.708  1.00  0.00     0.168 HD
HETATM    8  C   UNL     1      28.851  45.388  55.559  1.00  0.00     0.017 A 
HETATM    9  C   UNL     1      30.125  45.441  56.131  1.00  0.00     0.001 A 
HETATM   10  C   UNL     1      31.015  44.384  55.960  1.00  0.00     0.002 A 
HETATM   11  C   UNL     1      30.638  43.276  55.202  1.00  0.00     0.030 A 
ENDROOT
BRANCH   1  12
HETATM   12  N   UNL     1      27.590  40.941  52.560  1.00  0.00    -0.258 NA
HETATM   13  H   UNL     1      28.125  40.207  53.037  1.00  0.00     0.130 HD
BRANCH  12  14
HETATM   14  C   UNL     1      28.274  41.068  51.253  1.00  0.00     0.136 C 
BRANCH  14  15
HETATM   15  C   UNL     1      28.090  39.815  50.423  1.00  0.00    -0.012 A 
HETATM   16  C   UNL     1      26.817  39.480  49.917  1.00  0.00     0.075 A 
HETATM   17  C   UNL     1      26.636  38.267  49.242  1.00  0.00     0.037 A 
HETATM   18  C   UNL     1      27.703  37.386  49.067  1.00  0.00     0.003 A 
HETATM   19  C   UNL     1      28.961  37.707  49.565  1.00  0.00     0.001 A 
HETATM   20  C   UNL     1      29.152  38.909  50.243  1.00  0.00     0.011 A 
BRANCH  16  21
HETATM   21  O   UNL     1      25.820  40.390  50.155  1.00  0.00    -0.355 OA
HETATM   22  C   UNL     1      25.236  41.028  49.023  1.00  0.00     0.210 C 
ENDBRANCH  16  21
ENDBRANCH  14  15
ENDBRANCH  12  14
ENDBRANCH   1  12
BRANCH   3  23
HETATM   23  N   UNL     1      26.126  45.011  54.335  1.00  0.00    -0.273 NA
HETATM   24  H   UNL     1      26.391  45.614  55.116  1.00  0.00     0.129 HD
BRANCH  23  25
HETATM   25  C   UNL     1      25.884  45.835  53.150  1.00  0.00     0.120 C 
BRANCH  25  26
HETATM   26  C   UNL     1      26.396  47.214  53.438  1.00  0.00    -0.022 C 
HETATM   27  C   UNL     1      26.190  47.882  54.580  1.00  0.00     0.008 C 
ENDBRANCH  25  26
ENDBRANCH  23  25
ENDBRANCH   3  23
TORSDOF 7
ENDMDL
MODEL 10
REMARK VINA RESULT:      -7.3      1.988      7.250
REMARK  7 active torsions:
REMARK  status: ('A' for Active; 'I' for Inactive)
REMARK    1  A    between atoms: O_2  and  C_3 
REMARK    2  A    between atoms: C_4  and  C_5 
REMARK    3  A    between atoms: C_5  and  N_6 
REMARK    4  A    between atoms: N_6  and  C_7 
REMARK    5  A    between atoms: C_9  and  N_10 
REMARK    6  A    between atoms: N_10  and  C_11 
REMARK    7  A    between atoms: C_11  and  C_12 
ROOT
HETATM    1  C   UNL     1      25.678  45.934  50.756  1.00  0.00     0.181 A 
HETATM    2  N   UNL     1      24.396  46.160  50.455  1.00  0.00    -0.207 NA
HETATM    3  C   UNL     1      24.119  47.305  49.804  1.00  0.00     0.119 A 
HETATM    4  C   UNL     1      25.125  48.202  49.379  1.00  0.00     0.031 A 
HETATM    5  C   UNL     1      26.448  47.871  49.732  1.00  0.00     0.048 A 
HETATM    6  N   UNL     1      26.670  46.746  50.417  1.00  0.00    -0.330 N 
HETATM    7  H   UNL     1      27.597  46.449  50.692  1.00  0.00     0.168 HD
HETATM    8  C   UNL     1      24.925  49.373  48.613  1.00  0.00     0.017 A 
HETATM    9  C   UNL     1      25.998  50.192  48.253  1.00  0.00     0.001 A 
HETATM   10  C   UNL     1      27.294  49.859  48.638  1.00  0.00     0.002 A 
HETATM   11  C   UNL     1      27.522  48.696  49.371  1.00  0.00     0.030 A 
ENDROOT
BRANCH   1  12
HETATM   12  N   UNL     1      26.059  44.796  51.464  1.00  0.00    -0.258 NA
HETATM   13  H   UNL     1      25.180  44.306  51.669  1.00  0.00     0.130 HD
BRANCH  12  14
HETATM   14  C   UNL     1      26.547  45.196  52.802  1.00  0.00     0.136 C 
BRANCH  14  15
HETATM   15  C   UNL     1      27.752  44.374  53.207  1.00  0.00    -0.012 A 
HETATM   16  C   UNL     1      28.336  44.550  54.479  1.00  0.00     0.075 A 
HETATM   17  C   UNL     1      29.512  43.865  54.804  1.00  0.00     0.037 A 
HETATM   18  C   UNL     1      30.113  43.010  53.879  1.00  0.00     0.003 A 
HETATM   19  C   UNL     1      29.547  42.833  52.622  1.00  0.00     0.001 A 
HETATM   20  C   UNL     1      28.380  43.514  52.286  1.00  0.00     0.011 A 
BRANCH  16  21
HETATM   21  O   UNL     1      27.695  45.427  55.316  1.00  0.00    -0.355 OA
HETATM   22  C   UNL     1      28.409  46.596  55.705  1.00  0.00     0.210 C 
ENDBRANCH  16  21
ENDBRANCH  14  15
ENDBRANCH  12  14
ENDBRANCH   1  12
BRANCH   3  23
HETATM   23  N   UNL     1      22.757  47.526  49.591  1.00  0.00    -0.273 NA
HETATM   24  H   UNL     1      22.647  48.541  49.553  1.00  0.00     0.129 HD
BRANCH  23  25
HETATM   25  C   UNL     1      22.241  46.938  48.355  1.00  0.00     0.120 C 
BRANCH  25  26
HETATM   26  C   UNL     1      21.222  47.880  47.789  1.00  0.00    -0.022 C 
HETATM   27  C   UNL     1      21.335  49.214  47.783  1.00  0.00     0.008 C 
ENDBRANCH  25  26
ENDBRANCH  23  25
ENDBRANCH   3  23
TORSDOF 7
ENDMDL
