MODEL 1
REMARK VINA RESULT:      -9.0      0.000      0.000
REMARK  8 active torsions:
REMARK  status: ('A' for Active; 'I' for Inactive)
REMARK    1  A    between atoms: O_2  and  C_3 
REMARK    2  A    between atoms: C_4  and  O_5 
REMARK    3  A    between atoms: C_7  and  C_8 
REMARK    4  A    between atoms: N_9  and  N_10 
REMARK       I    between atoms: N_10  and  C_11 
REMARK    5  A    between atoms: C_11  and  C_12 
REMARK    6  A    between atoms: C_12  and  N_13 
REMARK       I    between atoms: N_13  and  C_14 
REMARK       I    between atoms: C_14  and  N_15 
REMARK    7  A    between atoms: N_15  and  C_16 
REMARK    8  A    between atoms: C_18  and  C_19 
ROOT
HETATM    1  C   UNL     1      24.083  46.616  49.613  1.00  0.00     0.228 C 
ENDROOT
BRANCH   1   2
HETATM    2  C   UNL     1      23.386  47.979  49.490  1.00  0.00     0.255 C 
HETATM    3  N   UNL     1      22.020  47.890  49.278  1.00  0.00    -0.246 N 
HETATM    4  H   UNL     1      21.578  46.968  49.273  1.00  0.00     0.192 HD
HETATM    5  O   UNL     1      24.007  49.024  49.684  1.00  0.00    -0.270 OA
BRANCH   3   6
HETATM    6  N   UNL     1      21.248  49.009  49.216  1.00  0.00    -0.184 NA
HETATM    7  C   UNL     1      19.976  48.799  49.344  1.00  0.00     0.150 C 
BRANCH   7   8
HETATM    8  C   UNL     1      19.007  49.911  49.317  1.00  0.00    -0.014 A 
HETATM    9  C   UNL     1      17.732  49.682  48.802  1.00  0.00     0.052 A 
HETATM   10  C   UNL     1      16.822  50.733  48.779  1.00  0.00     0.099 A 
HETATM   11  C   UNL     1      17.151  52.009  49.259  1.00  0.00     0.101 A 
HETATM   12  C   UNL     1      18.429  52.224  49.778  1.00  0.00     0.040 A 
HETATM   13  C   UNL     1      19.356  51.175  49.803  1.00  0.00     0.016 A 
BRANCH  10  14
HETATM   14  O   UNL     1      15.576  50.495  48.266  1.00  0.00    -0.358 OA
HETATM   15  H   UNL     1      15.081  50.066  48.992  1.00  0.00     0.218 HD
ENDBRANCH  10  14
BRANCH  11  16
HETATM   16  O   UNL     1      16.149  52.939  49.167  1.00  0.00    -0.353 OA
HETATM   17  C   UNL     1      15.659  53.465  50.395  1.00  0.00     0.210 C 
ENDBRANCH  11  16
ENDBRANCH   7   8
ENDBRANCH   3   6
ENDBRANCH   1   2
BRANCH   1  18
HETATM   18  N   UNL     1      24.356  46.164  50.977  1.00  0.00    -0.334 N 
HETATM   19  C   UNL     1      25.618  46.269  51.512  1.00  0.00     0.321 C 
HETATM   20  N   UNL     1      25.686  45.707  52.762  1.00  0.00    -0.309 N 
HETATM   21  O   UNL     1      26.511  46.873  50.929  1.00  0.00    -0.247 OA
HETATM   22  H   UNL     1      24.797  45.533  53.208  1.00  0.00     0.170 HD
HETATM   23  H   UNL     1      23.829  45.357  51.274  1.00  0.00     0.164 HD
BRANCH  20  24
HETATM   24  C   UNL     1      26.832  45.597  53.577  1.00  0.00     0.037 A 
HETATM   25  C   UNL     1      27.650  44.465  53.607  1.00  0.00     0.045 A 
HETATM   26  C   UNL     1      28.783  44.414  54.439  1.00  0.00     0.050 A 
HETATM   27  C   UNL     1      29.092  45.524  55.237  1.00  0.00     0.016 A 
HETATM   28  C   UNL     1      28.272  46.651  55.223  1.00  0.00     0.003 A 
HETATM   29  C   UNL     1      27.143  46.683  54.402  1.00  0.00     0.029 A 
BRANCH  26  30
HETATM   30  C   UNL     1      29.676  43.197  54.450  1.00  0.00     0.417 C 
HETATM   31  F   UNL     1      30.453  43.100  55.563  1.00  0.00    -0.166 F 
HETATM   32  F   UNL     1      28.969  42.036  54.381  1.00  0.00    -0.166 F 
HETATM   33  F   UNL     1      30.539  43.171  53.395  1.00  0.00    -0.166 F 
ENDBRANCH  26  30
ENDBRANCH  20  24
ENDBRANCH   1  18
TORSDOF 8
ENDMDL
MODEL 2
REMARK VINA RESULT:      -8.7      3.059      4.193
REMARK  8 active torsions:
REMARK  status: ('A' for Active; 'I' for Inactive)
REMARK    1  A    between atoms: O_2  and  C_3 
REMARK    2  A    between atoms: C_4  and  O_5 
REMARK    3  A    between atoms: C_7  and  C_8 
REMARK    4  A    between atoms: N_9  and  N_10 
REMARK       I    between atoms: N_10  and  C_11 
REMARK    5  A    between atoms: C_11  and  C_12 
REMARK    6  A    between atoms: C_12  and  N_13 
REMARK       I    between atoms: N_13  and  C_14 
REMARK       I    between atoms: C_14  and  N_15 
REMARK    7  A    between atoms: N_15  and  C_16 
REMARK    8  A    between atoms: C_18  and  C_19 
ROOT
HETATM    1  C   UNL     1      25.711  43.613  51.227  1.00  0.00     0.228 C 
ENDROOT
BRANCH   1   2
HETATM    2  C   UNL     1      24.482  44.433  50.809  1.00  0.00     0.255 C 
HETATM    3  N   UNL     1      24.784  45.516  50.000  1.00  0.00    -0.246 N 
HETATM    4  H   UNL     1      25.752  45.660  49.704  1.00  0.00     0.192 HD
HETATM    5  O   UNL     1      23.346  44.056  51.095  1.00  0.00    -0.270 OA
BRANCH   3   6
HETATM    6  N   UNL     1      23.797  46.303  49.489  1.00  0.00    -0.184 NA
HETATM    7  C   UNL     1      23.968  47.574  49.670  1.00  0.00     0.150 C 
BRANCH   7   8
HETATM    8  C   UNL     1      22.996  48.561  49.161  1.00  0.00    -0.014 A 
HETATM    9  C   UNL     1      21.691  48.150  48.897  1.00  0.00     0.052 A 
HETATM   10  C   UNL     1      20.781  49.085  48.418  1.00  0.00     0.099 A 
HETATM   11  C   UNL     1      21.139  50.422  48.196  1.00  0.00     0.101 A 
HETATM   12  C   UNL     1      22.447  50.823  48.470  1.00  0.00     0.040 A 
HETATM   13  C   UNL     1      23.375  49.891  48.949  1.00  0.00     0.016 A 
BRANCH  10  14
HETATM   14  O   UNL     1      19.504  48.666  48.159  1.00  0.00    -0.358 OA
HETATM   15  H   UNL     1      18.930  49.278  48.660  1.00  0.00     0.218 HD
ENDBRANCH  10  14
BRANCH  11  16
HETATM   16  O   UNL     1      20.131  51.221  47.721  1.00  0.00    -0.353 OA
HETATM   17  C   UNL     1      19.550  52.128  48.650  1.00  0.00     0.210 C 
ENDBRANCH  11  16
ENDBRANCH   7   8
ENDBRANCH   3   6
ENDBRANCH   1   2
BRANCH   1  18
HETATM   18  N   UNL     1      26.779  44.364  51.887  1.00  0.00    -0.334 N 
HETATM   19  C   UNL     1      27.477  43.816  52.937  1.00  0.00     0.321 C 
HETATM   20  N   UNL     1      28.367  44.712  53.475  1.00  0.00    -0.309 N 
HETATM   21  O   UNL     1      27.335  42.642  53.256  1.00  0.00    -0.247 OA
HETATM   22  H   UNL     1      28.570  45.518  52.902  1.00  0.00     0.170 HD
HETATM   23  H   UNL     1      26.630  45.360  51.943  1.00  0.00     0.164 HD
BRANCH  20  24
HETATM   24  C   UNL     1      29.209  44.501  54.587  1.00  0.00     0.037 A 
HETATM   25  C   UNL     1      29.162  45.278  55.747  1.00  0.00     0.045 A 
HETATM   26  C   UNL     1      30.025  45.018  56.826  1.00  0.00     0.050 A 
HETATM   27  C   UNL     1      30.935  43.956  56.730  1.00  0.00     0.016 A 
HETATM   28  C   UNL     1      30.998  43.186  55.570  1.00  0.00     0.003 A 
HETATM   29  C   UNL     1      30.143  43.463  54.501  1.00  0.00     0.029 A 
BRANCH  26  30
HETATM   30  C   UNL     1      29.953  45.846  58.086  1.00  0.00     0.417 C 
HETATM   31  F   UNL     1      28.797  46.555  58.210  1.00  0.00    -0.166 F 
HETATM   32  F   UNL     1      30.050  45.085  59.211  1.00  0.00    -0.166 F 
HETATM   33  F   UNL     1      30.958  46.763  58.169  1.00  0.00    -0.166 F 
ENDBRANCH  26  30
ENDBRANCH  20  24
ENDBRANCH   1  18
TORSDOF 8
ENDMDL
MODEL 3
REMARK VINA RESULT:      -8.7      3.953      6.090
REMARK  8 active torsions:
REMARK  status: ('A' for Active; 'I' for Inactive)
REMARK    1  A    between atoms: O_2  and  C_3 
REMARK    2  A    between atoms: C_4  and  O_5 
REMARK    3  A    between atoms: C_7  and  C_8 
REMARK    4  A    between atoms: N_9  and  N_10 
REMARK       I    between atoms: N_10  and  C_11 
REMARK    5  A    between atoms: C_11  and  C_12 
REMARK    6  A    between atoms: C_12  and  N_13 
REMARK       I    between atoms: N_13  and  C_14 
REMARK       I    between atoms: C_14  and  N_15 
REMARK    7  A    between atoms: N_15  and  C_16 
REMARK    8  A    between atoms: C_18  and  C_19 
ROOT
HETATM    1  C   UNL     1      27.711  40.507  50.233  1.00  0.00     0.228 C 
ENDROOT
BRANCH   1   2
HETATM    2  C   UNL     1      26.857  41.487  49.417  1.00  0.00     0.255 C 
HETATM    3  N   UNL     1      25.680  41.859  50.047  1.00  0.00    -0.246 N 
HETATM    4  H   UNL     1      25.493  41.516  50.992  1.00  0.00     0.192 HD
HETATM    5  O   UNL     1      27.275  41.959  48.360  1.00  0.00    -0.270 OA
BRANCH   3   6
HETATM    6  N   UNL     1      24.846  42.775  49.483  1.00  0.00    -0.184 NA
HETATM    7  C   UNL     1      24.999  43.987  49.916  1.00  0.00     0.150 C 
BRANCH   7   8
HETATM    8  C   UNL     1      24.183  45.099  49.393  1.00  0.00    -0.014 A 
HETATM    9  C   UNL     1      24.297  46.356  49.984  1.00  0.00     0.052 A 
HETATM   10  C   UNL     1      23.526  47.400  49.486  1.00  0.00     0.099 A 
HETATM   11  C   UNL     1      22.643  47.223  48.411  1.00  0.00     0.101 A 
HETATM   12  C   UNL     1      22.542  45.962  47.824  1.00  0.00     0.040 A 
HETATM   13  C   UNL     1      23.310  44.900  48.318  1.00  0.00     0.016 A 
BRANCH  10  14
HETATM   14  O   UNL     1      23.646  48.628  50.079  1.00  0.00    -0.358 OA
HETATM   15  H   UNL     1      23.976  48.442  50.980  1.00  0.00     0.218 HD
ENDBRANCH  10  14
BRANCH  11  16
HETATM   16  O   UNL     1      21.952  48.346  48.037  1.00  0.00    -0.353 OA
HETATM   17  C   UNL     1      20.533  48.270  48.110  1.00  0.00     0.210 C 
ENDBRANCH  11  16
ENDBRANCH   7   8
ENDBRANCH   3   6
ENDBRANCH   1   2
BRANCH   1  18
HETATM   18  N   UNL     1      28.787  41.108  51.021  1.00  0.00    -0.334 N 
HETATM   19  C   UNL     1      28.507  41.826  52.160  1.00  0.00     0.321 C 
HETATM   20  N   UNL     1      29.640  42.383  52.698  1.00  0.00    -0.309 N 
HETATM   21  O   UNL     1      27.377  41.860  52.631  1.00  0.00    -0.247 OA
HETATM   22  H   UNL     1      30.513  42.003  52.360  1.00  0.00     0.170 HD
HETATM   23  H   UNL     1      29.575  41.441  50.486  1.00  0.00     0.164 HD
BRANCH  20  24
HETATM   24  C   UNL     1      29.713  43.215  53.834  1.00  0.00     0.037 A 
HETATM   25  C   UNL     1      30.523  42.941  54.939  1.00  0.00     0.045 A 
HETATM   26  C   UNL     1      30.558  43.811  56.043  1.00  0.00     0.050 A 
HETATM   27  C   UNL     1      29.771  44.971  56.021  1.00  0.00     0.016 A 
HETATM   28  C   UNL     1      28.950  45.243  54.929  1.00  0.00     0.003 A 
HETATM   29  C   UNL     1      28.916  44.364  53.844  1.00  0.00     0.029 A 
BRANCH  26  30
HETATM   30  C   UNL     1      31.453  43.522  57.224  1.00  0.00     0.417 C 
HETATM   31  F   UNL     1      31.268  42.285  57.760  1.00  0.00    -0.166 F 
HETATM   32  F   UNL     1      32.774  43.600  56.902  1.00  0.00    -0.166 F 
HETATM   33  F   UNL     1      31.267  44.400  58.250  1.00  0.00    -0.166 F 
ENDBRANCH  26  30
ENDBRANCH  20  24
ENDBRANCH   1  18
TORSDOF 8
ENDMDL
MODEL 4
REMARK VINA RESULT:      -8.7      5.824     12.389
REMARK  8 active torsions:
REMARK  status: ('A' for Active; 'I' for Inactive)
REMARK    1  A    between atoms: O_2  and  C_3 
REMARK    2  A    between atoms: C_4  and  O_5 
REMARK    3  A    between atoms: C_7  and  C_8 
REMARK    4  A    between atoms: N_9  and  N_10 
REMARK       I    between atoms: N_10  and  C_11 
REMARK    5  A    between atoms: C_11  and  C_12 
REMARK    6  A    between atoms: C_12  and  N_13 
REMARK       I    between atoms: N_13  and  C_14 
REMARK       I    between atoms: C_14  and  N_15 
REMARK    7  A    between atoms: N_15  and  C_16 
REMARK    8  A    between atoms: C_18  and  C_19 
ROOT
HETATM    1  C   UNL     1      24.029  47.591  49.261  1.00  0.00     0.228 C 
ENDROOT
BRANCH   1   2
HETATM    2  C   UNL     1      25.172  47.464  50.278  1.00  0.00     0.255 C 
HETATM    3  N   UNL     1      25.009  46.419  51.172  1.00  0.00    -0.246 N 
HETATM    4  H   UNL     1      24.205  45.796  51.067  1.00  0.00     0.192 HD
HETATM    5  O   UNL     1      26.173  48.175  50.194  1.00  0.00    -0.270 OA
BRANCH   3   6
HETATM    6  N   UNL     1      25.969  46.131  52.093  1.00  0.00    -0.184 NA
HETATM    7  C   UNL     1      26.558  44.989  51.925  1.00  0.00     0.150 C 
BRANCH   7   8
HETATM    8  C   UNL     1      27.633  44.537  52.829  1.00  0.00    -0.014 A 
HETATM    9  C   UNL     1      28.522  43.560  52.384  1.00  0.00     0.052 A 
HETATM   10  C   UNL     1      29.534  43.140  53.240  1.00  0.00     0.099 A 
HETATM   11  C   UNL     1      29.682  43.670  54.530  1.00  0.00     0.101 A 
HETATM   12  C   UNL     1      28.789  44.651  54.961  1.00  0.00     0.040 A 
HETATM   13  C   UNL     1      27.764  45.082  54.111  1.00  0.00     0.016 A 
BRANCH  10  14
HETATM   14  O   UNL     1      30.397  42.176  52.792  1.00  0.00    -0.358 OA
HETATM   15  H   UNL     1      31.223  42.655  52.583  1.00  0.00     0.218 HD
ENDBRANCH  10  14
BRANCH  11  16
HETATM   16  O   UNL     1      30.725  43.152  55.253  1.00  0.00    -0.353 OA
HETATM   17  C   UNL     1      31.113  43.878  56.415  1.00  0.00     0.210 C 
ENDBRANCH  11  16
ENDBRANCH   7   8
ENDBRANCH   3   6
ENDBRANCH   1   2
BRANCH   1  18
HETATM   18  N   UNL     1      22.799  48.202  49.764  1.00  0.00    -0.334 N 
HETATM   19  C   UNL     1      21.967  48.902  48.922  1.00  0.00     0.321 C 
HETATM   20  N   UNL     1      20.921  49.473  49.603  1.00  0.00    -0.309 N 
HETATM   21  O   UNL     1      22.146  48.911  47.710  1.00  0.00    -0.247 OA
HETATM   22  H   UNL     1      20.761  49.113  50.533  1.00  0.00     0.170 HD
HETATM   23  H   UNL     1      22.850  48.556  50.707  1.00  0.00     0.164 HD
BRANCH  20  24
HETATM   24  C   UNL     1      19.910  50.293  49.062  1.00  0.00     0.037 A 
HETATM   25  C   UNL     1      18.607  49.851  48.817  1.00  0.00     0.045 A 
HETATM   26  C   UNL     1      17.639  50.716  48.279  1.00  0.00     0.050 A 
HETATM   27  C   UNL     1      17.993  52.043  47.996  1.00  0.00     0.016 A 
HETATM   28  C   UNL     1      19.294  52.487  48.223  1.00  0.00     0.003 A 
HETATM   29  C   UNL     1      20.249  51.613  48.747  1.00  0.00     0.029 A 
BRANCH  26  30
HETATM   30  C   UNL     1      16.227  50.239  48.040  1.00  0.00     0.417 C 
HETATM   31  F   UNL     1      15.747  50.549  46.804  1.00  0.00    -0.166 F 
HETATM   32  F   UNL     1      16.110  48.888  48.161  1.00  0.00    -0.166 F 
HETATM   33  F   UNL     1      15.337  50.771  48.925  1.00  0.00    -0.166 F 
ENDBRANCH  26  30
ENDBRANCH  20  24
ENDBRANCH   1  18
TORSDOF 8
ENDMDL
MODEL 5
REMARK VINA RESULT:      -8.6      5.454     11.372
REMARK  8 active torsions:
REMARK  status: ('A' for Active; 'I' for Inactive)
REMARK    1  A    between atoms: O_2  and  C_3 
REMARK    2  A    between atoms: C_4  and  O_5 
REMARK    3  A    between atoms: C_7  and  C_8 
REMARK    4  A    between atoms: N_9  and  N_10 
REMARK       I    between atoms: N_10  and  C_11 
REMARK    5  A    between atoms: C_11  and  C_12 
REMARK    6  A    between atoms: C_12  and  N_13 
REMARK       I    between atoms: N_13  and  C_14 
REMARK       I    between atoms: C_14  and  N_15 
REMARK    7  A    between atoms: N_15  and  C_16 
REMARK    8  A    between atoms: C_18  and  C_19 
ROOT
HETATM    1  C   UNL     1      21.750  44.478  48.966  1.00  0.00     0.228 C 
ENDROOT
BRANCH   1   2
HETATM    2  C   UNL     1      22.781  44.072  50.028  1.00  0.00     0.255 C 
HETATM    3  N   UNL     1      23.590  45.115  50.447  1.00  0.00    -0.246 N 
HETATM    4  H   UNL     1      23.419  46.055  50.081  1.00  0.00     0.192 HD
HETATM    5  O   UNL     1      22.775  42.941  50.513  1.00  0.00    -0.270 OA
BRANCH   3   6
HETATM    6  N   UNL     1      24.510  44.933  51.435  1.00  0.00    -0.184 NA
HETATM    7  C   UNL     1      25.160  46.001  51.774  1.00  0.00     0.150 C 
BRANCH   7   8
HETATM    8  C   UNL     1      26.179  45.975  52.841  1.00  0.00    -0.014 A 
HETATM    9  C   UNL     1      26.963  44.834  52.998  1.00  0.00     0.052 A 
HETATM   10  C   UNL     1      27.922  44.816  54.004  1.00  0.00     0.099 A 
HETATM   11  C   UNL     1      28.120  45.910  54.860  1.00  0.00     0.101 A 
HETATM   12  C   UNL     1      27.332  47.049  54.689  1.00  0.00     0.040 A 
HETATM   13  C   UNL     1      26.361  47.079  53.682  1.00  0.00     0.016 A 
BRANCH  10  14
HETATM   14  O   UNL     1      28.682  43.687  54.149  1.00  0.00    -0.358 OA
HETATM   15  H   UNL     1      29.581  43.949  53.868  1.00  0.00     0.218 HD
ENDBRANCH  10  14
BRANCH  11  16
HETATM   16  O   UNL     1      29.100  45.739  55.802  1.00  0.00    -0.353 OA
HETATM   17  C   UNL     1      28.780  46.141  57.129  1.00  0.00     0.210 C 
ENDBRANCH  11  16
ENDBRANCH   7   8
ENDBRANCH   3   6
ENDBRANCH   1   2
BRANCH   1  18
HETATM   18  N   UNL     1      20.569  45.181  49.466  1.00  0.00    -0.334 N 
HETATM   19  C   UNL     1      20.138  46.342  48.870  1.00  0.00     0.321 C 
HETATM   20  N   UNL     1      19.076  46.893  49.543  1.00  0.00    -0.309 N 
HETATM   21  O   UNL     1      20.630  46.743  47.822  1.00  0.00    -0.247 OA
HETATM   22  H   UNL     1      18.609  46.278  50.194  1.00  0.00     0.170 HD
HETATM   23  H   UNL     1      20.434  45.136  50.465  1.00  0.00     0.164 HD
BRANCH  20  24
HETATM   24  C   UNL     1      18.418  48.102  49.236  1.00  0.00     0.037 A 
HETATM   25  C   UNL     1      18.944  49.362  49.532  1.00  0.00     0.045 A 
HETATM   26  C   UNL     1      18.242  50.534  49.198  1.00  0.00     0.050 A 
HETATM   27  C   UNL     1      17.003  50.425  48.552  1.00  0.00     0.016 A 
HETATM   28  C   UNL     1      16.465  49.172  48.267  1.00  0.00     0.003 A 
HETATM   29  C   UNL     1      17.167  48.016  48.615  1.00  0.00     0.029 A 
BRANCH  26  30
HETATM   30  C   UNL     1      18.826  51.893  49.498  1.00  0.00     0.417 C 
HETATM   31  F   UNL     1      19.216  52.578  48.388  1.00  0.00    -0.166 F 
HETATM   32  F   UNL     1      17.946  52.702  50.150  1.00  0.00    -0.166 F 
HETATM   33  F   UNL     1      19.930  51.825  50.295  1.00  0.00    -0.166 F 
ENDBRANCH  26  30
ENDBRANCH  20  24
ENDBRANCH   1  18
TORSDOF 8
ENDMDL
MODEL 6
REMARK VINA RESULT:      -8.6      5.353     12.077
REMARK  8 active torsions:
REMARK  status: ('A' for Active; 'I' for Inactive)
REMARK    1  A    between atoms: O_2  and  C_3 
REMARK    2  A    between atoms: C_4  and  O_5 
REMARK    3  A    between atoms: C_7  and  C_8 
REMARK    4  A    between atoms: N_9  and  N_10 
REMARK       I    between atoms: N_10  and  C_11 
REMARK    5  A    between atoms: C_11  and  C_12 
REMARK    6  A    between atoms: C_12  and  N_13 
REMARK       I    between atoms: N_13  and  C_14 
REMARK       I    between atoms: C_14  and  N_15 
REMARK    7  A    between atoms: N_15  and  C_16 
REMARK    8  A    between atoms: C_18  and  C_19 
ROOT
HETATM    1  C   UNL     1      24.193  45.180  49.364  1.00  0.00     0.228 C 
ENDROOT
BRANCH   1   2
HETATM    2  C   UNL     1      24.969  45.592  50.623  1.00  0.00     0.255 C 
HETATM    3  N   UNL     1      25.990  44.717  50.959  1.00  0.00    -0.246 N 
HETATM    4  H   UNL     1      26.186  43.923  50.344  1.00  0.00     0.192 HD
HETATM    5  O   UNL     1      24.743  46.665  51.181  1.00  0.00    -0.270 OA
BRANCH   3   6
HETATM    6  N   UNL     1      26.814  44.977  52.010  1.00  0.00    -0.184 NA
HETATM    7  C   UNL     1      27.496  43.958  52.430  1.00  0.00     0.150 C 
BRANCH   7   8
HETATM    8  C   UNL     1      28.447  44.078  53.551  1.00  0.00    -0.014 A 
HETATM    9  C   UNL     1      28.279  45.110  54.472  1.00  0.00     0.052 A 
HETATM   10  C   UNL     1      29.179  45.217  55.526  1.00  0.00     0.099 A 
HETATM   11  C   UNL     1      30.244  44.319  55.686  1.00  0.00     0.101 A 
HETATM   12  C   UNL     1      30.398  43.286  54.761  1.00  0.00     0.040 A 
HETATM   13  C   UNL     1      29.502  43.168  53.692  1.00  0.00     0.016 A 
BRANCH  10  14
HETATM   14  O   UNL     1      29.004  46.238  56.421  1.00  0.00    -0.358 OA
HETATM   15  H   UNL     1      28.926  45.801  57.292  1.00  0.00     0.218 HD
ENDBRANCH  10  14
BRANCH  11  16
HETATM   16  O   UNL     1      31.045  44.557  56.772  1.00  0.00    -0.353 OA
HETATM   17  C   UNL     1      31.810  43.455  57.250  1.00  0.00     0.210 C 
ENDBRANCH  11  16
ENDBRANCH   7   8
ENDBRANCH   3   6
ENDBRANCH   1   2
BRANCH   1  18
HETATM   18  N   UNL     1      22.789  45.590  49.323  1.00  0.00    -0.334 N 
HETATM   19  C   UNL     1      22.410  46.733  48.661  1.00  0.00     0.321 C 
HETATM   20  N   UNL     1      21.071  46.990  48.819  1.00  0.00    -0.309 N 
HETATM   21  O   UNL     1      23.200  47.360  47.964  1.00  0.00    -0.247 OA
HETATM   22  H   UNL     1      20.519  46.216  49.161  1.00  0.00     0.170 HD
HETATM   23  H   UNL     1      22.257  45.378  50.153  1.00  0.00     0.164 HD
BRANCH  20  24
HETATM   24  C   UNL     1      20.359  48.099  48.317  1.00  0.00     0.037 A 
HETATM   25  C   UNL     1      20.195  49.293  49.024  1.00  0.00     0.045 A 
HETATM   26  C   UNL     1      19.476  50.367  48.470  1.00  0.00     0.050 A 
HETATM   27  C   UNL     1      18.929  50.231  47.187  1.00  0.00     0.016 A 
HETATM   28  C   UNL     1      19.076  49.038  46.482  1.00  0.00     0.003 A 
HETATM   29  C   UNL     1      19.781  47.974  47.049  1.00  0.00     0.029 A 
BRANCH  26  30
HETATM   30  C   UNL     1      19.323  51.664  49.228  1.00  0.00     0.417 C 
HETATM   31  F   UNL     1      18.069  51.863  49.721  1.00  0.00    -0.166 F 
HETATM   32  F   UNL     1      20.164  51.741  50.296  1.00  0.00    -0.166 F 
HETATM   33  F   UNL     1      19.595  52.756  48.459  1.00  0.00    -0.166 F 
ENDBRANCH  26  30
ENDBRANCH  20  24
ENDBRANCH   1  18
TORSDOF 8
ENDMDL
MODEL 7
REMARK VINA RESULT:      -8.5      2.768      3.991
REMARK  8 active torsions:
REMARK  status: ('A' for Active; 'I' for Inactive)
REMARK    1  A    between atoms: O_2  and  C_3 
REMARK    2  A    between atoms: C_4  and  O_5 
REMARK    3  A    between atoms: C_7  and  C_8 
REMARK    4  A    between atoms: N_9  and  N_10 
REMARK       I    between atoms: N_10  and  C_11 
REMARK    5  A    between atoms: C_11  and  C_12 
REMARK    6  A    between atoms: C_12  and  N_13 
REMARK       I    between atoms: N_13  and  C_14 
REMARK       I    between atoms: C_14  and  N_15 
REMARK    7  A    between atoms: N_15  and  C_16 
REMARK    8  A    between atoms: C_18  and  C_19 
ROOT
HETATM    1  C   UNL     1      25.881  43.275  51.071  1.00  0.00     0.228 C 
ENDROOT
BRANCH   1   2
HETATM    2  C   UNL     1      24.772  44.318  50.864  1.00  0.00     0.255 C 
HETATM    3  N   UNL     1      24.785  44.904  49.609  1.00  0.00    -0.246 N 
HETATM    4  H   UNL     1      25.464  44.579  48.916  1.00  0.00     0.192 HD
HETATM    5  O   UNL     1      23.908  44.498  51.721  1.00  0.00    -0.270 OA
BRANCH   3   6
HETATM    6  N   UNL     1      23.825  45.798  49.245  1.00  0.00    -0.184 NA
HETATM    7  C   UNL     1      24.171  47.041  49.358  1.00  0.00     0.150 C 
BRANCH   7   8
HETATM    8  C   UNL     1      23.251  48.133  48.988  1.00  0.00    -0.014 A 
HETATM    9  C   UNL     1      21.932  47.823  48.660  1.00  0.00     0.052 A 
HETATM   10  C   UNL     1      21.069  48.856  48.314  1.00  0.00     0.099 A 
HETATM   11  C   UNL     1      21.488  50.194  48.286  1.00  0.00     0.101 A 
HETATM   12  C   UNL     1      22.809  50.493  48.622  1.00  0.00     0.040 A 
HETATM   13  C   UNL     1      23.690  49.462  48.970  1.00  0.00     0.016 A 
BRANCH  10  14
HETATM   14  O   UNL     1      19.779  48.536  47.990  1.00  0.00    -0.358 OA
HETATM   15  H   UNL     1      19.727  47.565  48.091  1.00  0.00     0.218 HD
ENDBRANCH  10  14
BRANCH  11  16
HETATM   16  O   UNL     1      20.523  51.097  47.923  1.00  0.00    -0.353 OA
HETATM   17  C   UNL     1      19.849  51.764  48.984  1.00  0.00     0.210 C 
ENDBRANCH  11  16
ENDBRANCH   7   8
ENDBRANCH   3   6
ENDBRANCH   1   2
BRANCH   1  18
HETATM   18  N   UNL     1      27.131  43.784  51.633  1.00  0.00    -0.334 N 
HETATM   19  C   UNL     1      27.280  43.933  52.992  1.00  0.00     0.321 C 
HETATM   20  N   UNL     1      28.485  44.509  53.308  1.00  0.00    -0.309 N 
HETATM   21  O   UNL     1      26.440  43.512  53.777  1.00  0.00    -0.247 OA
HETATM   22  H   UNL     1      29.174  44.509  52.570  1.00  0.00     0.170 HD
HETATM   23  H   UNL     1      27.605  44.475  51.071  1.00  0.00     0.164 HD
BRANCH  20  24
HETATM   24  C   UNL     1      28.945  44.849  54.598  1.00  0.00     0.037 A 
HETATM   25  C   UNL     1      29.935  44.132  55.276  1.00  0.00     0.045 A 
HETATM   26  C   UNL     1      30.356  44.521  56.560  1.00  0.00     0.050 A 
HETATM   27  C   UNL     1      29.775  45.649  57.155  1.00  0.00     0.016 A 
HETATM   28  C   UNL     1      28.778  46.360  56.491  1.00  0.00     0.003 A 
HETATM   29  C   UNL     1      28.359  45.956  55.221  1.00  0.00     0.029 A 
BRANCH  26  30
HETATM   30  C   UNL     1      31.442  43.757  57.278  1.00  0.00     0.417 C 
HETATM   31  F   UNL     1      32.629  43.739  56.612  1.00  0.00    -0.166 F 
HETATM   32  F   UNL     1      31.710  44.273  58.509  1.00  0.00    -0.166 F 
HETATM   33  F   UNL     1      31.115  42.450  57.485  1.00  0.00    -0.166 F 
ENDBRANCH  26  30
ENDBRANCH  20  24
ENDBRANCH   1  18
TORSDOF 8
ENDMDL
MODEL 8
REMARK VINA RESULT:      -8.3      1.695      2.106
REMARK  8 active torsions:
REMARK  status: ('A' for Active; 'I' for Inactive)
REMARK    1  A    between atoms: O_2  and  C_3 
REMARK    2  A    between atoms: C_4  and  O_5 
REMARK    3  A    between atoms: C_7  and  C_8 
REMARK    4  A    between atoms: N_9  and  N_10 
REMARK       I    between atoms: N_10  and  C_11 
REMARK    5  A    between atoms: C_11  and  C_12 
REMARK    6  A    between atoms: C_12  and  N_13 
REMARK       I    between atoms: N_13  and  C_14 
REMARK       I    between atoms: C_14  and  N_15 
REMARK    7  A    between atoms: N_15  and  C_16 
REMARK    8  A    between atoms: C_18  and  C_19 
ROOT
HETATM    1  C   UNL     1      24.039  46.151  49.513  1.00  0.00     0.228 C 
ENDROOT
BRANCH   1   2
HETATM    2  C   UNL     1      23.246  47.423  49.183  1.00  0.00     0.255 C 
HETATM    3  N   UNL     1      21.882  47.212  49.057  1.00  0.00    -0.246 N 
HETATM    4  H   UNL     1      21.505  46.279  49.239  1.00  0.00     0.192 HD
HETATM    5  O   UNL     1      23.799  48.522  49.157  1.00  0.00    -0.270 OA
BRANCH   3   6
HETATM    6  N   UNL     1      21.032  48.252  48.833  1.00  0.00    -0.184 NA
HETATM    7  C   UNL     1      20.603  48.350  47.615  1.00  0.00     0.150 C 
BRANCH   7   8
HETATM    8  C   UNL     1      19.662  49.412  47.213  1.00  0.00    -0.014 A 
HETATM    9  C   UNL     1      19.687  50.629  47.894  1.00  0.00     0.052 A 
HETATM   10  C   UNL     1      18.797  51.626  47.510  1.00  0.00     0.099 A 
HETATM   11  C   UNL     1      17.884  51.442  46.462  1.00  0.00     0.101 A 
HETATM   12  C   UNL     1      17.873  50.222  45.785  1.00  0.00     0.040 A 
HETATM   13  C   UNL     1      18.761  49.208  46.163  1.00  0.00     0.016 A 
BRANCH  10  14
HETATM   14  O   UNL     1      18.829  52.813  48.190  1.00  0.00    -0.358 OA
HETATM   15  H   UNL     1      17.903  52.977  48.456  1.00  0.00     0.218 HD
ENDBRANCH  10  14
BRANCH  11  16
HETATM   16  O   UNL     1      17.073  52.517  46.205  1.00  0.00    -0.353 OA
HETATM   17  C   UNL     1      17.044  52.980  44.859  1.00  0.00     0.210 C 
ENDBRANCH  11  16
ENDBRANCH   7   8
ENDBRANCH   3   6
ENDBRANCH   1   2
BRANCH   1  18
HETATM   18  N   UNL     1      24.312  45.925  50.932  1.00  0.00    -0.334 N 
HETATM   19  C   UNL     1      25.598  45.967  51.416  1.00  0.00     0.321 C 
HETATM   20  N   UNL     1      25.649  45.637  52.747  1.00  0.00    -0.309 N 
HETATM   21  O   UNL     1      26.532  46.338  50.715  1.00  0.00    -0.247 OA
HETATM   22  H   UNL     1      24.765  45.660  53.234  1.00  0.00     0.170 HD
HETATM   23  H   UNL     1      23.705  45.257  51.385  1.00  0.00     0.164 HD
BRANCH  20  24
HETATM   24  C   UNL     1      26.806  45.535  53.547  1.00  0.00     0.037 A 
HETATM   25  C   UNL     1      27.611  44.394  53.597  1.00  0.00     0.045 A 
HETATM   26  C   UNL     1      28.756  44.352  54.413  1.00  0.00     0.050 A 
HETATM   27  C   UNL     1      29.090  45.479  55.175  1.00  0.00     0.016 A 
HETATM   28  C   UNL     1      28.285  46.616  55.142  1.00  0.00     0.003 A 
HETATM   29  C   UNL     1      27.144  46.640  54.337  1.00  0.00     0.029 A 
BRANCH  26  30
HETATM   30  C   UNL     1      29.634  43.124  54.444  1.00  0.00     0.417 C 
HETATM   31  F   UNL     1      30.317  42.971  55.611  1.00  0.00    -0.166 F 
HETATM   32  F   UNL     1      28.924  41.976  54.269  1.00  0.00    -0.166 F 
HETATM   33  F   UNL     1      30.579  43.132  53.462  1.00  0.00    -0.166 F 
ENDBRANCH  26  30
ENDBRANCH  20  24
ENDBRANCH   1  18
TORSDOF 8
ENDMDL
MODEL 9
REMARK VINA RESULT:      -8.2      2.448      3.054
REMARK  8 active torsions:
REMARK  status: ('A' for Active; 'I' for Inactive)
REMARK    1  A    between atoms: O_2  and  C_3 
REMARK    2  A    between atoms: C_4  and  O_5 
REMARK    3  A    between atoms: C_7  and  C_8 
REMARK    4  A    between atoms: N_9  and  N_10 
REMARK       I    between atoms: N_10  and  C_11 
REMARK    5  A    between atoms: C_11  and  C_12 
REMARK    6  A    between atoms: C_12  and  N_13 
REMARK       I    between atoms: N_13  and  C_14 
REMARK       I    between atoms: C_14  and  N_15 
REMARK    7  A    between atoms: N_15  and  C_16 
REMARK    8  A    between atoms: C_18  and  C_19 
ROOT
HETATM    1  C   UNL     1      26.340  48.941  48.735  1.00  0.00     0.228 C 
ENDROOT
BRANCH   1   2
HETATM    2  C   UNL     1      25.130  49.771  48.285  1.00  0.00     0.255 C 
HETATM    3  N   UNL     1      24.060  49.717  49.164  1.00  0.00    -0.246 N 
HETATM    4  H   UNL     1      24.162  49.199  50.040  1.00  0.00     0.192 HD
HETATM    5  O   UNL     1      25.193  50.490  47.289  1.00  0.00    -0.270 OA
BRANCH   3   6
HETATM    6  N   UNL     1      22.936  50.453  48.943  1.00  0.00    -0.184 NA
HETATM    7  C   UNL     1      21.976  49.814  48.354  1.00  0.00     0.150 C 
BRANCH   7   8
HETATM    8  C   UNL     1      20.686  50.466  48.059  1.00  0.00    -0.014 A 
HETATM    9  C   UNL     1      19.818  49.864  47.149  1.00  0.00     0.052 A 
HETATM   10  C   UNL     1      18.603  50.483  46.875  1.00  0.00     0.099 A 
HETATM   11  C   UNL     1      18.231  51.688  47.487  1.00  0.00     0.101 A 
HETATM   12  C   UNL     1      19.106  52.278  48.400  1.00  0.00     0.040 A 
HETATM   13  C   UNL     1      20.333  51.668  48.683  1.00  0.00     0.016 A 
BRANCH  10  14
HETATM   14  O   UNL     1      17.764  49.882  45.977  1.00  0.00    -0.358 OA
HETATM   15  H   UNL     1      18.317  49.712  45.188  1.00  0.00     0.218 HD
ENDBRANCH  10  14
BRANCH  11  16
HETATM   16  O   UNL     1      17.005  52.174  47.113  1.00  0.00    -0.353 OA
HETATM   17  C   UNL     1      16.059  52.378  48.156  1.00  0.00     0.210 C 
ENDBRANCH  11  16
ENDBRANCH   7   8
ENDBRANCH   3   6
ENDBRANCH   1   2
BRANCH   1  18
HETATM   18  N   UNL     1      26.045  47.824  49.632  1.00  0.00    -0.334 N 
HETATM   19  C   UNL     1      26.866  46.722  49.677  1.00  0.00     0.321 C 
HETATM   20  N   UNL     1      26.367  45.752  50.508  1.00  0.00    -0.309 N 
HETATM   21  O   UNL     1      27.940  46.702  49.086  1.00  0.00    -0.247 OA
HETATM   22  H   UNL     1      25.642  46.055  51.143  1.00  0.00     0.170 HD
HETATM   23  H   UNL     1      25.064  47.634  49.772  1.00  0.00     0.164 HD
BRANCH  20  24
HETATM   24  C   UNL     1      26.926  44.480  50.752  1.00  0.00     0.037 A 
HETATM   25  C   UNL     1      27.738  44.194  51.853  1.00  0.00     0.045 A 
HETATM   26  C   UNL     1      28.264  42.904  52.046  1.00  0.00     0.050 A 
HETATM   27  C   UNL     1      27.957  41.898  51.120  1.00  0.00     0.016 A 
HETATM   28  C   UNL     1      27.161  42.180  50.013  1.00  0.00     0.003 A 
HETATM   29  C   UNL     1      26.654  43.468  49.826  1.00  0.00     0.029 A 
BRANCH  26  30
HETATM   30  C   UNL     1      29.121  42.595  53.250  1.00  0.00     0.417 C 
HETATM   31  F   UNL     1      30.446  42.477  52.962  1.00  0.00    -0.166 F 
HETATM   32  F   UNL     1      29.028  43.554  54.211  1.00  0.00    -0.166 F 
HETATM   33  F   UNL     1      28.770  41.425  53.856  1.00  0.00    -0.166 F 
ENDBRANCH  26  30
ENDBRANCH  20  24
ENDBRANCH   1  18
TORSDOF 8
ENDMDL
MODEL 10
REMARK VINA RESULT:      -8.2      2.767      4.332
REMARK  8 active torsions:
REMARK  status: ('A' for Active; 'I' for Inactive)
REMARK    1  A    between atoms: O_2  and  C_3 
REMARK    2  A    between atoms: C_4  and  O_5 
REMARK    3  A    between atoms: C_7  and  C_8 
REMARK    4  A    between atoms: N_9  and  N_10 
REMARK       I    between atoms: N_10  and  C_11 
REMARK    5  A    between atoms: C_11  and  C_12 
REMARK    6  A    between atoms: C_12  and  N_13 
REMARK       I    between atoms: N_13  and  C_14 
REMARK       I    between atoms: C_14  and  N_15 
REMARK    7  A    between atoms: N_15  and  C_16 
REMARK    8  A    between atoms: C_18  and  C_19 
ROOT
HETATM    1  C   UNL     1      25.272  41.875  49.686  1.00  0.00     0.228 C 
ENDROOT
BRANCH   1   2
HETATM    2  C   UNL     1      24.367  42.907  48.999  1.00  0.00     0.255 C 
HETATM    3  N   UNL     1      23.977  43.946  49.828  1.00  0.00    -0.246 N 
HETATM    4  H   UNL     1      24.344  43.985  50.781  1.00  0.00     0.192 HD
HETATM    5  O   UNL     1      24.133  42.836  47.793  1.00  0.00    -0.270 OA
BRANCH   3   6
HETATM    6  N   UNL     1      23.228  44.978  49.350  1.00  0.00    -0.184 NA
HETATM    7  C   UNL     1      23.757  46.150  49.507  1.00  0.00     0.150 C 
BRANCH   7   8
HETATM    8  C   UNL     1      23.080  47.370  49.028  1.00  0.00    -0.014 A 
HETATM    9  C   UNL     1      23.538  48.612  49.464  1.00  0.00     0.052 A 
HETATM   10  C   UNL     1      22.896  49.758  49.008  1.00  0.00     0.099 A 
HETATM   11  C   UNL     1      21.807  49.697  48.127  1.00  0.00     0.101 A 
HETATM   12  C   UNL     1      21.362  48.448  47.693  1.00  0.00     0.040 A 
HETATM   13  C   UNL     1      21.996  47.286  48.147  1.00  0.00     0.016 A 
BRANCH  10  14
HETATM   14  O   UNL     1      23.354  50.971  49.449  1.00  0.00    -0.358 OA
HETATM   15  H   UNL     1      24.299  50.825  49.653  1.00  0.00     0.218 HD
ENDBRANCH  10  14
BRANCH  11  16
HETATM   16  O   UNL     1      21.281  50.912  47.771  1.00  0.00    -0.353 OA
HETATM   17  C   UNL     1      20.046  51.271  48.383  1.00  0.00     0.210 C 
ENDBRANCH  11  16
ENDBRANCH   7   8
ENDBRANCH   3   6
ENDBRANCH   1   2
BRANCH   1  18
HETATM   18  N   UNL     1      25.447  42.047  51.128  1.00  0.00    -0.334 N 
HETATM   19  C   UNL     1      26.363  42.945  51.622  1.00  0.00     0.321 C 
HETATM   20  N   UNL     1      26.440  42.888  52.991  1.00  0.00    -0.309 N 
HETATM   21  O   UNL     1      26.950  43.730  50.887  1.00  0.00    -0.247 OA
HETATM   22  H   UNL     1      25.676  42.411  53.449  1.00  0.00     0.170 HD
HETATM   23  H   UNL     1      25.329  41.209  51.677  1.00  0.00     0.164 HD
BRANCH  20  24
HETATM   24  C   UNL     1      27.304  43.634  53.820  1.00  0.00     0.037 A 
HETATM   25  C   UNL     1      28.556  43.175  54.239  1.00  0.00     0.045 A 
HETATM   26  C   UNL     1      29.376  43.965  55.063  1.00  0.00     0.050 A 
HETATM   27  C   UNL     1      28.926  45.233  55.457  1.00  0.00     0.016 A 
HETATM   28  C   UNL     1      27.673  45.691  55.056  1.00  0.00     0.003 A 
HETATM   29  C   UNL     1      26.863  44.890  54.247  1.00  0.00     0.029 A 
BRANCH  26  30
HETATM   30  C   UNL     1      30.737  43.474  55.493  1.00  0.00     0.417 C 
HETATM   31  F   UNL     1      31.369  42.721  54.551  1.00  0.00    -0.166 F 
HETATM   32  F   UNL     1      31.586  44.497  55.788  1.00  0.00    -0.166 F 
HETATM   33  F   UNL     1      30.686  42.698  56.612  1.00  0.00    -0.166 F 
ENDBRANCH  26  30
ENDBRANCH  20  24
ENDBRANCH   1  18
TORSDOF 8
ENDMDL
