MODEL 1
REMARK VINA RESULT:      -8.7      0.000      0.000
REMARK  6 active torsions:
REMARK  status: ('A' for Active; 'I' for Inactive)
REMARK    1  A    between atoms: C_2  and  N_3 
REMARK    2  A    between atoms: C_5  and  C_6 
REMARK    3  A    between atoms: C_6  and  N_7 
REMARK       I    between atoms: N_7  and  C_8 
REMARK    4  A    between atoms: C_8  and  C_9 
REMARK    5  A    between atoms: C_9  and  C_10 
REMARK    6  A    between atoms: C_11  and  C_12 
ROOT
HETATM    1  C   UNL     1      26.814  45.745  52.853  1.00  0.00     0.005 C 
HETATM    2  C   UNL     1      27.465  46.042  54.053  1.00  0.00     0.069 C 
HETATM    3  N   UNL     1      26.915  47.228  54.471  1.00  0.00    -0.277 N 
HETATM    4  H   UNL     1      27.197  47.807  55.256  1.00  0.00     0.189 HD
HETATM    5  N   UNL     1      25.854  47.610  53.756  1.00  0.00    -0.179 NA
HETATM    6  C   UNL     1      25.881  46.815  52.684  1.00  0.00     0.059 C 
HETATM    7  C   UNL     1      24.976  47.117  51.542  1.00  0.00     0.073 C 
ENDROOT
BRANCH   1   8
HETATM    8  C   UNL     1      27.067  44.590  51.926  1.00  0.00     0.146 C 
BRANCH   8   9
HETATM    9  C   UNL     1      26.056  43.469  52.063  1.00  0.00     0.222 C 
HETATM   10  N   UNL     1      26.441  42.159  52.047  1.00  0.00    -0.359 N 
HETATM   11  H   UNL     1      25.611  41.570  52.038  1.00  0.00     0.162 HD
HETATM   12  O   UNL     1      24.857  43.694  52.230  1.00  0.00    -0.273 OA
BRANCH  10  13
HETATM   13  C   UNL     1      27.686  41.554  51.592  1.00  0.00     0.155 C 
BRANCH  13  14
HETATM   14  C   UNL     1      27.685  41.114  50.126  1.00  0.00     0.206 C 
HETATM   15  N   UNL     1      28.821  40.199  49.693  1.00  0.00    -0.066 N 
HETATM   16  H   UNL     1      29.689  40.759  49.642  1.00  0.00     0.280 HD
HETATM   17  C   UNL     1      28.396  39.853  48.276  1.00  0.00     0.235 C 
HETATM   18  C   UNL     1      26.882  39.680  48.366  1.00  0.00     0.030 C 
HETATM   19  C   UNL     1      26.441  40.381  49.649  1.00  0.00     0.036 C 
BRANCH  15  20
HETATM   20  C   UNL     1      29.100  38.948  50.502  1.00  0.00     0.231 C 
HETATM   21  C   UNL     1      29.917  37.935  49.723  1.00  0.00     0.034 C 
ENDBRANCH  15  20
ENDBRANCH  13  14
ENDBRANCH  10  13
ENDBRANCH   8   9
ENDBRANCH   1   8
BRANCH   2  22
HETATM   22  C   UNL     1      28.541  45.388  54.801  1.00  0.00    -0.007 A 
HETATM   23  C   UNL     1      29.126  46.002  55.915  1.00  0.00     0.015 A 
HETATM   24  C   UNL     1      30.179  45.385  56.599  1.00  0.00     0.024 A 
HETATM   25  C   UNL     1      30.646  44.143  56.179  1.00  0.00     0.034 A 
HETATM   26 CL   UNL     1      31.948  43.390  57.011  1.00  0.00    -0.084 Cl
HETATM   27  C   UNL     1      30.063  43.507  55.088  1.00  0.00     0.024 A 
HETATM   28  C   UNL     1      29.014  44.127  54.402  1.00  0.00     0.015 A 
ENDBRANCH   2  22
TORSDOF 6
ENDMDL
MODEL 2
REMARK VINA RESULT:      -8.3      4.963      7.993
REMARK  6 active torsions:
REMARK  status: ('A' for Active; 'I' for Inactive)
REMARK    1  A    between atoms: C_2  and  N_3 
REMARK    2  A    between atoms: C_5  and  C_6 
REMARK    3  A    between atoms: C_6  and  N_7 
REMARK       I    between atoms: N_7  and  C_8 
REMARK    4  A    between atoms: C_8  and  C_9 
REMARK    5  A    between atoms: C_9  and  C_10 
REMARK    6  A    between atoms: C_11  and  C_12 
ROOT
HETATM    1  C   UNL     1      25.110  48.479  49.432  1.00  0.00     0.005 C 
HETATM    2  C   UNL     1      24.160  49.373  48.932  1.00  0.00     0.069 C 
HETATM    3  N   UNL     1      24.865  50.216  48.108  1.00  0.00    -0.277 N 
HETATM    4  H   UNL     1      24.534  51.052  47.637  1.00  0.00     0.189 HD
HETATM    5  N   UNL     1      26.123  49.827  47.892  1.00  0.00    -0.179 NA
HETATM    6  C   UNL     1      26.333  48.877  48.807  1.00  0.00     0.059 C 
HETATM    7  C   UNL     1      27.718  48.378  49.020  1.00  0.00     0.073 C 
ENDROOT
BRANCH   1   8
HETATM    8  C   UNL     1      24.904  47.378  50.433  1.00  0.00     0.146 C 
BRANCH   8   9
HETATM    9  C   UNL     1      24.744  46.008  49.804  1.00  0.00     0.222 C 
HETATM   10  N   UNL     1      25.530  44.957  50.184  1.00  0.00    -0.359 N 
HETATM   11  H   UNL     1      25.343  44.167  49.570  1.00  0.00     0.162 HD
HETATM   12  O   UNL     1      23.881  45.779  48.958  1.00  0.00    -0.273 OA
BRANCH  10  13
HETATM   13  C   UNL     1      26.791  44.945  50.913  1.00  0.00     0.155 C 
BRANCH  13  14
HETATM   14  C   UNL     1      26.691  44.451  52.357  1.00  0.00     0.206 C 
HETATM   15  N   UNL     1      27.665  43.354  52.767  1.00  0.00    -0.066 N 
HETATM   16  H   UNL     1      27.363  42.470  52.323  1.00  0.00     0.280 HD
HETATM   17  C   UNL     1      27.386  43.256  54.257  1.00  0.00     0.235 C 
HETATM   18  C   UNL     1      27.184  44.702  54.701  1.00  0.00     0.030 C 
HETATM   19  C   UNL     1      26.872  45.504  53.439  1.00  0.00     0.036 C 
BRANCH  15  20
HETATM   20  C   UNL     1      29.143  43.552  52.497  1.00  0.00     0.231 C 
HETATM   21  C   UNL     1      30.006  42.659  53.367  1.00  0.00     0.034 C 
ENDBRANCH  15  20
ENDBRANCH  13  14
ENDBRANCH  10  13
ENDBRANCH   8   9
ENDBRANCH   1   8
BRANCH   2  22
HETATM   22  C   UNL     1      22.726  49.552  49.167  1.00  0.00    -0.007 A 
HETATM   23  C   UNL     1      22.218  50.755  49.672  1.00  0.00     0.015 A 
HETATM   24  C   UNL     1      20.850  50.900  49.929  1.00  0.00     0.024 A 
HETATM   25  C   UNL     1      19.980  49.845  49.671  1.00  0.00     0.034 A 
HETATM   26 CL   UNL     1      18.302  50.018  49.998  1.00  0.00    -0.084 Cl
HETATM   27  C   UNL     1      20.463  48.649  49.149  1.00  0.00     0.024 A 
HETATM   28  C   UNL     1      21.830  48.503  48.897  1.00  0.00     0.015 A 
ENDBRANCH   2  22
TORSDOF 6
ENDMDL
MODEL 3
REMARK VINA RESULT:      -8.3      2.226      6.334
REMARK  6 active torsions:
REMARK  status: ('A' for Active; 'I' for Inactive)
REMARK    1  A    between atoms: C_2  and  N_3 
REMARK    2  A    between atoms: C_5  and  C_6 
REMARK    3  A    between atoms: C_6  and  N_7 
REMARK       I    between atoms: N_7  and  C_8 
REMARK    4  A    between atoms: C_8  and  C_9 
REMARK    5  A    between atoms: C_9  and  C_10 
REMARK    6  A    between atoms: C_11  and  C_12 
ROOT
HETATM    1  C   UNL     1      27.573  40.612  50.730  1.00  0.00     0.005 C 
HETATM    2  C   UNL     1      28.509  40.777  51.754  1.00  0.00     0.069 C 
HETATM    3  N   UNL     1      29.277  39.640  51.720  1.00  0.00    -0.277 N 
HETATM    4  H   UNL     1      30.001  39.353  52.371  1.00  0.00     0.189 HD
HETATM    5  N   UNL     1      29.041  38.864  50.659  1.00  0.00    -0.179 NA
HETATM    6  C   UNL     1      27.910  39.352  50.144  1.00  0.00     0.059 C 
HETATM    7  C   UNL     1      27.213  38.580  49.081  1.00  0.00     0.073 C 
ENDROOT
BRANCH   1   8
HETATM    8  C   UNL     1      26.441  41.527  50.358  1.00  0.00     0.146 C 
BRANCH   8   9
HETATM    9  C   UNL     1      26.755  42.433  49.184  1.00  0.00     0.222 C 
HETATM   10  N   UNL     1      26.335  43.733  49.158  1.00  0.00    -0.359 N 
HETATM   11  H   UNL     1      26.547  44.131  48.246  1.00  0.00     0.162 HD
HETATM   12  O   UNL     1      27.429  42.048  48.229  1.00  0.00    -0.273 OA
BRANCH  10  13
HETATM   13  C   UNL     1      25.311  44.402  49.950  1.00  0.00     0.155 C 
BRANCH  13  14
HETATM   14  C   UNL     1      25.840  45.167  51.165  1.00  0.00     0.206 C 
HETATM   15  N   UNL     1      25.881  46.684  51.046  1.00  0.00    -0.066 N 
HETATM   16  H   UNL     1      26.652  46.939  50.407  1.00  0.00     0.280 HD
HETATM   17  C   UNL     1      26.283  47.079  52.457  1.00  0.00     0.235 C 
HETATM   18  C   UNL     1      25.512  46.115  53.355  1.00  0.00     0.030 C 
HETATM   19  C   UNL     1      25.102  44.937  52.474  1.00  0.00     0.036 C 
BRANCH  15  20
HETATM   20  C   UNL     1      24.627  47.415  50.608  1.00  0.00     0.231 C 
HETATM   21  C   UNL     1      24.860  48.248  49.362  1.00  0.00     0.034 C 
ENDBRANCH  15  20
ENDBRANCH  13  14
ENDBRANCH  10  13
ENDBRANCH   8   9
ENDBRANCH   1   8
BRANCH   2  22
HETATM   22  C   UNL     1      28.728  41.820  52.758  1.00  0.00    -0.007 A 
HETATM   23  C   UNL     1      27.660  42.366  53.482  1.00  0.00     0.015 A 
HETATM   24  C   UNL     1      27.877  43.389  54.411  1.00  0.00     0.024 A 
HETATM   25  C   UNL     1      29.165  43.867  54.629  1.00  0.00     0.034 A 
HETATM   26 CL   UNL     1      29.430  45.133  55.760  1.00  0.00    -0.084 Cl
HETATM   27  C   UNL     1      30.242  43.323  53.935  1.00  0.00     0.024 A 
HETATM   28  C   UNL     1      30.024  42.303  53.004  1.00  0.00     0.015 A 
ENDBRANCH   2  22
TORSDOF 6
ENDMDL
MODEL 4
REMARK VINA RESULT:      -8.2      2.973      6.729
REMARK  6 active torsions:
REMARK  status: ('A' for Active; 'I' for Inactive)
REMARK    1  A    between atoms: C_2  and  N_3 
REMARK    2  A    between atoms: C_5  and  C_6 
REMARK    3  A    between atoms: C_6  and  N_7 
REMARK       I    between atoms: N_7  and  C_8 
REMARK    4  A    between atoms: C_8  and  C_9 
REMARK    5  A    between atoms: C_9  and  C_10 
REMARK    6  A    between atoms: C_11  and  C_12 
ROOT
HETATM    1  C   UNL     1      26.324  42.682  50.959  1.00  0.00     0.005 C 
HETATM    2  C   UNL     1      27.217  42.119  51.874  1.00  0.00     0.069 C 
HETATM    3  N   UNL     1      27.036  40.763  51.758  1.00  0.00    -0.277 N 
HETATM    4  H   UNL     1      27.441  40.026  52.327  1.00  0.00     0.189 HD
HETATM    5  N   UNL     1      26.258  40.410  50.732  1.00  0.00    -0.179 NA
HETATM    6  C   UNL     1      25.693  41.556  50.342  1.00  0.00     0.059 C 
HETATM    7  C   UNL     1      24.574  41.509  49.364  1.00  0.00     0.073 C 
ENDROOT
BRANCH   1   8
HETATM    8  C   UNL     1      26.052  44.138  50.710  1.00  0.00     0.146 C 
BRANCH   8   9
HETATM    9  C   UNL     1      24.834  44.663  51.445  1.00  0.00     0.222 C 
HETATM   10  N   UNL     1      23.877  45.394  50.801  1.00  0.00    -0.359 N 
HETATM   11  H   UNL     1      23.210  45.742  51.487  1.00  0.00     0.162 HD
HETATM   12  O   UNL     1      24.642  44.421  52.637  1.00  0.00    -0.273 OA
BRANCH  10  13
HETATM   13  C   UNL     1      23.930  46.085  49.520  1.00  0.00     0.155 C 
BRANCH  13  14
HETATM   14  C   UNL     1      22.616  46.743  49.092  1.00  0.00     0.206 C 
HETATM   15  N   UNL     1      22.473  48.228  49.393  1.00  0.00    -0.066 N 
HETATM   16  H   UNL     1      22.330  48.341  50.411  1.00  0.00     0.280 HD
HETATM   17  C   UNL     1      21.163  48.544  48.692  1.00  0.00     0.235 C 
HETATM   18  C   UNL     1      21.219  47.734  47.400  1.00  0.00     0.030 C 
HETATM   19  C   UNL     1      22.271  46.648  47.615  1.00  0.00     0.036 C 
BRANCH  15  20
HETATM   20  C   UNL     1      23.574  49.172  48.950  1.00  0.00     0.231 C 
HETATM   21  C   UNL     1      23.121  50.619  48.958  1.00  0.00     0.034 C 
ENDBRANCH  15  20
ENDBRANCH  13  14
ENDBRANCH  10  13
ENDBRANCH   8   9
ENDBRANCH   1   8
BRANCH   2  22
HETATM   22  C   UNL     1      28.153  42.688  52.845  1.00  0.00    -0.007 A 
HETATM   23  C   UNL     1      29.517  42.371  52.809  1.00  0.00     0.015 A 
HETATM   24  C   UNL     1      30.395  42.891  53.766  1.00  0.00     0.024 A 
HETATM   25  C   UNL     1      29.916  43.741  54.759  1.00  0.00     0.034 A 
HETATM   26 CL   UNL     1      30.993  44.369  55.942  1.00  0.00    -0.084 Cl
HETATM   27  C   UNL     1      28.569  44.085  54.798  1.00  0.00     0.024 A 
HETATM   28  C   UNL     1      27.691  43.561  53.844  1.00  0.00     0.015 A 
ENDBRANCH   2  22
TORSDOF 6
ENDMDL
MODEL 5
REMARK VINA RESULT:      -8.1      2.367      5.487
REMARK  6 active torsions:
REMARK  status: ('A' for Active; 'I' for Inactive)
REMARK    1  A    between atoms: C_2  and  N_3 
REMARK    2  A    between atoms: C_5  and  C_6 
REMARK    3  A    between atoms: C_6  and  N_7 
REMARK       I    between atoms: N_7  and  C_8 
REMARK    4  A    between atoms: C_8  and  C_9 
REMARK    5  A    between atoms: C_9  and  C_10 
REMARK    6  A    between atoms: C_11  and  C_12 
ROOT
HETATM    1  C   UNL     1      27.806  43.172  52.459  1.00  0.00     0.005 C 
HETATM    2  C   UNL     1      28.764  42.962  53.454  1.00  0.00     0.069 C 
HETATM    3  N   UNL     1      29.215  41.682  53.248  1.00  0.00    -0.277 N 
HETATM    4  H   UNL     1      29.848  41.140  53.828  1.00  0.00     0.189 HD
HETATM    5  N   UNL     1      28.777  41.134  52.112  1.00  0.00    -0.179 NA
HETATM    6  C   UNL     1      27.803  41.954  51.709  1.00  0.00     0.059 C 
HETATM    7  C   UNL     1      26.920  41.526  50.591  1.00  0.00     0.073 C 
ENDROOT
BRANCH   1   8
HETATM    8  C   UNL     1      26.941  44.383  52.250  1.00  0.00     0.146 C 
BRANCH   8   9
HETATM    9  C   UNL     1      25.497  44.175  52.662  1.00  0.00     0.222 C 
HETATM   10  N   UNL     1      24.500  44.082  51.732  1.00  0.00    -0.359 N 
HETATM   11  H   UNL     1      23.603  44.059  52.211  1.00  0.00     0.162 HD
HETATM   12  O   UNL     1      25.170  44.047  53.841  1.00  0.00    -0.273 OA
BRANCH  10  13
HETATM   13  C   UNL     1      24.491  44.468  50.328  1.00  0.00     0.155 C 
BRANCH  13  14
HETATM   14  C   UNL     1      23.834  45.820  50.040  1.00  0.00     0.206 C 
HETATM   15  N   UNL     1      24.703  47.053  50.245  1.00  0.00    -0.066 N 
HETATM   16  H   UNL     1      24.823  47.200  51.262  1.00  0.00     0.280 HD
HETATM   17  C   UNL     1      23.791  48.146  49.712  1.00  0.00     0.235 C 
HETATM   18  C   UNL     1      23.125  47.521  48.490  1.00  0.00     0.030 C 
HETATM   19  C   UNL     1      23.281  46.009  48.636  1.00  0.00     0.036 C 
BRANCH  15  20
HETATM   20  C   UNL     1      26.065  47.105  49.584  1.00  0.00     0.231 C 
HETATM   21  C   UNL     1      26.568  48.527  49.426  1.00  0.00     0.034 C 
ENDBRANCH  15  20
ENDBRANCH  13  14
ENDBRANCH  10  13
ENDBRANCH   8   9
ENDBRANCH   1   8
BRANCH   2  22
HETATM   22  C   UNL     1      29.252  43.778  54.567  1.00  0.00    -0.007 A 
HETATM   23  C   UNL     1      30.446  43.463  55.229  1.00  0.00     0.015 A 
HETATM   24  C   UNL     1      30.882  44.228  56.316  1.00  0.00     0.024 A 
HETATM   25  C   UNL     1      30.133  45.320  56.741  1.00  0.00     0.034 A 
HETATM   26 CL   UNL     1      30.662  46.252  58.085  1.00  0.00    -0.084 Cl
HETATM   27  C   UNL     1      28.955  45.662  56.084  1.00  0.00     0.024 A 
HETATM   28  C   UNL     1      28.517  44.894  55.001  1.00  0.00     0.015 A 
ENDBRANCH   2  22
TORSDOF 6
ENDMDL
MODEL 6
REMARK VINA RESULT:      -7.9      2.827      4.550
REMARK  6 active torsions:
REMARK  status: ('A' for Active; 'I' for Inactive)
REMARK    1  A    between atoms: C_2  and  N_3 
REMARK    2  A    between atoms: C_5  and  C_6 
REMARK    3  A    between atoms: C_6  and  N_7 
REMARK       I    between atoms: N_7  and  C_8 
REMARK    4  A    between atoms: C_8  and  C_9 
REMARK    5  A    between atoms: C_9  and  C_10 
REMARK    6  A    between atoms: C_11  and  C_12 
ROOT
HETATM    1  C   UNL     1      27.650  45.544  54.255  1.00  0.00     0.005 C 
HETATM    2  C   UNL     1      26.652  46.303  53.638  1.00  0.00     0.069 C 
HETATM    3  N   UNL     1      26.441  47.364  54.482  1.00  0.00    -0.277 N 
HETATM    4  H   UNL     1      25.725  48.082  54.419  1.00  0.00     0.189 HD
HETATM    5  N   UNL     1      27.334  47.451  55.470  1.00  0.00    -0.179 NA
HETATM    6  C   UNL     1      27.967  46.276  55.442  1.00  0.00     0.059 C 
HETATM    7  C   UNL     1      28.877  45.922  56.564  1.00  0.00     0.073 C 
ENDROOT
BRANCH   1   8
HETATM    8  C   UNL     1      28.227  44.233  53.801  1.00  0.00     0.146 C 
BRANCH   8   9
HETATM    9  C   UNL     1      27.379  43.034  54.176  1.00  0.00     0.222 C 
HETATM   10  N   UNL     1      27.680  41.781  53.722  1.00  0.00    -0.359 N 
HETATM   11  H   UNL     1      26.934  41.144  53.990  1.00  0.00     0.162 HD
HETATM   12  O   UNL     1      26.411  43.134  54.930  1.00  0.00    -0.273 OA
BRANCH  10  13
HETATM   13  C   UNL     1      28.542  41.366  52.623  1.00  0.00     0.155 C 
BRANCH  13  14
HETATM   14  C   UNL     1      27.925  41.523  51.231  1.00  0.00     0.206 C 
HETATM   15  N   UNL     1      28.564  40.713  50.112  1.00  0.00    -0.066 N 
HETATM   16  H   UNL     1      29.476  41.141  49.880  1.00  0.00     0.280 HD
HETATM   17  C   UNL     1      27.605  40.989  48.966  1.00  0.00     0.235 C 
HETATM   18  C   UNL     1      26.224  40.979  49.616  1.00  0.00     0.030 C 
HETATM   19  C   UNL     1      26.448  41.184  51.112  1.00  0.00     0.036 C 
BRANCH  15  20
HETATM   20  C   UNL     1      28.764  39.224  50.312  1.00  0.00     0.231 C 
HETATM   21  C   UNL     1      29.053  38.508  49.007  1.00  0.00     0.034 C 
ENDBRANCH  15  20
ENDBRANCH  13  14
ENDBRANCH  10  13
ENDBRANCH   8   9
ENDBRANCH   1   8
BRANCH   2  22
HETATM   22  C   UNL     1      25.868  46.127  52.414  1.00  0.00    -0.007 A 
HETATM   23  C   UNL     1      25.898  47.081  51.390  1.00  0.00     0.015 A 
HETATM   24  C   UNL     1      25.114  46.921  50.242  1.00  0.00     0.024 A 
HETATM   25  C   UNL     1      24.304  45.798  50.107  1.00  0.00     0.034 A 
HETATM   26 CL   UNL     1      23.331  45.607  48.703  1.00  0.00    -0.084 Cl
HETATM   27  C   UNL     1      24.276  44.828  51.104  1.00  0.00     0.024 A 
HETATM   28  C   UNL     1      25.056  44.992  52.253  1.00  0.00     0.015 A 
ENDBRANCH   2  22
TORSDOF 6
ENDMDL
MODEL 7
REMARK VINA RESULT:      -7.9     13.573     15.411
REMARK  6 active torsions:
REMARK  status: ('A' for Active; 'I' for Inactive)
REMARK    1  A    between atoms: C_2  and  N_3 
REMARK    2  A    between atoms: C_5  and  C_6 
REMARK    3  A    between atoms: C_6  and  N_7 
REMARK       I    between atoms: N_7  and  C_8 
REMARK    4  A    between atoms: C_8  and  C_9 
REMARK    5  A    between atoms: C_9  and  C_10 
REMARK    6  A    between atoms: C_11  and  C_12 
ROOT
HETATM    1  C   UNL     1      26.992  48.844  38.355  1.00  0.00     0.005 C 
HETATM    2  C   UNL     1      26.860  50.205  38.642  1.00  0.00     0.069 C 
HETATM    3  N   UNL     1      25.580  50.525  38.264  1.00  0.00    -0.277 N 
HETATM    4  H   UNL     1      25.147  51.443  38.235  1.00  0.00     0.189 HD
HETATM    5  N   UNL     1      24.833  49.466  37.947  1.00  0.00    -0.179 NA
HETATM    6  C   UNL     1      25.712  48.467  37.840  1.00  0.00     0.059 C 
HETATM    7  C   UNL     1      25.263  47.172  37.260  1.00  0.00     0.073 C 
ENDROOT
BRANCH   1   8
HETATM    8  C   UNL     1      28.212  47.981  38.508  1.00  0.00     0.146 C 
BRANCH   8   9
HETATM    9  C   UNL     1      28.309  47.301  39.859  1.00  0.00     0.222 C 
HETATM   10  N   UNL     1      29.499  47.207  40.523  1.00  0.00    -0.359 N 
HETATM   11  H   UNL     1      29.373  46.623  41.347  1.00  0.00     0.162 HD
HETATM   12  O   UNL     1      27.318  46.841  40.426  1.00  0.00    -0.273 OA
BRANCH  10  13
HETATM   13  C   UNL     1      30.861  47.374  40.033  1.00  0.00     0.155 C 
BRANCH  13  14
HETATM   14  C   UNL     1      31.760  48.237  40.920  1.00  0.00     0.206 C 
HETATM   15  N   UNL     1      32.535  49.347  40.224  1.00  0.00    -0.066 N 
HETATM   16  H   UNL     1      33.298  48.915  39.676  1.00  0.00     0.280 HD
HETATM   17  C   UNL     1      33.152  50.064  41.413  1.00  0.00     0.235 C 
HETATM   18  C   UNL     1      32.055  50.054  42.473  1.00  0.00     0.030 C 
HETATM   19  C   UNL     1      31.073  48.956  42.070  1.00  0.00     0.036 C 
BRANCH  15  20
HETATM   20  C   UNL     1      31.783  50.313  39.330  1.00  0.00     0.231 C 
HETATM   21  C   UNL     1      32.652  51.474  38.887  1.00  0.00     0.034 C 
ENDBRANCH  15  20
ENDBRANCH  13  14
ENDBRANCH  10  13
ENDBRANCH   8   9
ENDBRANCH   1   8
BRANCH   2  22
HETATM   22  C   UNL     1      27.782  51.215  39.166  1.00  0.00    -0.007 A 
HETATM   23  C   UNL     1      28.353  52.181  38.329  1.00  0.00     0.015 A 
HETATM   24  C   UNL     1      29.262  53.117  38.835  1.00  0.00     0.024 A 
HETATM   25  C   UNL     1      29.596  53.099  40.185  1.00  0.00     0.034 A 
HETATM   26 CL   UNL     1      30.722  54.240  40.804  1.00  0.00    -0.084 Cl
HETATM   27  C   UNL     1      29.023  52.161  41.038  1.00  0.00     0.024 A 
HETATM   28  C   UNL     1      28.119  51.223  40.531  1.00  0.00     0.015 A 
ENDBRANCH   2  22
TORSDOF 6
ENDMDL
MODEL 8
REMARK VINA RESULT:      -7.9      1.302      2.143
REMARK  6 active torsions:
REMARK  status: ('A' for Active; 'I' for Inactive)
REMARK    1  A    between atoms: C_2  and  N_3 
REMARK    2  A    between atoms: C_5  and  C_6 
REMARK    3  A    between atoms: C_6  and  N_7 
REMARK       I    between atoms: N_7  and  C_8 
REMARK    4  A    between atoms: C_8  and  C_9 
REMARK    5  A    between atoms: C_9  and  C_10 
REMARK    6  A    between atoms: C_11  and  C_12 
ROOT
HETATM    1  C   UNL     1      26.675  45.272  53.040  1.00  0.00     0.005 C 
HETATM    2  C   UNL     1      27.581  45.774  53.977  1.00  0.00     0.069 C 
HETATM    3  N   UNL     1      27.291  47.113  54.070  1.00  0.00    -0.277 N 
HETATM    4  H   UNL     1      27.798  47.829  54.581  1.00  0.00     0.189 HD
HETATM    5  N   UNL     1      26.174  47.466  53.430  1.00  0.00    -0.179 NA
HETATM    6  C   UNL     1      25.882  46.405  52.674  1.00  0.00     0.059 C 
HETATM    7  C   UNL     1      24.822  46.530  51.637  1.00  0.00     0.073 C 
ENDROOT
BRANCH   1   8
HETATM    8  C   UNL     1      26.581  43.872  52.504  1.00  0.00     0.146 C 
BRANCH   8   9
HETATM    9  C   UNL     1      27.016  43.746  51.057  1.00  0.00     0.222 C 
HETATM   10  N   UNL     1      26.479  42.797  50.234  1.00  0.00    -0.359 N 
HETATM   11  H   UNL     1      26.980  42.805  49.349  1.00  0.00     0.162 HD
HETATM   12  O   UNL     1      27.838  44.514  50.558  1.00  0.00    -0.273 OA
BRANCH  10  13
HETATM   13  C   UNL     1      25.733  41.589  50.560  1.00  0.00     0.155 C 
BRANCH  13  14
HETATM   14  C   UNL     1      26.535  40.291  50.448  1.00  0.00     0.206 C 
HETATM   15  N   UNL     1      26.064  39.291  49.402  1.00  0.00    -0.066 N 
HETATM   16  H   UNL     1      25.189  38.855  49.740  1.00  0.00     0.280 HD
HETATM   17  C   UNL     1      27.170  38.251  49.470  1.00  0.00     0.235 C 
HETATM   18  C   UNL     1      28.448  39.067  49.644  1.00  0.00     0.030 C 
HETATM   19  C   UNL     1      28.017  40.444  50.146  1.00  0.00     0.036 C 
BRANCH  15  20
HETATM   20  C   UNL     1      25.848  39.769  47.980  1.00  0.00     0.231 C 
HETATM   21  C   UNL     1      25.805  38.620  46.993  1.00  0.00     0.034 C 
ENDBRANCH  15  20
ENDBRANCH  13  14
ENDBRANCH  10  13
ENDBRANCH   8   9
ENDBRANCH   1   8
BRANCH   2  22
HETATM   22  C   UNL     1      28.681  45.173  54.733  1.00  0.00    -0.007 A 
HETATM   23  C   UNL     1      29.239  43.946  54.352  1.00  0.00     0.015 A 
HETATM   24  C   UNL     1      30.264  43.363  55.105  1.00  0.00     0.024 A 
HETATM   25  C   UNL     1      30.746  44.010  56.238  1.00  0.00     0.034 A 
HETATM   26 CL   UNL     1      31.996  43.288  57.171  1.00  0.00    -0.084 Cl
HETATM   27  C   UNL     1      30.220  45.239  56.622  1.00  0.00     0.024 A 
HETATM   28  C   UNL     1      29.192  45.819  55.872  1.00  0.00     0.015 A 
ENDBRANCH   2  22
TORSDOF 6
ENDMDL
MODEL 9
REMARK VINA RESULT:      -7.8      2.067      2.901
REMARK  6 active torsions:
REMARK  status: ('A' for Active; 'I' for Inactive)
REMARK    1  A    between atoms: C_2  and  N_3 
REMARK    2  A    between atoms: C_5  and  C_6 
REMARK    3  A    between atoms: C_6  and  N_7 
REMARK       I    between atoms: N_7  and  C_8 
REMARK    4  A    between atoms: C_8  and  C_9 
REMARK    5  A    between atoms: C_9  and  C_10 
REMARK    6  A    between atoms: C_11  and  C_12 
ROOT
HETATM    1  C   UNL     1      27.981  43.504  52.159  1.00  0.00     0.005 C 
HETATM    2  C   UNL     1      27.798  44.479  53.142  1.00  0.00     0.069 C 
HETATM    3  N   UNL     1      26.751  45.245  52.692  1.00  0.00    -0.277 N 
HETATM    4  H   UNL     1      26.388  46.105  53.091  1.00  0.00     0.189 HD
HETATM    5  N   UNL     1      26.135  44.737  51.622  1.00  0.00    -0.179 NA
HETATM    6  C   UNL     1      26.962  43.780  51.194  1.00  0.00     0.059 C 
HETATM    7  C   UNL     1      26.711  43.153  49.868  1.00  0.00     0.073 C 
ENDROOT
BRANCH   1   8
HETATM    8  C   UNL     1      29.035  42.435  52.103  1.00  0.00     0.146 C 
BRANCH   8   9
HETATM    9  C   UNL     1      28.548  41.077  52.567  1.00  0.00     0.222 C 
HETATM   10  N   UNL     1      28.453  40.024  51.702  1.00  0.00    -0.359 N 
HETATM   11  H   UNL     1      28.003  39.244  52.177  1.00  0.00     0.162 HD
HETATM   12  O   UNL     1      28.254  40.859  53.742  1.00  0.00    -0.273 OA
BRANCH  10  13
HETATM   13  C   UNL     1      28.437  40.007  50.245  1.00  0.00     0.155 C 
BRANCH  13  14
HETATM   14  C   UNL     1      27.449  39.016  49.626  1.00  0.00     0.206 C 
HETATM   15  N   UNL     1      27.032  39.283  48.187  1.00  0.00    -0.066 N 
HETATM   16  H   UNL     1      26.395  40.098  48.179  1.00  0.00     0.280 HD
HETATM   17  C   UNL     1      26.215  38.039  47.882  1.00  0.00     0.235 C 
HETATM   18  C   UNL     1      26.980  36.907  48.562  1.00  0.00     0.030 C 
HETATM   19  C   UNL     1      27.889  37.561  49.601  1.00  0.00     0.036 C 
BRANCH  15  20
HETATM   20  C   UNL     1      28.110  39.501  47.144  1.00  0.00     0.231 C 
HETATM   21  C   UNL     1      28.051  40.893  46.546  1.00  0.00     0.034 C 
ENDBRANCH  15  20
ENDBRANCH  13  14
ENDBRANCH  10  13
ENDBRANCH   8   9
ENDBRANCH   1   8
BRANCH   2  22
HETATM   22  C   UNL     1      28.499  44.794  54.388  1.00  0.00    -0.007 A 
HETATM   23  C   UNL     1      28.063  45.830  55.224  1.00  0.00     0.015 A 
HETATM   24  C   UNL     1      28.765  46.146  56.393  1.00  0.00     0.024 A 
HETATM   25  C   UNL     1      29.900  45.421  56.739  1.00  0.00     0.034 A 
HETATM   26 CL   UNL     1      30.769  45.818  58.167  1.00  0.00    -0.084 Cl
HETATM   27  C   UNL     1      30.337  44.374  55.932  1.00  0.00     0.024 A 
HETATM   28  C   UNL     1      29.639  44.062  54.762  1.00  0.00     0.015 A 
ENDBRANCH   2  22
TORSDOF 6
ENDMDL
MODEL 10
REMARK VINA RESULT:      -7.7      2.789      4.545
REMARK  6 active torsions:
REMARK  status: ('A' for Active; 'I' for Inactive)
REMARK    1  A    between atoms: C_2  and  N_3 
REMARK    2  A    between atoms: C_5  and  C_6 
REMARK    3  A    between atoms: C_6  and  N_7 
REMARK       I    between atoms: N_7  and  C_8 
REMARK    4  A    between atoms: C_8  and  C_9 
REMARK    5  A    between atoms: C_9  and  C_10 
REMARK    6  A    between atoms: C_11  and  C_12 
ROOT
HETATM    1  C   UNL     1      27.953  42.994  52.240  1.00  0.00     0.005 C 
HETATM    2  C   UNL     1      28.757  42.753  53.357  1.00  0.00     0.069 C 
HETATM    3  N   UNL     1      29.085  41.422  53.278  1.00  0.00    -0.277 N 
HETATM    4  H   UNL     1      29.581  40.858  53.961  1.00  0.00     0.189 HD
HETATM    5  N   UNL     1      28.727  40.847  52.127  1.00  0.00    -0.179 NA
HETATM    6  C   UNL     1      27.904  41.735  51.562  1.00  0.00     0.059 C 
HETATM    7  C   UNL     1      27.118  41.326  50.367  1.00  0.00     0.073 C 
ENDROOT
BRANCH   1   8
HETATM    8  C   UNL     1      27.260  44.270  51.859  1.00  0.00     0.146 C 
BRANCH   8   9
HETATM    9  C   UNL     1      25.748  44.188  51.943  1.00  0.00     0.222 C 
HETATM   10  N   UNL     1      24.972  44.221  50.819  1.00  0.00    -0.359 N 
HETATM   11  H   UNL     1      23.994  44.267  51.094  1.00  0.00     0.162 HD
HETATM   12  O   UNL     1      25.164  44.052  53.017  1.00  0.00    -0.273 OA
BRANCH  10  13
HETATM   13  C   UNL     1      25.300  44.652  49.467  1.00  0.00     0.155 C 
BRANCH  13  14
HETATM   14  C   UNL     1      24.127  44.626  48.484  1.00  0.00     0.206 C 
HETATM   15  N   UNL     1      24.097  43.469  47.496  1.00  0.00    -0.066 N 
HETATM   16  H   UNL     1      24.834  43.626  46.788  1.00  0.00     0.280 HD
HETATM   17  C   UNL     1      22.748  43.686  46.832  1.00  0.00     0.235 C 
HETATM   18  C   UNL     1      21.830  44.120  47.971  1.00  0.00     0.030 C 
HETATM   19  C   UNL     1      22.738  44.599  49.101  1.00  0.00     0.036 C 
BRANCH  15  20
HETATM   20  C   UNL     1      24.227  42.054  48.024  1.00  0.00     0.231 C 
HETATM   21  C   UNL     1      25.098  41.191  47.133  1.00  0.00     0.034 C 
ENDBRANCH  15  20
ENDBRANCH  13  14
ENDBRANCH  10  13
ENDBRANCH   8   9
ENDBRANCH   1   8
BRANCH   2  22
HETATM   22  C   UNL     1      29.198  43.587  54.476  1.00  0.00    -0.007 A 
HETATM   23  C   UNL     1      28.449  44.694  54.895  1.00  0.00     0.015 A 
HETATM   24  C   UNL     1      28.901  45.506  55.941  1.00  0.00     0.024 A 
HETATM   25  C   UNL     1      30.099  45.209  56.583  1.00  0.00     0.034 A 
HETATM   26 CL   UNL     1      30.660  46.214  57.859  1.00  0.00    -0.084 Cl
HETATM   27  C   UNL     1      30.846  44.101  56.195  1.00  0.00     0.024 A 
HETATM   28  C   UNL     1      30.397  43.293  55.147  1.00  0.00     0.015 A 
ENDBRANCH   2  22
TORSDOF 6
ENDMDL
