MODEL 1
REMARK VINA RESULT:     -10.6      0.000      0.000
REMARK  8 active torsions:
REMARK  status: ('A' for Active; 'I' for Inactive)
REMARK    1  A    between atoms: C_8  and  N_9 
REMARK       I    between atoms: N_9  and  C_10 
REMARK    2  A    between atoms: C_10  and  C_11 
REMARK    3  A    between atoms: C_11  and  N_12 
REMARK    4  A    between atoms: N_16  and  C_17 
REMARK    5  A    between atoms: C_19  and  N_20 
REMARK    6  A    between atoms: N_20  and  C_21 
REMARK    7  A    between atoms: C_28  and  N_29 
REMARK    8  A    between atoms: N_29  and  C_30 
ROOT
HETATM    1  C   UNL     1      26.299  45.148  50.693  1.00  0.00     0.756 A 
HETATM    2  N   UNL     1      26.502  44.253  49.736  1.00  0.00     0.131 NA
HETATM    3  C   UNL     1      26.895  43.043  50.126  1.00  0.00     0.758 A 
HETATM    4  N   UNL     1      27.180  42.737  51.382  1.00  0.00     0.131 NA
HETATM    5  C   UNL     1      26.960  43.683  52.279  1.00  0.00     0.758 A 
HETATM    6  N   UNL     1      26.503  44.893  51.974  1.00  0.00     0.131 NA
ENDROOT
BRANCH   1   7
HETATM    7  N   UNL     1      25.818  46.413  50.332  1.00  0.00    -0.210 N 
HETATM    8  C   UNL     1      26.769  47.231  49.565  1.00  0.00     0.169 C 
HETATM    9  C   UNL     1      26.245  48.675  49.416  1.00  0.00     0.256 C 
HETATM   10  N   UNL     1      24.831  48.663  48.826  1.00  0.00    -0.060 N 
HETATM   11  H   UNL     1      24.897  48.150  47.940  1.00  0.00     0.280 HD
HETATM   12  C   UNL     1      23.899  47.864  49.735  1.00  0.00     0.256 C 
HETATM   13  C   UNL     1      24.417  46.420  49.898  1.00  0.00     0.169 C 
BRANCH  10  14
HETATM   14  C   UNL     1      24.295  50.058  48.495  1.00  0.00     0.337 C 
BRANCH  14  15
HETATM   15  C   UNL     1      22.919  50.417  49.081  1.00  0.00     0.248 C 
HETATM   16  N   UNL     1      21.887  50.317  48.160  1.00  0.00    -0.325 N 
HETATM   17  H   UNL     1      22.108  49.961  47.238  1.00  0.00     0.169 HD
HETATM   18  O   UNL     1      22.813  50.739  50.259  1.00  0.00    -0.271 OA
BRANCH  16  19
HETATM   19  C   UNL     1      20.516  50.645  48.362  1.00  0.00     0.042 A 
HETATM   20  C   UNL     1      19.560  49.597  48.442  1.00  0.00    -0.014 A 
HETATM   21  C   UNL     1      19.986  48.150  48.377  1.00  0.00     0.052 C 
HETATM   22  C   UNL     1      18.194  49.936  48.558  1.00  0.00     0.042 A 
HETATM   23 CL   UNL     1      16.941  48.744  48.596  1.00  0.00    -0.084 Cl
HETATM   24  C   UNL     1      17.787  51.269  48.639  1.00  0.00     0.024 A 
HETATM   25  C   UNL     1      18.730  52.286  48.591  1.00  0.00     0.004 A 
HETATM   26  C   UNL     1      20.082  51.975  48.450  1.00  0.00     0.030 A 
ENDBRANCH  16  19
ENDBRANCH  14  15
ENDBRANCH  10  14
ENDBRANCH   1   7
BRANCH   3  27
HETATM   27  N   UNL     1      27.011  42.100  49.104  1.00  0.00    -0.187 N 
HETATM   28  H   UNL     1      26.349  42.322  48.373  1.00  0.00     0.184 HD
BRANCH  27  29
HETATM   29  C   UNL     1      27.423  40.757  49.114  1.00  0.00     0.049 A 
HETATM   30  C   UNL     1      28.696  40.326  48.728  1.00  0.00     0.030 A 
HETATM   31  C   UNL     1      29.037  38.969  48.746  1.00  0.00     0.002 A 
HETATM   32  C   UNL     1      28.099  38.015  49.129  1.00  0.00     0.000 A 
HETATM   33  C   UNL     1      26.817  38.419  49.484  1.00  0.00     0.002 A 
HETATM   34  C   UNL     1      26.481  39.775  49.467  1.00  0.00     0.030 A 
ENDBRANCH  27  29
ENDBRANCH   3  27
BRANCH   5  35
HETATM   35  N   UNL     1      27.295  43.370  53.594  1.00  0.00    -0.187 N 
HETATM   36  H   UNL     1      26.464  43.112  54.112  1.00  0.00     0.184 HD
BRANCH  35  37
HETATM   37  C   UNL     1      28.385  43.759  54.384  1.00  0.00     0.049 A 
HETATM   38  C   UNL     1      28.454  44.991  55.044  1.00  0.00     0.030 A 
HETATM   39  C   UNL     1      29.573  45.338  55.809  1.00  0.00     0.002 A 
HETATM   40  C   UNL     1      30.654  44.466  55.900  1.00  0.00     0.000 A 
HETATM   41  C   UNL     1      30.616  43.249  55.227  1.00  0.00     0.002 A 
HETATM   42  C   UNL     1      29.490  42.899  54.476  1.00  0.00     0.030 A 
ENDBRANCH  35  37
ENDBRANCH   5  35
TORSDOF 8
ENDMDL
MODEL 2
REMARK VINA RESULT:     -10.6      0.112      4.718
REMARK  8 active torsions:
REMARK  status: ('A' for Active; 'I' for Inactive)
REMARK    1  A    between atoms: C_8  and  N_9 
REMARK       I    between atoms: N_9  and  C_10 
REMARK    2  A    between atoms: C_10  and  C_11 
REMARK    3  A    between atoms: C_11  and  N_12 
REMARK    4  A    between atoms: N_16  and  C_17 
REMARK    5  A    between atoms: C_19  and  N_20 
REMARK    6  A    between atoms: N_20  and  C_21 
REMARK    7  A    between atoms: C_28  and  N_29 
REMARK    8  A    between atoms: N_29  and  C_30 
ROOT
HETATM    1  C   UNL     1      26.217  45.086  50.591  1.00  0.00     0.756 A 
HETATM    2  N   UNL     1      26.447  44.796  51.864  1.00  0.00     0.131 NA
HETATM    3  C   UNL     1      26.944  43.589  52.120  1.00  0.00     0.758 A 
HETATM    4  N   UNL     1      27.117  42.659  51.194  1.00  0.00     0.131 NA
HETATM    5  C   UNL     1      26.859  43.019  49.948  1.00  0.00     0.758 A 
HETATM    6  N   UNL     1      26.426  44.227  49.607  1.00  0.00     0.131 NA
ENDROOT
BRANCH   1   7
HETATM    7  N   UNL     1      25.760  46.370  50.271  1.00  0.00    -0.210 N 
HETATM    8  C   UNL     1      26.728  47.198  49.537  1.00  0.00     0.169 C 
HETATM    9  C   UNL     1      26.230  48.655  49.435  1.00  0.00     0.256 C 
HETATM   10  N   UNL     1      24.819  48.687  48.839  1.00  0.00    -0.060 N 
HETATM   11  H   UNL     1      24.880  48.204  47.936  1.00  0.00     0.280 HD
HETATM   12  C   UNL     1      23.869  47.873  49.716  1.00  0.00     0.256 C 
HETATM   13  C   UNL     1      24.361  46.416  49.831  1.00  0.00     0.169 C 
BRANCH  10  14
HETATM   14  C   UNL     1      24.308  50.101  48.554  1.00  0.00     0.337 C 
BRANCH  14  15
HETATM   15  C   UNL     1      22.925  50.456  49.126  1.00  0.00     0.248 C 
HETATM   16  N   UNL     1      21.901  50.337  48.199  1.00  0.00    -0.325 N 
HETATM   17  H   UNL     1      22.131  49.972  47.283  1.00  0.00     0.169 HD
HETATM   18  O   UNL     1      22.808  50.791  50.300  1.00  0.00    -0.271 OA
BRANCH  16  19
HETATM   19  C   UNL     1      20.526  50.656  48.388  1.00  0.00     0.042 A 
HETATM   20  C   UNL     1      19.577  49.601  48.470  1.00  0.00    -0.014 A 
HETATM   21  C   UNL     1      20.015  48.157  48.421  1.00  0.00     0.052 C 
HETATM   22  C   UNL     1      18.208  49.931  48.573  1.00  0.00     0.042 A 
HETATM   23 CL   UNL     1      16.964  48.730  48.611  1.00  0.00    -0.084 Cl
HETATM   24  C   UNL     1      17.789  51.261  48.639  1.00  0.00     0.024 A 
HETATM   25  C   UNL     1      18.725  52.285  48.589  1.00  0.00     0.004 A 
HETATM   26  C   UNL     1      20.080  51.984  48.461  1.00  0.00     0.030 A 
ENDBRANCH  16  19
ENDBRANCH  14  15
ENDBRANCH  10  14
ENDBRANCH   1   7
BRANCH   3  27
HETATM   27  N   UNL     1      27.259  43.350  53.458  1.00  0.00    -0.187 N 
HETATM   28  H   UNL     1      26.404  43.258  53.988  1.00  0.00     0.184 HD
BRANCH  27  29
HETATM   29  C   UNL     1      28.375  43.707  54.233  1.00  0.00     0.049 A 
HETATM   30  C   UNL     1      29.486  42.879  54.434  1.00  0.00     0.030 A 
HETATM   31  C   UNL     1      30.559  43.290  55.232  1.00  0.00     0.002 A 
HETATM   32  C   UNL     1      30.529  44.529  55.864  1.00  0.00     0.000 A 
HETATM   33  C   UNL     1      29.420  45.353  55.706  1.00  0.00     0.002 A 
HETATM   34  C   UNL     1      28.352  44.940  54.906  1.00  0.00     0.030 A 
ENDBRANCH  27  29
ENDBRANCH   3  27
BRANCH   5  35
HETATM   35  N   UNL     1      27.009  42.027  48.981  1.00  0.00    -0.187 N 
HETATM   36  H   UNL     1      26.410  42.222  48.189  1.00  0.00     0.184 HD
BRANCH  35  37
HETATM   37  C   UNL     1      27.433  40.695  49.087  1.00  0.00     0.049 A 
HETATM   38  C   UNL     1      28.743  40.283  48.813  1.00  0.00     0.030 A 
HETATM   39  C   UNL     1      29.113  38.938  48.920  1.00  0.00     0.002 A 
HETATM   40  C   UNL     1      28.167  37.981  49.274  1.00  0.00     0.000 A 
HETATM   41  C   UNL     1      26.853  38.366  49.521  1.00  0.00     0.002 A 
HETATM   42  C   UNL     1      26.491  39.713  49.428  1.00  0.00     0.030 A 
ENDBRANCH  35  37
ENDBRANCH   5  35
TORSDOF 8
ENDMDL
MODEL 3
REMARK VINA RESULT:     -10.6      1.701      2.598
REMARK  8 active torsions:
REMARK  status: ('A' for Active; 'I' for Inactive)
REMARK    1  A    between atoms: C_8  and  N_9 
REMARK       I    between atoms: N_9  and  C_10 
REMARK    2  A    between atoms: C_10  and  C_11 
REMARK    3  A    between atoms: C_11  and  N_12 
REMARK    4  A    between atoms: N_16  and  C_17 
REMARK    5  A    between atoms: C_19  and  N_20 
REMARK    6  A    between atoms: N_20  and  C_21 
REMARK    7  A    between atoms: C_28  and  N_29 
REMARK    8  A    between atoms: N_29  and  C_30 
ROOT
HETATM    1  C   UNL     1      27.767  43.804  51.957  1.00  0.00     0.756 A 
HETATM    2  N   UNL     1      27.486  42.624  51.420  1.00  0.00     0.131 NA
HETATM    3  C   UNL     1      28.127  41.573  51.924  1.00  0.00     0.758 A 
HETATM    4  N   UNL     1      29.078  41.668  52.840  1.00  0.00     0.131 NA
HETATM    5  C   UNL     1      29.307  42.877  53.323  1.00  0.00     0.758 A 
HETATM    6  N   UNL     1      28.660  43.964  52.919  1.00  0.00     0.131 NA
ENDROOT
BRANCH   1   7
HETATM    7  N   UNL     1      27.064  44.927  51.503  1.00  0.00    -0.210 N 
HETATM    8  C   UNL     1      26.977  45.043  50.040  1.00  0.00     0.169 C 
HETATM    9  C   UNL     1      26.395  46.415  49.638  1.00  0.00     0.256 C 
HETATM   10  N   UNL     1      25.060  46.649  50.353  1.00  0.00    -0.060 N 
HETATM   11  H   UNL     1      24.462  45.853  50.104  1.00  0.00     0.280 HD
HETATM   12  C   UNL     1      25.266  46.595  51.865  1.00  0.00     0.256 C 
HETATM   13  C   UNL     1      25.856  45.230  52.278  1.00  0.00     0.169 C 
BRANCH  10  14
HETATM   14  C   UNL     1      24.333  47.914  49.891  1.00  0.00     0.337 C 
BRANCH  14  15
HETATM   15  C   UNL     1      23.005  47.705  49.145  1.00  0.00     0.248 C 
HETATM   16  N   UNL     1      22.031  48.631  49.488  1.00  0.00    -0.325 N 
HETATM   17  H   UNL     1      22.290  49.379  50.120  1.00  0.00     0.169 HD
HETATM   18  O   UNL     1      22.889  46.797  48.329  1.00  0.00    -0.271 OA
BRANCH  16  19
HETATM   19  C   UNL     1      20.682  48.671  49.034  1.00  0.00     0.042 A 
HETATM   20  C   UNL     1      20.160  49.892  48.528  1.00  0.00    -0.014 A 
HETATM   21  C   UNL     1      21.031  51.120  48.410  1.00  0.00     0.052 C 
HETATM   22  C   UNL     1      18.797  49.942  48.160  1.00  0.00     0.042 A 
HETATM   23 CL   UNL     1      18.042  51.392  47.596  1.00  0.00    -0.084 Cl
HETATM   24  C   UNL     1      17.985  48.810  48.245  1.00  0.00     0.024 A 
HETATM   25  C   UNL     1      18.511  47.614  48.711  1.00  0.00     0.004 A 
HETATM   26  C   UNL     1      19.846  47.547  49.106  1.00  0.00     0.030 A 
ENDBRANCH  16  19
ENDBRANCH  14  15
ENDBRANCH  10  14
ENDBRANCH   1   7
BRANCH   3  27
HETATM   27  N   UNL     1      27.742  40.338  51.401  1.00  0.00    -0.187 N 
HETATM   28  H   UNL     1      27.287  39.799  52.124  1.00  0.00     0.184 HD
BRANCH  27  29
HETATM   29  C   UNL     1      28.271  39.561  50.356  1.00  0.00     0.049 A 
HETATM   30  C   UNL     1      29.298  38.625  50.519  1.00  0.00     0.030 A 
HETATM   31  C   UNL     1      29.791  37.894  49.433  1.00  0.00     0.002 A 
HETATM   32  C   UNL     1      29.279  38.105  48.156  1.00  0.00     0.000 A 
HETATM   33  C   UNL     1      28.281  39.055  47.965  1.00  0.00     0.002 A 
HETATM   34  C   UNL     1      27.790  39.780  49.054  1.00  0.00     0.030 A 
ENDBRANCH  27  29
ENDBRANCH   3  27
BRANCH   5  35
HETATM   35  N   UNL     1      30.332  42.978  54.261  1.00  0.00    -0.187 N 
HETATM   36  H   UNL     1      30.919  42.154  54.223  1.00  0.00     0.184 HD
BRANCH  35  37
HETATM   37  C   UNL     1      30.422  43.713  55.451  1.00  0.00     0.049 A 
HETATM   38  C   UNL     1      29.733  44.912  55.666  1.00  0.00     0.030 A 
HETATM   39  C   UNL     1      29.867  45.616  56.868  1.00  0.00     0.002 A 
HETATM   40  C   UNL     1      30.719  45.142  57.862  1.00  0.00     0.000 A 
HETATM   41  C   UNL     1      31.434  43.967  57.655  1.00  0.00     0.002 A 
HETATM   42  C   UNL     1      31.286  43.259  56.459  1.00  0.00     0.030 A 
ENDBRANCH  35  37
ENDBRANCH   5  35
TORSDOF 8
ENDMDL
MODEL 4
REMARK VINA RESULT:     -10.5      2.050      5.569
REMARK  8 active torsions:
REMARK  status: ('A' for Active; 'I' for Inactive)
REMARK    1  A    between atoms: C_8  and  N_9 
REMARK       I    between atoms: N_9  and  C_10 
REMARK    2  A    between atoms: C_10  and  C_11 
REMARK    3  A    between atoms: C_11  and  N_12 
REMARK    4  A    between atoms: N_16  and  C_17 
REMARK    5  A    between atoms: C_19  and  N_20 
REMARK    6  A    between atoms: N_20  and  C_21 
REMARK    7  A    between atoms: C_28  and  N_29 
REMARK    8  A    between atoms: N_29  and  C_30 
ROOT
HETATM    1  C   UNL     1      26.190  43.225  51.322  1.00  0.00     0.756 A 
HETATM    2  N   UNL     1      26.638  44.093  52.219  1.00  0.00     0.131 NA
HETATM    3  C   UNL     1      27.675  43.705  52.957  1.00  0.00     0.758 A 
HETATM    4  N   UNL     1      28.195  42.489  52.904  1.00  0.00     0.131 NA
HETATM    5  C   UNL     1      27.691  41.676  51.991  1.00  0.00     0.758 A 
HETATM    6  N   UNL     1      26.702  42.015  51.172  1.00  0.00     0.131 NA
ENDROOT
BRANCH   1   7
HETATM    7  N   UNL     1      25.145  43.619  50.477  1.00  0.00    -0.210 N 
HETATM    8  C   UNL     1      23.876  42.911  50.704  1.00  0.00     0.169 C 
HETATM    9  C   UNL     1      22.864  43.241  49.588  1.00  0.00     0.256 C 
HETATM   10  N   UNL     1      22.705  44.759  49.453  1.00  0.00    -0.060 N 
HETATM   11  H   UNL     1      22.427  45.098  50.380  1.00  0.00     0.280 HD
HETATM   12  C   UNL     1      24.056  45.394  49.132  1.00  0.00     0.256 C 
HETATM   13  C   UNL     1      25.080  45.065  50.239  1.00  0.00     0.169 C 
BRANCH  10  14
HETATM   14  C   UNL     1      21.601  45.173  48.478  1.00  0.00     0.337 C 
BRANCH  14  15
HETATM   15  C   UNL     1      21.542  46.664  48.106  1.00  0.00     0.248 C 
HETATM   16  N   UNL     1      21.100  47.472  49.143  1.00  0.00    -0.325 N 
HETATM   17  H   UNL     1      20.930  47.038  50.042  1.00  0.00     0.169 HD
HETATM   18  O   UNL     1      21.881  47.038  46.988  1.00  0.00    -0.271 OA
BRANCH  16  19
HETATM   19  C   UNL     1      20.868  48.876  49.104  1.00  0.00     0.042 A 
HETATM   20  C   UNL     1      19.629  49.384  49.579  1.00  0.00    -0.014 A 
HETATM   21  C   UNL     1      18.590  48.467  50.176  1.00  0.00     0.052 C 
HETATM   22  C   UNL     1      19.376  50.769  49.457  1.00  0.00     0.042 A 
HETATM   23 CL   UNL     1      17.877  51.485  49.940  1.00  0.00    -0.084 Cl
HETATM   24  C   UNL     1      20.335  51.633  48.925  1.00  0.00     0.024 A 
HETATM   25  C   UNL     1      21.554  51.132  48.492  1.00  0.00     0.004 A 
HETATM   26  C   UNL     1      21.816  49.765  48.577  1.00  0.00     0.030 A 
ENDBRANCH  16  19
ENDBRANCH  14  15
ENDBRANCH  10  14
ENDBRANCH   1   7
BRANCH   3  27
HETATM   27  N   UNL     1      28.178  44.674  53.826  1.00  0.00    -0.187 N 
HETATM   28  H   UNL     1      28.128  45.578  53.378  1.00  0.00     0.184 HD
BRANCH  27  29
HETATM   29  C   UNL     1      29.129  44.601  54.858  1.00  0.00     0.049 A 
HETATM   30  C   UNL     1      30.046  43.554  55.004  1.00  0.00     0.030 A 
HETATM   31  C   UNL     1      30.958  43.534  56.065  1.00  0.00     0.002 A 
HETATM   32  C   UNL     1      30.950  44.550  57.016  1.00  0.00     0.000 A 
HETATM   33  C   UNL     1      30.024  45.582  56.909  1.00  0.00     0.002 A 
HETATM   34  C   UNL     1      29.118  45.600  55.845  1.00  0.00     0.030 A 
ENDBRANCH  27  29
ENDBRANCH   3  27
BRANCH   5  35
HETATM   35  N   UNL     1      28.217  40.387  51.962  1.00  0.00    -0.187 N 
HETATM   36  H   UNL     1      28.592  40.145  52.871  1.00  0.00     0.184 HD
BRANCH  35  37
HETATM   37  C   UNL     1      28.702  39.614  50.898  1.00  0.00     0.049 A 
HETATM   38  C   UNL     1      29.564  38.525  51.071  1.00  0.00     0.030 A 
HETATM   39  C   UNL     1      30.032  37.794  49.973  1.00  0.00     0.002 A 
HETATM   40  C   UNL     1      29.665  38.164  48.682  1.00  0.00     0.000 A 
HETATM   41  C   UNL     1      28.833  39.261  48.488  1.00  0.00     0.002 A 
HETATM   42  C   UNL     1      28.356  39.979  49.588  1.00  0.00     0.030 A 
ENDBRANCH  35  37
ENDBRANCH   5  35
TORSDOF 8
ENDMDL
MODEL 5
REMARK VINA RESULT:     -10.5      2.029      2.845
REMARK  8 active torsions:
REMARK  status: ('A' for Active; 'I' for Inactive)
REMARK    1  A    between atoms: C_8  and  N_9 
REMARK       I    between atoms: N_9  and  C_10 
REMARK    2  A    between atoms: C_10  and  C_11 
REMARK    3  A    between atoms: C_11  and  N_12 
REMARK    4  A    between atoms: N_16  and  C_17 
REMARK    5  A    between atoms: C_19  and  N_20 
REMARK    6  A    between atoms: N_20  and  C_21 
REMARK    7  A    between atoms: C_28  and  N_29 
REMARK    8  A    between atoms: N_29  and  C_30 
ROOT
HETATM    1  C   UNL     1      26.231  43.426  51.347  1.00  0.00     0.756 A 
HETATM    2  N   UNL     1      26.708  42.193  51.261  1.00  0.00     0.131 NA
HETATM    3  C   UNL     1      27.662  41.861  52.128  1.00  0.00     0.758 A 
HETATM    4  N   UNL     1      28.206  42.717  52.977  1.00  0.00     0.131 NA
HETATM    5  C   UNL     1      27.684  43.931  53.001  1.00  0.00     0.758 A 
HETATM    6  N   UNL     1      26.685  44.316  52.214  1.00  0.00     0.131 NA
ENDROOT
BRANCH   1   7
HETATM    7  N   UNL     1      25.178  43.795  50.500  1.00  0.00    -0.210 N 
HETATM    8  C   UNL     1      23.932  43.045  50.714  1.00  0.00     0.169 C 
HETATM    9  C   UNL     1      22.915  43.353  49.595  1.00  0.00     0.256 C 
HETATM   10  N   UNL     1      22.708  44.866  49.475  1.00  0.00    -0.060 N 
HETATM   11  H   UNL     1      22.415  45.188  50.404  1.00  0.00     0.280 HD
HETATM   12  C   UNL     1      24.040  45.548  49.168  1.00  0.00     0.256 C 
HETATM   13  C   UNL     1      25.068  45.241  50.276  1.00  0.00     0.169 C 
BRANCH  10  14
HETATM   14  C   UNL     1      21.596  45.256  48.498  1.00  0.00     0.337 C 
BRANCH  14  15
HETATM   15  C   UNL     1      21.495  46.747  48.137  1.00  0.00     0.248 C 
HETATM   16  N   UNL     1      21.034  47.534  49.180  1.00  0.00    -0.325 N 
HETATM   17  H   UNL     1      20.878  47.090  50.077  1.00  0.00     0.169 HD
HETATM   18  O   UNL     1      21.820  47.137  47.020  1.00  0.00    -0.271 OA
BRANCH  16  19
HETATM   19  C   UNL     1      20.762  48.932  49.151  1.00  0.00     0.042 A 
HETATM   20  C   UNL     1      19.490  49.397  49.580  1.00  0.00    -0.014 A 
HETATM   21  C   UNL     1      18.454  48.441  50.120  1.00  0.00     0.052 C 
HETATM   22  C   UNL     1      19.202  50.776  49.468  1.00  0.00     0.042 A 
HETATM   23 CL   UNL     1      17.664  51.441  49.896  1.00  0.00    -0.084 Cl
HETATM   24  C   UNL     1      20.157  51.675  48.990  1.00  0.00     0.024 A 
HETATM   25  C   UNL     1      21.408  51.216  48.602  1.00  0.00     0.004 A 
HETATM   26  C   UNL     1      21.705  49.856  48.678  1.00  0.00     0.030 A 
ENDBRANCH  16  19
ENDBRANCH  14  15
ENDBRANCH  10  14
ENDBRANCH   1   7
BRANCH   3  27
HETATM   27  N   UNL     1      28.077  40.530  52.070  1.00  0.00    -0.187 N 
HETATM   28  H   UNL     1      28.318  40.218  53.000  1.00  0.00     0.184 HD
BRANCH  27  29
HETATM   29  C   UNL     1      28.677  39.782  51.043  1.00  0.00     0.049 A 
HETATM   30  C   UNL     1      28.418  39.973  49.681  1.00  0.00     0.030 A 
HETATM   31  C   UNL     1      29.039  39.182  48.708  1.00  0.00     0.002 A 
HETATM   32  C   UNL     1      29.914  38.167  49.084  1.00  0.00     0.000 A 
HETATM   33  C   UNL     1      30.159  37.937  50.433  1.00  0.00     0.002 A 
HETATM   34  C   UNL     1      29.539  38.732  51.401  1.00  0.00     0.030 A 
ENDBRANCH  27  29
ENDBRANCH   3  27
BRANCH   5  35
HETATM   35  N   UNL     1      28.283  44.839  53.871  1.00  0.00    -0.187 N 
HETATM   36  H   UNL     1      28.303  45.760  53.451  1.00  0.00     0.184 HD
BRANCH  35  37
HETATM   37  C   UNL     1      29.196  44.646  54.916  1.00  0.00     0.049 A 
HETATM   38  C   UNL     1      29.351  45.547  55.977  1.00  0.00     0.030 A 
HETATM   39  C   UNL     1      30.288  45.315  56.989  1.00  0.00     0.002 A 
HETATM   40  C   UNL     1      31.106  44.191  56.938  1.00  0.00     0.000 A 
HETATM   41  C   UNL     1      30.988  43.299  55.877  1.00  0.00     0.002 A 
HETATM   42  C   UNL     1      30.040  43.526  54.875  1.00  0.00     0.030 A 
ENDBRANCH  35  37
ENDBRANCH   5  35
TORSDOF 8
ENDMDL
MODEL 6
REMARK VINA RESULT:     -10.4      4.196     11.702
REMARK  8 active torsions:
REMARK  status: ('A' for Active; 'I' for Inactive)
REMARK    1  A    between atoms: C_8  and  N_9 
REMARK       I    between atoms: N_9  and  C_10 
REMARK    2  A    between atoms: C_10  and  C_11 
REMARK    3  A    between atoms: C_11  and  N_12 
REMARK    4  A    between atoms: N_16  and  C_17 
REMARK    5  A    between atoms: C_19  and  N_20 
REMARK    6  A    between atoms: N_20  and  C_21 
REMARK    7  A    between atoms: C_28  and  N_29 
REMARK    8  A    between atoms: N_29  and  C_30 
ROOT
HETATM    1  C   UNL     1      23.195  46.711  48.973  1.00  0.00     0.756 A 
HETATM    2  N   UNL     1      22.905  47.913  49.452  1.00  0.00     0.131 NA
HETATM    3  C   UNL     1      21.919  48.573  48.849  1.00  0.00     0.758 A 
HETATM    4  N   UNL     1      21.306  48.134  47.761  1.00  0.00     0.131 NA
HETATM    5  C   UNL     1      21.654  46.931  47.337  1.00  0.00     0.758 A 
HETATM    6  N   UNL     1      22.580  46.184  47.928  1.00  0.00     0.131 NA
ENDROOT
BRANCH   1   7
HETATM    7  N   UNL     1      24.178  45.954  49.623  1.00  0.00    -0.210 N 
HETATM    8  C   UNL     1      24.697  46.558  50.858  1.00  0.00     0.169 C 
HETATM    9  C   UNL     1      25.924  45.776  51.371  1.00  0.00     0.256 C 
HETATM   10  N   UNL     1      25.578  44.290  51.513  1.00  0.00    -0.060 N 
HETATM   11  H   UNL     1      24.766  44.246  52.137  1.00  0.00     0.280 HD
HETATM   12  C   UNL     1      25.134  43.731  50.163  1.00  0.00     0.256 C 
HETATM   13  C   UNL     1      23.911  44.511  49.636  1.00  0.00     0.169 C 
BRANCH  10  14
HETATM   14  C   UNL     1      26.688  43.464  52.167  1.00  0.00     0.337 C 
BRANCH  14  15
HETATM   15  C   UNL     1      27.050  43.832  53.616  1.00  0.00     0.248 C 
HETATM   16  N   UNL     1      28.303  44.412  53.739  1.00  0.00    -0.325 N 
HETATM   17  H   UNL     1      28.822  44.603  52.890  1.00  0.00     0.169 HD
HETATM   18  O   UNL     1      26.256  43.620  54.526  1.00  0.00    -0.271 OA
BRANCH  16  19
HETATM   19  C   UNL     1      28.960  44.800  54.941  1.00  0.00     0.042 A 
HETATM   20  C   UNL     1      30.103  44.073  55.370  1.00  0.00    -0.014 A 
HETATM   21  C   UNL     1      30.660  42.942  54.540  1.00  0.00     0.052 C 
HETATM   22  C   UNL     1      30.695  44.413  56.606  1.00  0.00     0.042 A 
HETATM   23 CL   UNL     1      32.046  43.551  57.256  1.00  0.00    -0.084 Cl
HETATM   24  C   UNL     1      30.203  45.469  57.376  1.00  0.00     0.024 A 
HETATM   25  C   UNL     1      29.105  46.194  56.934  1.00  0.00     0.004 A 
HETATM   26  C   UNL     1      28.488  45.859  55.730  1.00  0.00     0.030 A 
ENDBRANCH  16  19
ENDBRANCH  14  15
ENDBRANCH  10  14
ENDBRANCH   1   7
BRANCH   3  27
HETATM   27  N   UNL     1      21.579  49.793  49.433  1.00  0.00    -0.187 N 
HETATM   28  H   UNL     1      22.063  49.883  50.316  1.00  0.00     0.184 HD
BRANCH  27  29
HETATM   29  C   UNL     1      20.426  50.589  49.330  1.00  0.00     0.049 A 
HETATM   30  C   UNL     1      20.331  51.727  48.521  1.00  0.00     0.030 A 
HETATM   31  C   UNL     1      19.156  52.486  48.476  1.00  0.00     0.002 A 
HETATM   32  C   UNL     1      18.062  52.133  49.260  1.00  0.00     0.000 A 
HETATM   33  C   UNL     1      18.148  51.026  50.097  1.00  0.00     0.002 A 
HETATM   34  C   UNL     1      19.322  50.269  50.137  1.00  0.00     0.030 A 
ENDBRANCH  27  29
ENDBRANCH   3  27
BRANCH   5  35
HETATM   35  N   UNL     1      21.032  46.488  46.172  1.00  0.00    -0.187 N 
HETATM   36  H   UNL     1      21.343  47.039  45.382  1.00  0.00     0.184 HD
BRANCH  35  37
HETATM   37  C   UNL     1      19.824  45.804  45.976  1.00  0.00     0.049 A 
HETATM   38  C   UNL     1      18.825  45.718  46.953  1.00  0.00     0.030 A 
HETATM   39  C   UNL     1      17.642  45.010  46.713  1.00  0.00     0.002 A 
HETATM   40  C   UNL     1      17.456  44.352  45.500  1.00  0.00     0.000 A 
HETATM   41  C   UNL     1      18.451  44.402  44.529  1.00  0.00     0.002 A 
HETATM   42  C   UNL     1      19.625  45.123  44.766  1.00  0.00     0.030 A 
ENDBRANCH  35  37
ENDBRANCH   5  35
TORSDOF 8
ENDMDL
MODEL 7
REMARK VINA RESULT:     -10.3      1.144      1.828
REMARK  8 active torsions:
REMARK  status: ('A' for Active; 'I' for Inactive)
REMARK    1  A    between atoms: C_8  and  N_9 
REMARK       I    between atoms: N_9  and  C_10 
REMARK    2  A    between atoms: C_10  and  C_11 
REMARK    3  A    between atoms: C_11  and  N_12 
REMARK    4  A    between atoms: N_16  and  C_17 
REMARK    5  A    between atoms: C_19  and  N_20 
REMARK    6  A    between atoms: N_20  and  C_21 
REMARK    7  A    between atoms: C_28  and  N_29 
REMARK    8  A    between atoms: N_29  and  C_30 
ROOT
HETATM    1  C   UNL     1      26.323  44.435  50.349  1.00  0.00     0.756 A 
HETATM    2  N   UNL     1      26.681  43.512  49.467  1.00  0.00     0.131 NA
HETATM    3  C   UNL     1      27.170  42.376  49.959  1.00  0.00     0.758 A 
HETATM    4  N   UNL     1      27.399  42.177  51.247  1.00  0.00     0.131 NA
HETATM    5  C   UNL     1      27.023  43.145  52.066  1.00  0.00     0.758 A 
HETATM    6  N   UNL     1      26.465  44.278  51.655  1.00  0.00     0.131 NA
ENDROOT
BRANCH   1   7
HETATM    7  N   UNL     1      25.739  45.617  49.877  1.00  0.00    -0.210 N 
HETATM    8  C   UNL     1      24.269  45.618  49.886  1.00  0.00     0.169 C 
HETATM    9  C   UNL     1      23.723  46.854  49.141  1.00  0.00     0.256 C 
HETATM   10  N   UNL     1      24.341  48.131  49.718  1.00  0.00    -0.060 N 
HETATM   11  H   UNL     1      24.127  48.122  50.721  1.00  0.00     0.280 HD
HETATM   12  C   UNL     1      25.861  48.076  49.586  1.00  0.00     0.256 C 
HETATM   13  C   UNL     1      26.419  46.839  50.321  1.00  0.00     0.169 C 
BRANCH  10  14
HETATM   14  C   UNL     1      23.736  49.415  49.146  1.00  0.00     0.337 C 
BRANCH  14  15
HETATM   15  C   UNL     1      22.334  49.293  48.526  1.00  0.00     0.248 C 
HETATM   16  N   UNL     1      21.316  49.280  49.467  1.00  0.00    -0.325 N 
HETATM   17  H   UNL     1      21.567  49.420  50.438  1.00  0.00     0.169 HD
HETATM   18  O   UNL     1      22.199  49.231  47.308  1.00  0.00    -0.271 OA
BRANCH  16  19
HETATM   19  C   UNL     1      19.923  49.109  49.228  1.00  0.00     0.042 A 
HETATM   20  C   UNL     1      19.106  50.258  49.050  1.00  0.00    -0.014 A 
HETATM   21  C   UNL     1      19.705  51.644  49.051  1.00  0.00     0.052 C 
HETATM   22  C   UNL     1      17.713  50.080  48.898  1.00  0.00     0.042 A 
HETATM   23 CL   UNL     1      16.619  51.410  48.743  1.00  0.00    -0.084 Cl
HETATM   24  C   UNL     1      17.148  48.804  48.876  1.00  0.00     0.024 A 
HETATM   25  C   UNL     1      17.957  47.685  49.019  1.00  0.00     0.004 A 
HETATM   26  C   UNL     1      19.331  47.838  49.197  1.00  0.00     0.030 A 
ENDBRANCH  16  19
ENDBRANCH  14  15
ENDBRANCH  10  14
ENDBRANCH   1   7
BRANCH   3  27
HETATM   27  N   UNL     1      27.452  41.393  49.010  1.00  0.00    -0.187 N 
HETATM   28  H   UNL     1      27.023  41.649  48.131  1.00  0.00     0.184 HD
BRANCH  27  29
HETATM   29  C   UNL     1      27.717  40.019  49.138  1.00  0.00     0.049 A 
HETATM   30  C   UNL     1      29.000  39.464  49.112  1.00  0.00     0.030 A 
HETATM   31  C   UNL     1      29.194  38.083  49.229  1.00  0.00     0.002 A 
HETATM   32  C   UNL     1      28.101  37.229  49.349  1.00  0.00     0.000 A 
HETATM   33  C   UNL     1      26.815  37.757  49.342  1.00  0.00     0.002 A 
HETATM   34  C   UNL     1      26.627  39.137  49.228  1.00  0.00     0.030 A 
ENDBRANCH  27  29
ENDBRANCH   3  27
BRANCH   5  35
HETATM   35  N   UNL     1      27.298  42.947  53.416  1.00  0.00    -0.187 N 
HETATM   36  H   UNL     1      26.459  42.657  53.903  1.00  0.00     0.184 HD
BRANCH  35  37
HETATM   37  C   UNL     1      28.305  43.474  54.237  1.00  0.00     0.049 A 
HETATM   38  C   UNL     1      28.228  44.742  54.828  1.00  0.00     0.030 A 
HETATM   39  C   UNL     1      29.268  45.228  55.628  1.00  0.00     0.002 A 
HETATM   40  C   UNL     1      30.414  44.463  55.824  1.00  0.00     0.000 A 
HETATM   41  C   UNL     1      30.521  43.213  55.222  1.00  0.00     0.002 A 
HETATM   42  C   UNL     1      29.474  42.724  54.436  1.00  0.00     0.030 A 
ENDBRANCH  35  37
ENDBRANCH   5  35
TORSDOF 8
ENDMDL
MODEL 8
REMARK VINA RESULT:     -10.1      2.292      3.614
REMARK  8 active torsions:
REMARK  status: ('A' for Active; 'I' for Inactive)
REMARK    1  A    between atoms: C_8  and  N_9 
REMARK       I    between atoms: N_9  and  C_10 
REMARK    2  A    between atoms: C_10  and  C_11 
REMARK    3  A    between atoms: C_11  and  N_12 
REMARK    4  A    between atoms: N_16  and  C_17 
REMARK    5  A    between atoms: C_19  and  N_20 
REMARK    6  A    between atoms: N_20  and  C_21 
REMARK    7  A    between atoms: C_28  and  N_29 
REMARK    8  A    between atoms: N_29  and  C_30 
ROOT
HETATM    1  C   UNL     1      26.730  41.779  51.155  1.00  0.00     0.756 A 
HETATM    2  N   UNL     1      27.300  40.834  50.420  1.00  0.00     0.131 NA
HETATM    3  C   UNL     1      28.373  40.242  50.939  1.00  0.00     0.758 A 
HETATM    4  N   UNL     1      28.936  40.618  52.076  1.00  0.00     0.131 NA
HETATM    5  C   UNL     1      28.315  41.572  52.750  1.00  0.00     0.758 A 
HETATM    6  N   UNL     1      27.202  42.162  52.329  1.00  0.00     0.131 NA
ENDROOT
BRANCH   1   7
HETATM    7  N   UNL     1      25.558  42.379  50.677  1.00  0.00    -0.210 N 
HETATM    8  C   UNL     1      25.277  43.706  51.244  1.00  0.00     0.169 C 
HETATM    9  C   UNL     1      23.865  44.180  50.840  1.00  0.00     0.256 C 
HETATM   10  N   UNL     1      23.704  44.115  49.318  1.00  0.00    -0.060 N 
HETATM   11  H   UNL     1      24.462  44.686  48.927  1.00  0.00     0.280 HD
HETATM   12  C   UNL     1      23.928  42.684  48.835  1.00  0.00     0.256 C 
HETATM   13  C   UNL     1      25.335  42.196  49.239  1.00  0.00     0.169 C 
BRANCH  10  14
HETATM   14  C   UNL     1      22.389  44.718  48.817  1.00  0.00     0.337 C 
BRANCH  14  15
HETATM   15  C   UNL     1      22.475  46.120  48.191  1.00  0.00     0.248 C 
HETATM   16  N   UNL     1      22.724  47.121  49.117  1.00  0.00    -0.325 N 
HETATM   17  H   UNL     1      22.893  46.846  50.077  1.00  0.00     0.169 HD
HETATM   18  O   UNL     1      22.341  46.267  46.981  1.00  0.00    -0.271 OA
BRANCH  16  19
HETATM   19  C   UNL     1      22.791  48.523  48.875  1.00  0.00     0.042 A 
HETATM   20  C   UNL     1      21.603  49.296  48.962  1.00  0.00    -0.014 A 
HETATM   21  C   UNL     1      20.292  48.664  49.366  1.00  0.00     0.052 C 
HETATM   22  C   UNL     1      21.666  50.669  48.638  1.00  0.00     0.042 A 
HETATM   23 CL   UNL     1      20.269  51.690  48.645  1.00  0.00    -0.084 Cl
HETATM   24  C   UNL     1      22.874  51.272  48.283  1.00  0.00     0.024 A 
HETATM   25  C   UNL     1      24.036  50.515  48.230  1.00  0.00     0.004 A 
HETATM   26  C   UNL     1      23.993  49.152  48.520  1.00  0.00     0.030 A 
ENDBRANCH  16  19
ENDBRANCH  14  15
ENDBRANCH  10  14
ENDBRANCH   1   7
BRANCH   3  27
HETATM   27  N   UNL     1      28.894  39.192  50.183  1.00  0.00    -0.187 N 
HETATM   28  H   UNL     1      29.879  39.352  50.028  1.00  0.00     0.184 HD
BRANCH  27  29
HETATM   29  C   UNL     1      28.300  38.335  49.241  1.00  0.00     0.049 A 
HETATM   30  C   UNL     1      27.304  37.402  49.550  1.00  0.00     0.030 A 
HETATM   31  C   UNL     1      26.764  36.566  48.566  1.00  0.00     0.002 A 
HETATM   32  C   UNL     1      27.231  36.632  47.257  1.00  0.00     0.000 A 
HETATM   33  C   UNL     1      28.245  37.528  46.935  1.00  0.00     0.002 A 
HETATM   34  C   UNL     1      28.779  38.363  47.920  1.00  0.00     0.030 A 
ENDBRANCH  27  29
ENDBRANCH   3  27
BRANCH   5  35
HETATM   35  N   UNL     1      28.929  41.989  53.928  1.00  0.00    -0.187 N 
HETATM   36  H   UNL     1      28.999  41.214  54.576  1.00  0.00     0.184 HD
BRANCH  35  37
HETATM   37  C   UNL     1      29.032  43.259  54.513  1.00  0.00     0.049 A 
HETATM   38  C   UNL     1      28.040  44.240  54.397  1.00  0.00     0.030 A 
HETATM   39  C   UNL     1      28.197  45.498  54.988  1.00  0.00     0.002 A 
HETATM   40  C   UNL     1      29.366  45.802  55.680  1.00  0.00     0.000 A 
HETATM   41  C   UNL     1      30.376  44.851  55.781  1.00  0.00     0.002 A 
HETATM   42  C   UNL     1      30.208  43.590  55.202  1.00  0.00     0.030 A 
ENDBRANCH  35  37
ENDBRANCH   5  35
TORSDOF 8
ENDMDL
MODEL 9
REMARK VINA RESULT:     -10.1      4.429      9.763
REMARK  8 active torsions:
REMARK  status: ('A' for Active; 'I' for Inactive)
REMARK    1  A    between atoms: C_8  and  N_9 
REMARK       I    between atoms: N_9  and  C_10 
REMARK    2  A    between atoms: C_10  and  C_11 
REMARK    3  A    between atoms: C_11  and  N_12 
REMARK    4  A    between atoms: N_16  and  C_17 
REMARK    5  A    between atoms: C_19  and  N_20 
REMARK    6  A    between atoms: N_20  and  C_21 
REMARK    7  A    between atoms: C_28  and  N_29 
REMARK    8  A    between atoms: N_29  and  C_30 
ROOT
HETATM    1  C   UNL     1      26.641  43.709  51.522  1.00  0.00     0.756 A 
HETATM    2  N   UNL     1      25.886  44.616  50.919  1.00  0.00     0.131 NA
HETATM    3  C   UNL     1      25.803  45.808  51.507  1.00  0.00     0.758 A 
HETATM    4  N   UNL     1      26.344  46.080  52.683  1.00  0.00     0.131 NA
HETATM    5  C   UNL     1      27.077  45.124  53.227  1.00  0.00     0.758 A 
HETATM    6  N   UNL     1      27.262  43.933  52.668  1.00  0.00     0.131 NA
ENDROOT
BRANCH   1   7
HETATM    7  N   UNL     1      26.812  42.465  50.902  1.00  0.00    -0.210 N 
HETATM    8  C   UNL     1      27.788  41.583  51.560  1.00  0.00     0.169 C 
HETATM    9  C   UNL     1      28.077  40.346  50.686  1.00  0.00     0.256 C 
HETATM   10  N   UNL     1      26.766  39.644  50.317  1.00  0.00    -0.060 N 
HETATM   11  H   UNL     1      26.301  39.426  51.205  1.00  0.00     0.280 HD
HETATM   12  C   UNL     1      25.856  40.611  49.563  1.00  0.00     0.256 C 
HETATM   13  C   UNL     1      25.565  41.857  50.425  1.00  0.00     0.169 C 
BRANCH  10  14
HETATM   14  C   UNL     1      26.969  38.316  49.584  1.00  0.00     0.337 C 
BRANCH  14  15
HETATM   15  C   UNL     1      27.976  38.324  48.422  1.00  0.00     0.248 C 
HETATM   16  N   UNL     1      27.381  38.485  47.180  1.00  0.00    -0.325 N 
HETATM   17  H   UNL     1      26.382  38.649  47.151  1.00  0.00     0.169 HD
HETATM   18  O   UNL     1      29.177  38.209  48.643  1.00  0.00    -0.271 OA
BRANCH  16  19
HETATM   19  C   UNL     1      28.021  38.466  45.908  1.00  0.00     0.042 A 
HETATM   20  C   UNL     1      28.198  39.688  45.206  1.00  0.00    -0.014 A 
HETATM   21  C   UNL     1      27.774  41.003  45.815  1.00  0.00     0.052 C 
HETATM   22  C   UNL     1      28.757  39.647  43.909  1.00  0.00     0.042 A 
HETATM   23 CL   UNL     1      28.956  41.065  42.939  1.00  0.00    -0.084 Cl
HETATM   24  C   UNL     1      29.172  38.441  43.341  1.00  0.00     0.024 A 
HETATM   25  C   UNL     1      29.024  37.256  44.047  1.00  0.00     0.004 A 
HETATM   26  C   UNL     1      28.449  37.268  45.317  1.00  0.00     0.030 A 
ENDBRANCH  16  19
ENDBRANCH  14  15
ENDBRANCH  10  14
ENDBRANCH   1   7
BRANCH   3  27
HETATM   27  N   UNL     1      25.076  46.766  50.801  1.00  0.00    -0.187 N 
HETATM   28  H   UNL     1      24.151  46.406  50.610  1.00  0.00     0.184 HD
BRANCH  27  29
HETATM   29  C   UNL     1      25.480  47.791  49.929  1.00  0.00     0.049 A 
HETATM   30  C   UNL     1      26.812  48.179  49.742  1.00  0.00     0.030 A 
HETATM   31  C   UNL     1      27.146  49.220  48.868  1.00  0.00     0.002 A 
HETATM   32  C   UNL     1      26.149  49.909  48.184  1.00  0.00     0.000 A 
HETATM   33  C   UNL     1      24.817  49.562  48.381  1.00  0.00     0.002 A 
HETATM   34  C   UNL     1      24.488  48.520  49.252  1.00  0.00     0.030 A 
ENDBRANCH  27  29
ENDBRANCH   3  27
BRANCH   5  35
HETATM   35  N   UNL     1      27.615  45.402  54.481  1.00  0.00    -0.187 N 
HETATM   36  H   UNL     1      27.273  46.294  54.815  1.00  0.00     0.184 HD
BRANCH  35  37
HETATM   37  C   UNL     1      28.790  44.951  55.099  1.00  0.00     0.049 A 
HETATM   38  C   UNL     1      29.449  43.773  54.729  1.00  0.00     0.030 A 
HETATM   39  C   UNL     1      30.611  43.359  55.388  1.00  0.00     0.002 A 
HETATM   40  C   UNL     1      31.115  44.105  56.449  1.00  0.00     0.000 A 
HETATM   41  C   UNL     1      30.458  45.264  56.851  1.00  0.00     0.002 A 
HETATM   42  C   UNL     1      29.306  45.683  56.180  1.00  0.00     0.030 A 
ENDBRANCH  35  37
ENDBRANCH   5  35
TORSDOF 8
ENDMDL
MODEL 10
REMARK VINA RESULT:     -10.0      5.363      9.262
REMARK  8 active torsions:
REMARK  status: ('A' for Active; 'I' for Inactive)
REMARK    1  A    between atoms: C_8  and  N_9 
REMARK       I    between atoms: N_9  and  C_10 
REMARK    2  A    between atoms: C_10  and  C_11 
REMARK    3  A    between atoms: C_11  and  N_12 
REMARK    4  A    between atoms: N_16  and  C_17 
REMARK    5  A    between atoms: C_19  and  N_20 
REMARK    6  A    between atoms: N_20  and  C_21 
REMARK    7  A    between atoms: C_28  and  N_29 
REMARK    8  A    between atoms: N_29  and  C_30 
ROOT
HETATM    1  C   UNL     1      24.533  43.469  50.100  1.00  0.00     0.756 A 
HETATM    2  N   UNL     1      24.221  44.737  49.869  1.00  0.00     0.131 NA
HETATM    3  C   UNL     1      24.541  45.612  50.819  1.00  0.00     0.758 A 
HETATM    4  N   UNL     1      25.049  45.264  51.991  1.00  0.00     0.131 NA
HETATM    5  C   UNL     1      25.327  43.981  52.151  1.00  0.00     0.758 A 
HETATM    6  N   UNL     1      25.100  43.059  51.223  1.00  0.00     0.131 NA
ENDROOT
BRANCH   1   7
HETATM    7  N   UNL     1      24.278  42.526  49.097  1.00  0.00    -0.210 N 
HETATM    8  C   UNL     1      25.141  41.337  49.143  1.00  0.00     0.169 C 
HETATM    9  C   UNL     1      24.946  40.475  47.878  1.00  0.00     0.256 C 
HETATM   10  N   UNL     1      23.461  40.149  47.688  1.00  0.00    -0.060 N 
HETATM   11  H   UNL     1      23.158  39.691  48.555  1.00  0.00     0.280 HD
HETATM   12  C   UNL     1      22.659  41.442  47.564  1.00  0.00     0.256 C 
HETATM   13  C   UNL     1      22.853  42.317  48.820  1.00  0.00     0.169 C 
BRANCH  10  14
HETATM   14  C   UNL     1      23.192  39.165  46.547  1.00  0.00     0.337 C 
BRANCH  14  15
HETATM   15  C   UNL     1      21.753  38.639  46.424  1.00  0.00     0.248 C 
HETATM   16  N   UNL     1      21.397  37.768  47.442  1.00  0.00    -0.325 N 
HETATM   17  H   UNL     1      22.063  37.615  48.189  1.00  0.00     0.169 HD
HETATM   18  O   UNL     1      21.037  39.005  45.497  1.00  0.00    -0.271 OA
BRANCH  16  19
HETATM   19  C   UNL     1      20.171  37.057  47.579  1.00  0.00     0.042 A 
HETATM   20  C   UNL     1      20.194  35.734  48.098  1.00  0.00    -0.014 A 
HETATM   21  C   UNL     1      21.485  35.102  48.557  1.00  0.00     0.052 C 
HETATM   22  C   UNL     1      18.983  35.009  48.151  1.00  0.00     0.042 A 
HETATM   23 CL   UNL     1      18.906  33.370  48.699  1.00  0.00    -0.084 Cl
HETATM   24  C   UNL     1      17.778  35.587  47.748  1.00  0.00     0.024 A 
HETATM   25  C   UNL     1      17.760  36.890  47.272  1.00  0.00     0.004 A 
HETATM   26  C   UNL     1      18.946  37.616  47.185  1.00  0.00     0.030 A 
ENDBRANCH  16  19
ENDBRANCH  14  15
ENDBRANCH  10  14
ENDBRANCH   1   7
BRANCH   3  27
HETATM   27  N   UNL     1      24.281  46.947  50.506  1.00  0.00    -0.187 N 
HETATM   28  H   UNL     1      23.282  47.085  50.452  1.00  0.00     0.184 HD
BRANCH  27  29
HETATM   29  C   UNL     1      25.030  47.903  49.800  1.00  0.00     0.049 A 
HETATM   30  C   UNL     1      24.470  48.870  48.959  1.00  0.00     0.030 A 
HETATM   31  C   UNL     1      25.276  49.785  48.271  1.00  0.00     0.002 A 
HETATM   32  C   UNL     1      26.660  49.732  48.395  1.00  0.00     0.000 A 
HETATM   33  C   UNL     1      27.240  48.757  49.200  1.00  0.00     0.002 A 
HETATM   34  C   UNL     1      26.432  47.847  49.887  1.00  0.00     0.030 A 
ENDBRANCH  27  29
ENDBRANCH   3  27
BRANCH   5  35
HETATM   35  N   UNL     1      25.828  43.614  53.398  1.00  0.00    -0.187 N 
HETATM   36  H   UNL     1      25.107  43.705  54.102  1.00  0.00     0.184 HD
BRANCH  35  37
HETATM   37  C   UNL     1      27.139  43.597  53.893  1.00  0.00     0.049 A 
HETATM   38  C   UNL     1      27.751  44.708  54.487  1.00  0.00     0.030 A 
HETATM   39  C   UNL     1      29.068  44.643  54.953  1.00  0.00     0.002 A 
HETATM   40  C   UNL     1      29.803  43.470  54.804  1.00  0.00     0.000 A 
HETATM   41  C   UNL     1      29.223  42.365  54.190  1.00  0.00     0.002 A 
HETATM   42  C   UNL     1      27.901  42.429  53.740  1.00  0.00     0.030 A 
ENDBRANCH  35  37
ENDBRANCH   5  35
TORSDOF 8
ENDMDL
