MODEL 1
REMARK VINA RESULT:      -9.0      0.000      0.000
REMARK  4 active torsions:
REMARK  status: ('A' for Active; 'I' for Inactive)
REMARK    1  A    between atoms: C_7  and  C_8 
REMARK    2  A    between atoms: N_9  and  C_10 
REMARK    3  A    between atoms: C_10  and  C_11 
REMARK       I    between atoms: C_11  and  N_12 
REMARK    4  A    between atoms: N_12  and  C_13 
ROOT
HETATM    1  C   UNL     1      25.811  46.240  50.233  1.00  0.00     0.158 C 
HETATM    2  N   UNL     1      25.518  46.198  51.657  1.00  0.00    -0.326 N 
HETATM    3  C   UNL     1      24.705  45.136  51.990  1.00  0.00     0.255 C 
HETATM    4  O   UNL     1      24.436  44.735  53.106  1.00  0.00    -0.267 OA
HETATM    5  C   UNL     1      24.249  44.534  50.729  1.00  0.00     0.040 A 
HETATM    6  C   UNL     1      24.875  45.205  49.675  1.00  0.00    -0.015 A 
HETATM    7  C   UNL     1      23.350  43.503  50.536  1.00  0.00     0.017 A 
HETATM    8  C   UNL     1      23.068  43.137  49.220  1.00  0.00     0.001 A 
HETATM    9  C   UNL     1      23.689  43.799  48.145  1.00  0.00     0.001 A 
HETATM   10  C   UNL     1      24.605  44.835  48.368  1.00  0.00     0.011 A 
ENDROOT
BRANCH   1  11
HETATM   11  C   UNL     1      25.484  47.553  49.590  1.00  0.00     0.004 A 
HETATM   12  C   UNL     1      26.422  48.511  49.211  1.00  0.00     0.015 A 
HETATM   13  C   UNL     1      27.907  48.511  49.303  1.00  0.00     0.069 C 
HETATM   14  N   UNL     1      25.747  49.588  48.698  1.00  0.00    -0.359 N 
HETATM   15  H   UNL     1      26.177  50.436  48.356  1.00  0.00     0.166 HD
HETATM   16  C   UNL     1      24.394  49.365  48.713  1.00  0.00     0.043 A 
HETATM   17  C   UNL     1      24.191  48.096  49.255  1.00  0.00     0.001 A 
HETATM   18  C   UNL     1      23.347  50.194  48.293  1.00  0.00     0.030 A 
HETATM   19  C   UNL     1      22.860  47.635  49.370  1.00  0.00     0.014 A 
HETATM   20  C   UNL     1      21.800  48.451  48.957  1.00  0.00     0.001 A 
HETATM   21  C   UNL     1      22.042  49.714  48.427  1.00  0.00     0.002 A 
ENDBRANCH   1  11
BRANCH   2  22
HETATM   22  C   UNL     1      26.179  47.059  52.623  1.00  0.00     0.229 C 
BRANCH  22  23
HETATM   23  C   UNL     1      26.853  46.316  53.777  1.00  0.00     0.235 C 
HETATM   24  N   UNL     1      27.533  45.167  53.417  1.00  0.00    -0.355 N 
HETATM   25  H   UNL     1      27.380  44.830  52.468  1.00  0.00     0.162 HD
HETATM   26  O   UNL     1      26.683  46.657  54.946  1.00  0.00    -0.272 OA
BRANCH  24  27
HETATM   27  C   UNL     1      27.978  44.211  54.425  1.00  0.00     0.084 C 
HETATM   28  C   UNL     1      27.224  42.879  54.292  1.00  0.00     0.025 C 
HETATM   29  C   UNL     1      27.694  42.049  53.097  1.00  0.00     0.002 C 
HETATM   30  C   UNL     1      29.203  41.836  53.125  1.00  0.00     0.000 C 
HETATM   31  C   UNL     1      29.951  43.163  53.187  1.00  0.00     0.002 C 
HETATM   32  C   UNL     1      29.496  44.012  54.371  1.00  0.00     0.025 C 
ENDBRANCH  24  27
ENDBRANCH  22  23
ENDBRANCH   2  22
TORSDOF 4
ENDMDL
MODEL 2
REMARK VINA RESULT:      -8.8      5.947      9.441
REMARK  4 active torsions:
REMARK  status: ('A' for Active; 'I' for Inactive)
REMARK    1  A    between atoms: C_7  and  C_8 
REMARK    2  A    between atoms: N_9  and  C_10 
REMARK    3  A    between atoms: C_10  and  C_11 
REMARK       I    between atoms: C_11  and  N_12 
REMARK    4  A    between atoms: N_12  and  C_13 
ROOT
HETATM    1  C   UNL     1      19.682  46.968  48.147  1.00  0.00     0.158 C 
HETATM    2  N   UNL     1      19.185  47.271  46.816  1.00  0.00    -0.326 N 
HETATM    3  C   UNL     1      19.842  46.552  45.839  1.00  0.00     0.255 C 
HETATM    4  O   UNL     1      19.536  46.453  44.666  1.00  0.00    -0.267 OA
HETATM    5  C   UNL     1      20.972  45.878  46.491  1.00  0.00     0.040 A 
HETATM    6  C   UNL     1      20.907  46.145  47.861  1.00  0.00    -0.015 A 
HETATM    7  C   UNL     1      21.972  45.115  45.921  1.00  0.00     0.017 A 
HETATM    8  C   UNL     1      22.953  44.605  46.772  1.00  0.00     0.001 A 
HETATM    9  C   UNL     1      22.905  44.862  48.154  1.00  0.00     0.001 A 
HETATM   10  C   UNL     1      21.873  45.629  48.710  1.00  0.00     0.011 A 
ENDROOT
BRANCH   1  11
HETATM   11  C   UNL     1      20.110  48.179  48.920  1.00  0.00     0.004 A 
HETATM   12  C   UNL     1      19.474  48.661  50.062  1.00  0.00     0.015 A 
HETATM   13  C   UNL     1      18.294  48.151  50.810  1.00  0.00     0.069 C 
HETATM   14  N   UNL     1      20.123  49.800  50.461  1.00  0.00    -0.359 N 
HETATM   15  H   UNL     1      19.868  50.368  51.257  1.00  0.00     0.166 HD
HETATM   16  C   UNL     1      21.176  50.077  49.626  1.00  0.00     0.043 A 
HETATM   17  C   UNL     1      21.206  49.077  48.655  1.00  0.00     0.001 A 
HETATM   18  C   UNL     1      22.090  51.137  49.663  1.00  0.00     0.030 A 
HETATM   19  C   UNL     1      22.219  49.144  47.672  1.00  0.00     0.014 A 
HETATM   20  C   UNL     1      23.141  50.198  47.691  1.00  0.00     0.001 A 
HETATM   21  C   UNL     1      23.075  51.180  48.673  1.00  0.00     0.002 A 
ENDBRANCH   1  11
BRANCH   2  22
HETATM   22  C   UNL     1      18.001  48.080  46.581  1.00  0.00     0.229 C 
BRANCH  22  23
HETATM   23  C   UNL     1      18.263  49.586  46.531  1.00  0.00     0.235 C 
HETATM   24  N   UNL     1      17.603  50.328  47.493  1.00  0.00    -0.355 N 
HETATM   25  H   UNL     1      16.884  49.841  48.025  1.00  0.00     0.162 HD
HETATM   26  O   UNL     1      18.908  50.095  45.617  1.00  0.00    -0.272 OA
BRANCH  24  27
HETATM   27  C   UNL     1      17.527  51.782  47.398  1.00  0.00     0.084 C 
HETATM   28  C   UNL     1      16.081  52.270  47.579  1.00  0.00     0.025 C 
HETATM   29  C   UNL     1      15.609  52.201  49.031  1.00  0.00     0.002 C 
HETATM   30  C   UNL     1      16.566  52.934  49.965  1.00  0.00     0.000 C 
HETATM   31  C   UNL     1      17.988  52.399  49.834  1.00  0.00     0.002 C 
HETATM   32  C   UNL     1      18.481  52.455  48.391  1.00  0.00     0.025 C 
ENDBRANCH  24  27
ENDBRANCH  22  23
ENDBRANCH   2  22
TORSDOF 4
ENDMDL
MODEL 3
REMARK VINA RESULT:      -8.8     10.516     12.391
REMARK  4 active torsions:
REMARK  status: ('A' for Active; 'I' for Inactive)
REMARK    1  A    between atoms: C_7  and  C_8 
REMARK    2  A    between atoms: N_9  and  C_10 
REMARK    3  A    between atoms: C_10  and  C_11 
REMARK       I    between atoms: C_11  and  N_12 
REMARK    4  A    between atoms: N_12  and  C_13 
ROOT
HETATM    1  C   UNL     1      28.180  48.426  39.152  1.00  0.00     0.158 C 
HETATM    2  N   UNL     1      29.194  47.393  39.283  1.00  0.00    -0.326 N 
HETATM    3  C   UNL     1      28.660  46.190  39.693  1.00  0.00     0.255 C 
HETATM    4  O   UNL     1      29.216  45.108  39.719  1.00  0.00    -0.267 OA
HETATM    5  C   UNL     1      27.260  46.444  40.055  1.00  0.00     0.040 A 
HETATM    6  C   UNL     1      26.972  47.781  39.769  1.00  0.00    -0.015 A 
HETATM    7  C   UNL     1      26.335  45.576  40.604  1.00  0.00     0.017 A 
HETATM    8  C   UNL     1      25.066  46.084  40.881  1.00  0.00     0.001 A 
HETATM    9  C   UNL     1      24.755  47.426  40.598  1.00  0.00     0.001 A 
HETATM   10  C   UNL     1      25.707  48.283  40.031  1.00  0.00     0.011 A 
ENDROOT
BRANCH   1  11
HETATM   11  C   UNL     1      28.485  49.671  39.927  1.00  0.00     0.004 A 
HETATM   12  C   UNL     1      28.668  49.726  41.308  1.00  0.00     0.015 A 
HETATM   13  C   UNL     1      28.642  48.653  42.338  1.00  0.00     0.069 C 
HETATM   14  N   UNL     1      28.887  51.033  41.656  1.00  0.00    -0.359 N 
HETATM   15  H   UNL     1      29.039  51.368  42.597  1.00  0.00     0.166 HD
HETATM   16  C   UNL     1      28.867  51.841  40.548  1.00  0.00     0.043 A 
HETATM   17  C   UNL     1      28.629  51.022  39.444  1.00  0.00     0.001 A 
HETATM   18  C   UNL     1      29.039  53.227  40.450  1.00  0.00     0.030 A 
HETATM   19  C   UNL     1      28.569  51.633  38.172  1.00  0.00     0.014 A 
HETATM   20  C   UNL     1      28.736  53.019  38.054  1.00  0.00     0.001 A 
HETATM   21  C   UNL     1      28.966  53.803  39.179  1.00  0.00     0.002 A 
ENDBRANCH   1  11
BRANCH   2  22
HETATM   22  C   UNL     1      30.564  47.572  38.834  1.00  0.00     0.229 C 
BRANCH  22  23
HETATM   23  C   UNL     1      31.566  47.853  39.955  1.00  0.00     0.235 C 
HETATM   24  N   UNL     1      31.881  49.187  40.139  1.00  0.00    -0.355 N 
HETATM   25  H   UNL     1      31.562  49.830  39.417  1.00  0.00     0.162 HD
HETATM   26  O   UNL     1      32.138  46.941  40.548  1.00  0.00    -0.272 OA
BRANCH  24  27
HETATM   27  C   UNL     1      33.018  49.583  40.964  1.00  0.00     0.084 C 
HETATM   28  C   UNL     1      33.479  51.007  40.619  1.00  0.00     0.025 C 
HETATM   29  C   UNL     1      32.535  52.082  41.157  1.00  0.00     0.002 C 
HETATM   30  C   UNL     1      32.300  51.919  42.655  1.00  0.00     0.000 C 
HETATM   31  C   UNL     1      31.776  50.526  42.987  1.00  0.00     0.002 C 
HETATM   32  C   UNL     1      32.701  49.435  42.456  1.00  0.00     0.025 C 
ENDBRANCH  24  27
ENDBRANCH  22  23
ENDBRANCH   2  22
TORSDOF 4
ENDMDL
MODEL 4
REMARK VINA RESULT:      -8.8      6.713      9.709
REMARK  4 active torsions:
REMARK  status: ('A' for Active; 'I' for Inactive)
REMARK    1  A    between atoms: C_7  and  C_8 
REMARK    2  A    between atoms: N_9  and  C_10 
REMARK    3  A    between atoms: C_10  and  C_11 
REMARK       I    between atoms: C_11  and  N_12 
REMARK    4  A    between atoms: N_12  and  C_13 
ROOT
HETATM    1  C   UNL     1      19.050  50.065  49.023  1.00  0.00     0.158 C 
HETATM    2  N   UNL     1      18.786  48.659  48.768  1.00  0.00    -0.326 N 
HETATM    3  C   UNL     1      19.943  47.943  48.547  1.00  0.00     0.255 C 
HETATM    4  O   UNL     1      20.062  46.734  48.485  1.00  0.00    -0.267 OA
HETATM    5  C   UNL     1      21.036  48.919  48.443  1.00  0.00     0.040 A 
HETATM    6  C   UNL     1      20.510  50.190  48.691  1.00  0.00    -0.015 A 
HETATM    7  C   UNL     1      22.366  48.702  48.138  1.00  0.00     0.017 A 
HETATM    8  C   UNL     1      23.199  49.820  48.077  1.00  0.00     0.001 A 
HETATM    9  C   UNL     1      22.690  51.107  48.325  1.00  0.00     0.001 A 
HETATM   10  C   UNL     1      21.340  51.299  48.643  1.00  0.00     0.011 A 
ENDROOT
BRANCH   1  11
HETATM   11  C   UNL     1      18.291  50.993  48.124  1.00  0.00     0.004 A 
HETATM   12  C   UNL     1      17.480  52.039  48.559  1.00  0.00     0.015 A 
HETATM   13  C   UNL     1      17.167  52.525  49.930  1.00  0.00     0.069 C 
HETATM   14  N   UNL     1      16.925  52.634  47.457  1.00  0.00    -0.359 N 
HETATM   15  H   UNL     1      16.284  53.415  47.476  1.00  0.00     0.166 HD
HETATM   16  C   UNL     1      17.355  52.022  46.307  1.00  0.00     0.043 A 
HETATM   17  C   UNL     1      18.221  50.996  46.684  1.00  0.00     0.001 A 
HETATM   18  C   UNL     1      17.035  52.302  44.973  1.00  0.00     0.030 A 
HETATM   19  C   UNL     1      18.802  50.216  45.660  1.00  0.00     0.014 A 
HETATM   20  C   UNL     1      18.493  50.480  44.320  1.00  0.00     0.001 A 
HETATM   21  C   UNL     1      17.619  51.509  43.983  1.00  0.00     0.002 A 
ENDBRANCH   1  11
BRANCH   2  22
HETATM   22  C   UNL     1      17.471  48.061  48.934  1.00  0.00     0.229 C 
BRANCH  22  23
HETATM   23  C   UNL     1      16.834  47.561  47.637  1.00  0.00     0.235 C 
HETATM   24  N   UNL     1      17.413  46.426  47.100  1.00  0.00    -0.355 N 
HETATM   25  H   UNL     1      18.299  46.134  47.508  1.00  0.00     0.162 HD
HETATM   26  O   UNL     1      15.961  48.205  47.061  1.00  0.00    -0.272 OA
BRANCH  24  27
HETATM   27  C   UNL     1      17.107  46.000  45.738  1.00  0.00     0.084 C 
HETATM   28  C   UNL     1      17.979  46.747  44.718  1.00  0.00     0.025 C 
HETATM   29  C   UNL     1      19.424  46.251  44.697  1.00  0.00     0.002 C 
HETATM   30  C   UNL     1      19.493  44.742  44.490  1.00  0.00     0.000 C 
HETATM   31  C   UNL     1      18.683  43.999  45.547  1.00  0.00     0.002 C 
HETATM   32  C   UNL     1      17.235  44.480  45.589  1.00  0.00     0.025 C 
ENDBRANCH  24  27
ENDBRANCH  22  23
ENDBRANCH   2  22
TORSDOF 4
ENDMDL
MODEL 5
REMARK VINA RESULT:      -8.6      4.575      9.099
REMARK  4 active torsions:
REMARK  status: ('A' for Active; 'I' for Inactive)
REMARK    1  A    between atoms: C_7  and  C_8 
REMARK    2  A    between atoms: N_9  and  C_10 
REMARK    3  A    between atoms: C_10  and  C_11 
REMARK       I    between atoms: C_11  and  N_12 
REMARK    4  A    between atoms: N_12  and  C_13 
ROOT
HETATM    1  C   UNL     1      20.796  47.528  48.624  1.00  0.00     0.158 C 
HETATM    2  N   UNL     1      19.614  48.243  49.075  1.00  0.00    -0.326 N 
HETATM    3  C   UNL     1      18.545  48.073  48.222  1.00  0.00     0.255 C 
HETATM    4  O   UNL     1      17.388  48.392  48.418  1.00  0.00    -0.267 OA
HETATM    5  C   UNL     1      19.055  47.381  47.031  1.00  0.00     0.040 A 
HETATM    6  C   UNL     1      20.403  47.081  47.244  1.00  0.00    -0.015 A 
HETATM    7  C   UNL     1      18.390  47.065  45.861  1.00  0.00     0.017 A 
HETATM    8  C   UNL     1      19.122  46.422  44.862  1.00  0.00     0.001 A 
HETATM    9  C   UNL     1      20.480  46.110  45.059  1.00  0.00     0.001 A 
HETATM   10  C   UNL     1      21.127  46.431  46.258  1.00  0.00     0.011 A 
ENDROOT
BRANCH   1  11
HETATM   11  C   UNL     1      22.013  48.393  48.499  1.00  0.00     0.004 A 
HETATM   12  C   UNL     1      22.055  49.621  47.843  1.00  0.00     0.015 A 
HETATM   13  C   UNL     1      20.989  50.391  47.146  1.00  0.00     0.069 C 
HETATM   14  N   UNL     1      23.340  50.093  47.903  1.00  0.00    -0.359 N 
HETATM   15  H   UNL     1      23.662  50.960  47.497  1.00  0.00     0.166 HD
HETATM   16  C   UNL     1      24.145  49.221  48.591  1.00  0.00     0.043 A 
HETATM   17  C   UNL     1      23.347  48.149  48.990  1.00  0.00     0.001 A 
HETATM   18  C   UNL     1      25.513  49.306  48.879  1.00  0.00     0.030 A 
HETATM   19  C   UNL     1      23.959  47.111  49.727  1.00  0.00     0.014 A 
HETATM   20  C   UNL     1      25.326  47.178  50.023  1.00  0.00     0.001 A 
HETATM   21  C   UNL     1      26.091  48.261  49.603  1.00  0.00     0.002 A 
ENDBRANCH   1  11
BRANCH   2  22
HETATM   22  C   UNL     1      19.531  48.887  50.376  1.00  0.00     0.229 C 
BRANCH  22  23
HETATM   23  C   UNL     1      19.394  50.408  50.322  1.00  0.00     0.235 C 
HETATM   24  N   UNL     1      18.131  50.872  50.003  1.00  0.00    -0.355 N 
HETATM   25  H   UNL     1      17.466  50.177  49.668  1.00  0.00     0.162 HD
HETATM   26  O   UNL     1      20.372  51.146  50.428  1.00  0.00    -0.272 OA
BRANCH  24  27
HETATM   27  C   UNL     1      17.913  52.268  49.639  1.00  0.00     0.084 C 
HETATM   28  C   UNL     1      18.193  52.497  48.146  1.00  0.00     0.025 C 
HETATM   29  C   UNL     1      17.090  51.945  47.244  1.00  0.00     0.002 C 
HETATM   30  C   UNL     1      15.720  52.483  47.644  1.00  0.00     0.000 C 
HETATM   31  C   UNL     1      15.415  52.192  49.109  1.00  0.00     0.002 C 
HETATM   32  C   UNL     1      16.506  52.732  50.030  1.00  0.00     0.025 C 
ENDBRANCH  24  27
ENDBRANCH  22  23
ENDBRANCH   2  22
TORSDOF 4
ENDMDL
MODEL 6
REMARK VINA RESULT:      -8.5      5.941      9.280
REMARK  4 active torsions:
REMARK  status: ('A' for Active; 'I' for Inactive)
REMARK    1  A    between atoms: C_7  and  C_8 
REMARK    2  A    between atoms: N_9  and  C_10 
REMARK    3  A    between atoms: C_10  and  C_11 
REMARK       I    between atoms: C_11  and  N_12 
REMARK    4  A    between atoms: N_12  and  C_13 
ROOT
HETATM    1  C   UNL     1      19.062  50.693  47.283  1.00  0.00     0.158 C 
HETATM    2  N   UNL     1      18.181  49.917  46.425  1.00  0.00    -0.326 N 
HETATM    3  C   UNL     1      16.854  50.235  46.617  1.00  0.00     0.255 C 
HETATM    4  O   UNL     1      15.908  49.893  45.934  1.00  0.00    -0.267 OA
HETATM    5  C   UNL     1      16.791  51.117  47.790  1.00  0.00     0.040 A 
HETATM    6  C   UNL     1      18.098  51.370  48.216  1.00  0.00    -0.015 A 
HETATM    7  C   UNL     1      15.679  51.631  48.430  1.00  0.00     0.017 A 
HETATM    8  C   UNL     1      15.898  52.430  49.552  1.00  0.00     0.001 A 
HETATM    9  C   UNL     1      17.206  52.698  49.995  1.00  0.00     0.001 A 
HETATM   10  C   UNL     1      18.317  52.175  49.322  1.00  0.00     0.011 A 
ENDROOT
BRANCH   1  11
HETATM   11  C   UNL     1      19.992  49.856  48.107  1.00  0.00     0.004 A 
HETATM   12  C   UNL     1      19.591  48.882  49.019  1.00  0.00     0.015 A 
HETATM   13  C   UNL     1      18.235  48.403  49.401  1.00  0.00     0.069 C 
HETATM   14  N   UNL     1      20.714  48.361  49.606  1.00  0.00    -0.359 N 
HETATM   15  H   UNL     1      20.721  47.644  50.318  1.00  0.00     0.166 HD
HETATM   16  C   UNL     1      21.844  48.952  49.100  1.00  0.00     0.043 A 
HETATM   17  C   UNL     1      21.432  49.886  48.150  1.00  0.00     0.001 A 
HETATM   18  C   UNL     1      23.189  48.727  49.420  1.00  0.00     0.030 A 
HETATM   19  C   UNL     1      22.431  50.627  47.480  1.00  0.00     0.014 A 
HETATM   20  C   UNL     1      23.781  50.418  47.788  1.00  0.00     0.001 A 
HETATM   21  C   UNL     1      24.152  49.481  48.746  1.00  0.00     0.002 A 
ENDBRANCH   1  11
BRANCH   2  22
HETATM   22  C   UNL     1      18.674  49.062  45.358  1.00  0.00     0.229 C 
BRANCH  22  23
HETATM   23  C   UNL     1      18.613  47.566  45.665  1.00  0.00     0.235 C 
HETATM   24  N   UNL     1      19.800  47.009  46.105  1.00  0.00    -0.355 N 
HETATM   25  H   UNL     1      20.631  47.591  46.018  1.00  0.00     0.162 HD
HETATM   26  O   UNL     1      17.613  46.898  45.409  1.00  0.00    -0.272 OA
BRANCH  24  27
HETATM   27  C   UNL     1      19.973  45.561  46.164  1.00  0.00     0.084 C 
HETATM   28  C   UNL     1      21.453  45.177  46.010  1.00  0.00     0.025 C 
HETATM   29  C   UNL     1      22.274  45.467  47.266  1.00  0.00     0.002 C 
HETATM   30  C   UNL     1      21.655  44.819  48.500  1.00  0.00     0.000 C 
HETATM   31  C   UNL     1      20.207  45.257  48.690  1.00  0.00     0.002 C 
HETATM   32  C   UNL     1      19.367  44.980  47.446  1.00  0.00     0.025 C 
ENDBRANCH  24  27
ENDBRANCH  22  23
ENDBRANCH   2  22
TORSDOF 4
ENDMDL
MODEL 7
REMARK VINA RESULT:      -8.4      4.758      9.032
REMARK  4 active torsions:
REMARK  status: ('A' for Active; 'I' for Inactive)
REMARK    1  A    between atoms: C_7  and  C_8 
REMARK    2  A    between atoms: N_9  and  C_10 
REMARK    3  A    between atoms: C_10  and  C_11 
REMARK       I    between atoms: C_11  and  N_12 
REMARK    4  A    between atoms: N_12  and  C_13 
ROOT
HETATM    1  C   UNL     1      20.333  46.683  48.108  1.00  0.00     0.158 C 
HETATM    2  N   UNL     1      19.267  47.578  48.523  1.00  0.00    -0.326 N 
HETATM    3  C   UNL     1      18.392  47.859  47.495  1.00  0.00     0.255 C 
HETATM    4  O   UNL     1      17.317  48.422  47.574  1.00  0.00    -0.267 OA
HETATM    5  C   UNL     1      18.981  47.303  46.269  1.00  0.00     0.040 A 
HETATM    6  C   UNL     1      20.155  46.629  46.617  1.00  0.00    -0.015 A 
HETATM    7  C   UNL     1      18.528  47.402  44.967  1.00  0.00     0.017 A 
HETATM    8  C   UNL     1      19.299  46.798  43.974  1.00  0.00     0.001 A 
HETATM    9  C   UNL     1      20.482  46.113  44.303  1.00  0.00     0.001 A 
HETATM   10  C   UNL     1      20.914  46.017  45.632  1.00  0.00     0.011 A 
ENDROOT
BRANCH   1  11
HETATM   11  C   UNL     1      21.707  47.210  48.389  1.00  0.00     0.004 A 
HETATM   12  C   UNL     1      22.756  46.461  48.919  1.00  0.00     0.015 A 
HETATM   13  C   UNL     1      22.830  45.028  49.310  1.00  0.00     0.069 C 
HETATM   14  N   UNL     1      23.836  47.291  49.072  1.00  0.00    -0.359 N 
HETATM   15  H   UNL     1      24.733  47.016  49.448  1.00  0.00     0.166 HD
HETATM   16  C   UNL     1      23.537  48.560  48.647  1.00  0.00     0.043 A 
HETATM   17  C   UNL     1      22.216  48.546  48.202  1.00  0.00     0.001 A 
HETATM   18  C   UNL     1      24.338  49.709  48.631  1.00  0.00     0.030 A 
HETATM   19  C   UNL     1      21.676  49.754  47.706  1.00  0.00     0.014 A 
HETATM   20  C   UNL     1      22.461  50.913  47.684  1.00  0.00     0.001 A 
HETATM   21  C   UNL     1      23.774  50.889  48.143  1.00  0.00     0.002 A 
ENDBRANCH   1  11
BRANCH   2  22
HETATM   22  C   UNL     1      19.050  47.957  49.909  1.00  0.00     0.229 C 
BRANCH  22  23
HETATM   23  C   UNL     1      19.062  49.464  50.164  1.00  0.00     0.235 C 
HETATM   24  N   UNL     1      17.924  50.136  49.759  1.00  0.00    -0.355 N 
HETATM   25  H   UNL     1      17.270  49.610  49.182  1.00  0.00     0.162 HD
HETATM   26  O   UNL     1      20.068  50.038  50.577  1.00  0.00    -0.272 OA
BRANCH  24  27
HETATM   27  C   UNL     1      17.902  51.593  49.674  1.00  0.00     0.084 C 
HETATM   28  C   UNL     1      18.585  52.080  48.387  1.00  0.00     0.025 C 
HETATM   29  C   UNL     1      17.731  51.855  47.140  1.00  0.00     0.002 C 
HETATM   30  C   UNL     1      16.341  52.464  47.298  1.00  0.00     0.000 C 
HETATM   31  C   UNL     1      15.637  51.925  48.539  1.00  0.00     0.002 C 
HETATM   32  C   UNL     1      16.474  52.136  49.798  1.00  0.00     0.025 C 
ENDBRANCH  24  27
ENDBRANCH  22  23
ENDBRANCH   2  22
TORSDOF 4
ENDMDL
MODEL 8
REMARK VINA RESULT:      -8.2      6.906     11.140
REMARK  4 active torsions:
REMARK  status: ('A' for Active; 'I' for Inactive)
REMARK    1  A    between atoms: C_7  and  C_8 
REMARK    2  A    between atoms: N_9  and  C_10 
REMARK    3  A    between atoms: C_10  and  C_11 
REMARK       I    between atoms: C_11  and  N_12 
REMARK    4  A    between atoms: N_12  and  C_13 
ROOT
HETATM    1  C   UNL     1      18.825  49.982  48.768  1.00  0.00     0.158 C 
HETATM    2  N   UNL     1      18.583  48.602  48.381  1.00  0.00    -0.326 N 
HETATM    3  C   UNL     1      19.755  47.910  48.159  1.00  0.00     0.255 C 
HETATM    4  O   UNL     1      19.885  46.711  48.001  1.00  0.00    -0.267 OA
HETATM    5  C   UNL     1      20.845  48.894  48.196  1.00  0.00     0.040 A 
HETATM    6  C   UNL     1      20.299  50.138  48.524  1.00  0.00    -0.015 A 
HETATM    7  C   UNL     1      22.191  48.707  47.943  1.00  0.00     0.017 A 
HETATM    8  C   UNL     1      23.019  49.827  48.020  1.00  0.00     0.001 A 
HETATM    9  C   UNL     1      22.489  51.087  48.351  1.00  0.00     0.001 A 
HETATM   10  C   UNL     1      21.123  51.248  48.614  1.00  0.00     0.011 A 
ENDROOT
BRANCH   1  11
HETATM   11  C   UNL     1      18.107  50.982  47.913  1.00  0.00     0.004 A 
HETATM   12  C   UNL     1      17.254  51.974  48.392  1.00  0.00     0.015 A 
HETATM   13  C   UNL     1      16.850  52.326  49.780  1.00  0.00     0.069 C 
HETATM   14  N   UNL     1      16.758  52.664  47.317  1.00  0.00    -0.359 N 
HETATM   15  H   UNL     1      16.103  53.432  47.369  1.00  0.00     0.166 HD
HETATM   16  C   UNL     1      17.267  52.166  46.144  1.00  0.00     0.043 A 
HETATM   17  C   UNL     1      18.125  51.119  46.478  1.00  0.00     0.001 A 
HETATM   18  C   UNL     1      17.024  52.566  44.825  1.00  0.00     0.030 A 
HETATM   19  C   UNL     1      18.780  50.444  45.424  1.00  0.00     0.014 A 
HETATM   20  C   UNL     1      18.549  50.828  44.098  1.00  0.00     0.001 A 
HETATM   21  C   UNL     1      17.680  51.874  43.804  1.00  0.00     0.002 A 
ENDBRANCH   1  11
BRANCH   2  22
HETATM   22  C   UNL     1      17.266  47.989  48.427  1.00  0.00     0.229 C 
BRANCH  22  23
HETATM   23  C   UNL     1      16.801  47.385  47.102  1.00  0.00     0.235 C 
HETATM   24  N   UNL     1      15.946  48.182  46.362  1.00  0.00    -0.355 N 
HETATM   25  H   UNL     1      15.572  49.003  46.834  1.00  0.00     0.162 HD
HETATM   26  O   UNL     1      17.071  46.226  46.795  1.00  0.00    -0.272 OA
BRANCH  24  27
HETATM   27  C   UNL     1      15.202  47.637  45.231  1.00  0.00     0.084 C 
HETATM   28  C   UNL     1      13.688  47.775  45.450  1.00  0.00     0.025 C 
HETATM   29  C   UNL     1      13.191  49.208  45.266  1.00  0.00     0.002 C 
HETATM   30  C   UNL     1      13.613  49.776  43.915  1.00  0.00     0.000 C 
HETATM   31  C   UNL     1      15.125  49.702  43.730  1.00  0.00     0.002 C 
HETATM   32  C   UNL     1      15.646  48.279  43.913  1.00  0.00     0.025 C 
ENDBRANCH  24  27
ENDBRANCH  22  23
ENDBRANCH   2  22
TORSDOF 4
ENDMDL
MODEL 9
REMARK VINA RESULT:      -8.2      8.144     12.378
REMARK  4 active torsions:
REMARK  status: ('A' for Active; 'I' for Inactive)
REMARK    1  A    between atoms: C_7  and  C_8 
REMARK    2  A    between atoms: N_9  and  C_10 
REMARK    3  A    between atoms: C_10  and  C_11 
REMARK       I    between atoms: C_11  and  N_12 
REMARK    4  A    between atoms: N_12  and  C_13 
ROOT
HETATM    1  C   UNL     1      18.257  51.006  47.058  1.00  0.00     0.158 C 
HETATM    2  N   UNL     1      17.194  51.208  48.030  1.00  0.00    -0.326 N 
HETATM    3  C   UNL     1      17.686  51.448  49.296  1.00  0.00     0.255 C 
HETATM    4  O   UNL     1      17.062  51.827  50.269  1.00  0.00    -0.267 OA
HETATM    5  C   UNL     1      19.133  51.204  49.246  1.00  0.00     0.040 A 
HETATM    6  C   UNL     1      19.480  50.907  47.926  1.00  0.00    -0.015 A 
HETATM    7  C   UNL     1      20.052  51.226  50.278  1.00  0.00     0.017 A 
HETATM    8  C   UNL     1      21.378  50.929  49.962  1.00  0.00     0.001 A 
HETATM    9  C   UNL     1      21.747  50.628  48.638  1.00  0.00     0.001 A 
HETATM   10  C   UNL     1      20.799  50.624  47.608  1.00  0.00     0.011 A 
ENDROOT
BRANCH   1  11
HETATM   11  C   UNL     1      18.133  49.726  46.288  1.00  0.00     0.004 A 
HETATM   12  C   UNL     1      18.180  49.624  44.899  1.00  0.00     0.015 A 
HETATM   13  C   UNL     1      18.374  50.662  43.851  1.00  0.00     0.069 C 
HETATM   14  N   UNL     1      17.991  48.309  44.563  1.00  0.00    -0.359 N 
HETATM   15  H   UNL     1      17.965  47.947  43.620  1.00  0.00     0.166 HD
HETATM   16  C   UNL     1      17.834  47.538  45.687  1.00  0.00     0.043 A 
HETATM   17  C   UNL     1      17.928  48.389  46.788  1.00  0.00     0.001 A 
HETATM   18  C   UNL     1      17.614  46.160  45.801  1.00  0.00     0.030 A 
HETATM   19  C   UNL     1      17.802  47.819  48.073  1.00  0.00     0.014 A 
HETATM   20  C   UNL     1      17.579  46.443  48.208  1.00  0.00     0.001 A 
HETATM   21  C   UNL     1      17.485  45.627  47.085  1.00  0.00     0.002 A 
ENDBRANCH   1  11
BRANCH   2  22
HETATM   22  C   UNL     1      15.797  51.341  47.654  1.00  0.00     0.229 C 
BRANCH  22  23
HETATM   23  C   UNL     1      15.337  52.781  47.423  1.00  0.00     0.235 C 
HETATM   24  N   UNL     1      14.935  53.457  48.560  1.00  0.00    -0.355 N 
HETATM   25  H   UNL     1      14.817  52.896  49.401  1.00  0.00     0.162 HD
HETATM   26  O   UNL     1      15.216  53.242  46.290  1.00  0.00    -0.272 OA
BRANCH  24  27
HETATM   27  C   UNL     1      14.212  54.721  48.465  1.00  0.00     0.084 C 
HETATM   28  C   UNL     1      12.698  54.500  48.599  1.00  0.00     0.025 C 
HETATM   29  C   UNL     1      12.267  54.201  50.034  1.00  0.00     0.002 C 
HETATM   30  C   UNL     1      12.761  55.271  51.001  1.00  0.00     0.000 C 
HETATM   31  C   UNL     1      14.275  55.439  50.916  1.00  0.00     0.002 C 
HETATM   32  C   UNL     1      14.730  55.736  49.490  1.00  0.00     0.025 C 
ENDBRANCH  24  27
ENDBRANCH  22  23
ENDBRANCH   2  22
TORSDOF 4
ENDMDL
MODEL 10
REMARK VINA RESULT:      -8.1      5.289      8.959
REMARK  4 active torsions:
REMARK  status: ('A' for Active; 'I' for Inactive)
REMARK    1  A    between atoms: C_7  and  C_8 
REMARK    2  A    between atoms: N_9  and  C_10 
REMARK    3  A    between atoms: C_10  and  C_11 
REMARK       I    between atoms: C_11  and  N_12 
REMARK    4  A    between atoms: N_12  and  C_13 
ROOT
HETATM    1  C   UNL     1      20.394  45.606  47.178  1.00  0.00     0.158 C 
HETATM    2  N   UNL     1      19.105  46.277  47.229  1.00  0.00    -0.326 N 
HETATM    3  C   UNL     1      18.604  46.536  45.971  1.00  0.00     0.255 C 
HETATM    4  O   UNL     1      17.484  46.917  45.689  1.00  0.00    -0.267 OA
HETATM    5  C   UNL     1      19.670  46.219  45.012  1.00  0.00     0.040 A 
HETATM    6  C   UNL     1      20.753  45.696  45.722  1.00  0.00    -0.015 A 
HETATM    7  C   UNL     1      19.684  46.396  43.642  1.00  0.00     0.017 A 
HETATM    8  C   UNL     1      20.846  46.033  42.961  1.00  0.00     0.001 A 
HETATM    9  C   UNL     1      21.947  45.503  43.658  1.00  0.00     0.001 A 
HETATM   10  C   UNL     1      21.904  45.323  45.045  1.00  0.00     0.011 A 
ENDROOT
BRANCH   1  11
HETATM   11  C   UNL     1      21.465  46.301  47.962  1.00  0.00     0.004 A 
HETATM   12  C   UNL     1      22.359  45.669  48.824  1.00  0.00     0.015 A 
HETATM   13  C   UNL     1      22.523  44.233  49.179  1.00  0.00     0.069 C 
HETATM   14  N   UNL     1      23.159  46.629  49.387  1.00  0.00    -0.359 N 
HETATM   15  H   UNL     1      23.890  46.456  50.062  1.00  0.00     0.166 HD
HETATM   16  C   UNL     1      22.829  47.874  48.914  1.00  0.00     0.043 A 
HETATM   17  C   UNL     1      21.780  47.707  48.010  1.00  0.00     0.001 A 
HETATM   18  C   UNL     1      23.380  49.123  49.225  1.00  0.00     0.030 A 
HETATM   19  C   UNL     1      21.264  48.861  47.380  1.00  0.00     0.014 A 
HETATM   20  C   UNL     1      21.801  50.120  47.680  1.00  0.00     0.001 A 
HETATM   21  C   UNL     1      22.844  50.246  48.592  1.00  0.00     0.002 A 
ENDBRANCH   1  11
BRANCH   2  22
HETATM   22  C   UNL     1      18.359  46.458  48.463  1.00  0.00     0.229 C 
BRANCH  22  23
HETATM   23  C   UNL     1      17.411  47.658  48.460  1.00  0.00     0.235 C 
HETATM   24  N   UNL     1      18.031  48.894  48.461  1.00  0.00    -0.355 N 
HETATM   25  H   UNL     1      19.034  48.896  48.638  1.00  0.00     0.162 HD
HETATM   26  O   UNL     1      16.196  47.517  48.581  1.00  0.00    -0.272 OA
BRANCH  24  27
HETATM   27  C   UNL     1      17.278  50.111  48.743  1.00  0.00     0.084 C 
HETATM   28  C   UNL     1      17.868  50.858  49.949  1.00  0.00     0.025 C 
HETATM   29  C   UNL     1      19.176  51.577  49.619  1.00  0.00     0.002 C 
HETATM   30  C   UNL     1      19.017  52.500  48.415  1.00  0.00     0.000 C 
HETATM   31  C   UNL     1      18.496  51.741  47.199  1.00  0.00     0.002 C 
HETATM   32  C   UNL     1      17.192  51.011  47.506  1.00  0.00     0.025 C 
ENDBRANCH  24  27
ENDBRANCH  22  23
ENDBRANCH   2  22
TORSDOF 4
ENDMDL
