MODEL 1
REMARK VINA RESULT:      -9.4      0.000      0.000
REMARK  5 active torsions:
REMARK  status: ('A' for Active; 'I' for Inactive)
REMARK    1  A    between atoms: C_2  and  O_3 
REMARK    2  A    between atoms: O_3  and  C_4 
REMARK    3  A    between atoms: C_5  and  N_6 
REMARK       I    between atoms: N_6  and  C_7 
REMARK    4  A    between atoms: C_7  and  C_8 
REMARK    5  A    between atoms: C_9  and  C_10 
ROOT
HETATM    1  N   UNL     1      25.373  45.985  51.308  1.00  0.00    -0.321 N 
HETATM    2  C   UNL     1      25.690  46.620  52.491  1.00  0.00     0.245 C 
HETATM    3  O   UNL     1      25.161  47.603  52.988  1.00  0.00    -0.268 OA
HETATM    4  H   UNL     1      25.711  45.039  51.202  1.00  0.00     0.169 HD
ENDROOT
BRANCH   1   5
HETATM    5  C   UNL     1      24.490  46.423  50.290  1.00  0.00     0.071 A 
HETATM    6  C   UNL     1      24.481  47.706  49.697  1.00  0.00     0.096 A 
HETATM    7  C   UNL     1      23.530  48.052  48.722  1.00  0.00     0.049 A 
HETATM    8  C   UNL     1      22.657  47.077  48.283  1.00  0.00    -0.020 A 
HETATM    9  C   UNL     1      22.705  45.802  48.810  1.00  0.00     0.078 A 
HETATM   10  C   UNL     1      21.559  47.162  47.294  1.00  0.00     0.073 C 
HETATM   11  C   UNL     1      23.597  45.452  49.806  1.00  0.00     0.069 A 
HETATM   12  O   UNL     1      21.791  44.942  48.261  1.00  0.00    -0.345 OA
HETATM   13  C   UNL     1      21.264  45.664  47.115  1.00  0.00     0.129 C 
HETATM   14  C   UNL     1      21.892  45.087  45.848  1.00  0.00     0.040 C 
BRANCH   6  15
HETATM   15  O   UNL     1      25.414  48.651  50.027  1.00  0.00    -0.349 OA
BRANCH  15  16
HETATM   16  C   UNL     1      26.595  48.555  49.224  1.00  0.00     0.171 C 
HETATM   17  C   UNL     1      26.791  49.860  48.475  1.00  0.00     0.034 C 
ENDBRANCH  15  16
ENDBRANCH   6  15
ENDBRANCH   1   5
BRANCH   2  18
HETATM   18  C   UNL     1      26.779  45.903  53.213  1.00  0.00     0.077 C 
HETATM   19  C   UNL     1      27.251  46.404  54.364  1.00  0.00     0.043 C 
BRANCH  19  20
HETATM   20  C   UNL     1      28.311  45.759  55.058  1.00  0.00     0.077 A 
HETATM   21  O   UNL     1      28.818  46.188  56.267  1.00  0.00    -0.310 OA
HETATM   22  C   UNL     1      29.809  45.340  56.642  1.00  0.00     0.086 A 
HETATM   23  C   UNL     1      29.973  44.342  55.697  1.00  0.00     0.000 A 
HETATM   24  C   UNL     1      30.562  45.442  57.810  1.00  0.00     0.038 A 
HETATM   25  C   UNL     1      29.017  44.620  54.687  1.00  0.00     0.051 A 
HETATM   26  C   UNL     1      30.954  43.359  55.915  1.00  0.00     0.014 A 
HETATM   27  C   UNL     1      31.728  43.432  57.082  1.00  0.00     0.001 A 
HETATM   28  C   UNL     1      31.535  44.457  58.012  1.00  0.00     0.003 A 
ENDBRANCH  19  20
ENDBRANCH   2  18
TORSDOF 5
ENDMDL
MODEL 2
REMARK VINA RESULT:      -9.1      2.077      3.376
REMARK  5 active torsions:
REMARK  status: ('A' for Active; 'I' for Inactive)
REMARK    1  A    between atoms: C_2  and  O_3 
REMARK    2  A    between atoms: O_3  and  C_4 
REMARK    3  A    between atoms: C_5  and  N_6 
REMARK       I    between atoms: N_6  and  C_7 
REMARK    4  A    between atoms: C_7  and  C_8 
REMARK    5  A    between atoms: C_9  and  C_10 
ROOT
HETATM    1  N   UNL     1      25.913  44.991  50.960  1.00  0.00    -0.321 N 
HETATM    2  C   UNL     1      26.927  44.107  50.654  1.00  0.00     0.245 C 
HETATM    3  O   UNL     1      27.150  43.550  49.589  1.00  0.00    -0.268 OA
HETATM    4  H   UNL     1      26.052  45.566  51.779  1.00  0.00     0.169 HD
ENDROOT
BRANCH   1   5
HETATM    5  C   UNL     1      24.778  45.324  50.181  1.00  0.00     0.071 A 
HETATM    6  C   UNL     1      23.737  44.440  49.815  1.00  0.00     0.096 A 
HETATM    7  C   UNL     1      22.674  44.863  49.000  1.00  0.00     0.049 A 
HETATM    8  C   UNL     1      22.616  46.193  48.635  1.00  0.00    -0.020 A 
HETATM    9  C   UNL     1      23.595  47.077  49.046  1.00  0.00     0.078 A 
HETATM   10  C   UNL     1      21.636  46.902  47.783  1.00  0.00     0.073 C 
HETATM   11  C   UNL     1      24.677  46.674  49.805  1.00  0.00     0.069 A 
HETATM   12  O   UNL     1      23.389  48.364  48.624  1.00  0.00    -0.345 OA
HETATM   13  C   UNL     1      22.038  48.354  48.090  1.00  0.00     0.129 C 
HETATM   14  C   UNL     1      21.111  49.020  49.105  1.00  0.00     0.040 C 
BRANCH   6  15
HETATM   15  O   UNL     1      23.707  43.148  50.264  1.00  0.00    -0.349 OA
BRANCH  15  16
HETATM   16  C   UNL     1      23.267  42.232  49.257  1.00  0.00     0.171 C 
HETATM   17  C   UNL     1      24.445  41.387  48.806  1.00  0.00     0.034 C 
ENDBRANCH  15  16
ENDBRANCH   6  15
ENDBRANCH   1   5
BRANCH   2  18
HETATM   18  C   UNL     1      27.852  43.926  51.808  1.00  0.00     0.077 C 
HETATM   19  C   UNL     1      27.683  44.664  52.914  1.00  0.00     0.043 C 
BRANCH  19  20
HETATM   20  C   UNL     1      28.570  44.534  54.018  1.00  0.00     0.077 A 
HETATM   21  O   UNL     1      28.619  45.416  55.078  1.00  0.00    -0.310 OA
HETATM   22  C   UNL     1      29.567  44.987  55.950  1.00  0.00     0.086 A 
HETATM   23  C   UNL     1      30.156  43.823  55.486  1.00  0.00     0.000 A 
HETATM   24  C   UNL     1      29.911  45.614  57.145  1.00  0.00     0.038 A 
HETATM   25  C   UNL     1      29.518  43.544  54.251  1.00  0.00     0.051 A 
HETATM   26  C   UNL     1      31.163  43.220  56.261  1.00  0.00     0.014 A 
HETATM   27  C   UNL     1      31.530  43.825  57.471  1.00  0.00     0.001 A 
HETATM   28  C   UNL     1      30.915  45.003  57.904  1.00  0.00     0.003 A 
ENDBRANCH  19  20
ENDBRANCH   2  18
TORSDOF 5
ENDMDL
MODEL 3
REMARK VINA RESULT:      -9.1      2.937      9.840
REMARK  5 active torsions:
REMARK  status: ('A' for Active; 'I' for Inactive)
REMARK    1  A    between atoms: C_2  and  O_3 
REMARK    2  A    between atoms: O_3  and  C_4 
REMARK    3  A    between atoms: C_5  and  N_6 
REMARK       I    between atoms: N_6  and  C_7 
REMARK    4  A    between atoms: C_7  and  C_8 
REMARK    5  A    between atoms: C_9  and  C_10 
ROOT
HETATM    1  N   UNL     1      25.158  46.398  51.417  1.00  0.00    -0.321 N 
HETATM    2  C   UNL     1      25.299  47.201  50.305  1.00  0.00     0.245 C 
HETATM    3  O   UNL     1      26.296  47.382  49.622  1.00  0.00    -0.268 OA
HETATM    4  H   UNL     1      24.213  46.146  51.672  1.00  0.00     0.169 HD
ENDROOT
BRANCH   1   5
HETATM    5  C   UNL     1      26.173  45.736  52.151  1.00  0.00     0.071 A 
HETATM    6  C   UNL     1      26.626  46.091  53.443  1.00  0.00     0.096 A 
HETATM    7  C   UNL     1      27.673  45.391  54.067  1.00  0.00     0.049 A 
HETATM    8  C   UNL     1      28.192  44.283  53.429  1.00  0.00    -0.020 A 
HETATM    9  C   UNL     1      27.707  43.890  52.197  1.00  0.00     0.078 A 
HETATM   10  C   UNL     1      29.292  43.381  53.837  1.00  0.00     0.073 C 
HETATM   11  C   UNL     1      26.714  44.592  51.541  1.00  0.00     0.069 A 
HETATM   12  O   UNL     1      28.306  42.762  51.701  1.00  0.00    -0.345 OA
HETATM   13  C   UNL     1      29.083  42.250  52.816  1.00  0.00     0.129 C 
HETATM   14  C   UNL     1      28.347  41.050  53.409  1.00  0.00     0.040 C 
BRANCH   6  15
HETATM   15  O   UNL     1      26.045  47.110  54.148  1.00  0.00    -0.349 OA
BRANCH  15  16
HETATM   16  C   UNL     1      26.990  47.821  54.954  1.00  0.00     0.171 C 
HETATM   17  C   UNL     1      26.238  48.687  55.950  1.00  0.00     0.034 C 
ENDBRANCH  15  16
ENDBRANCH   6  15
ENDBRANCH   1   5
BRANCH   2  18
HETATM   18  C   UNL     1      24.002  47.831  49.927  1.00  0.00     0.077 C 
HETATM   19  C   UNL     1      23.997  48.900  49.118  1.00  0.00     0.043 C 
BRANCH  19  20
HETATM   20  C   UNL     1      22.778  49.541  48.766  1.00  0.00     0.077 A 
HETATM   21  O   UNL     1      21.870  49.033  47.860  1.00  0.00    -0.310 OA
HETATM   22  C   UNL     1      20.823  49.892  47.772  1.00  0.00     0.086 A 
HETATM   23  C   UNL     1      21.017  50.975  48.614  1.00  0.00     0.000 A 
HETATM   24  C   UNL     1      19.705  49.724  46.959  1.00  0.00     0.038 A 
HETATM   25  C   UNL     1      22.268  50.745  49.240  1.00  0.00     0.051 A 
HETATM   26  C   UNL     1      20.029  51.974  48.667  1.00  0.00     0.014 A 
HETATM   27  C   UNL     1      18.889  51.834  47.863  1.00  0.00     0.001 A 
HETATM   28  C   UNL     1      18.732  50.728  47.023  1.00  0.00     0.003 A 
ENDBRANCH  19  20
ENDBRANCH   2  18
TORSDOF 5
ENDMDL
MODEL 4
REMARK VINA RESULT:      -9.0      2.556      3.772
REMARK  5 active torsions:
REMARK  status: ('A' for Active; 'I' for Inactive)
REMARK    1  A    between atoms: C_2  and  O_3 
REMARK    2  A    between atoms: O_3  and  C_4 
REMARK    3  A    between atoms: C_5  and  N_6 
REMARK       I    between atoms: N_6  and  C_7 
REMARK    4  A    between atoms: C_7  and  C_8 
REMARK    5  A    between atoms: C_9  and  C_10 
ROOT
HETATM    1  N   UNL     1      24.582  47.750  49.537  1.00  0.00    -0.321 N 
HETATM    2  C   UNL     1      24.384  46.390  49.649  1.00  0.00     0.245 C 
HETATM    3  O   UNL     1      23.456  45.721  49.219  1.00  0.00    -0.268 OA
HETATM    4  H   UNL     1      25.524  48.080  49.690  1.00  0.00     0.169 HD
ENDROOT
BRANCH   1   5
HETATM    5  C   UNL     1      23.674  48.729  49.066  1.00  0.00     0.071 A 
HETATM    6  C   UNL     1      23.957  49.727  48.105  1.00  0.00     0.096 A 
HETATM    7  C   UNL     1      22.992  50.681  47.738  1.00  0.00     0.049 A 
HETATM    8  C   UNL     1      21.723  50.568  48.269  1.00  0.00    -0.020 A 
HETATM    9  C   UNL     1      21.421  49.554  49.156  1.00  0.00     0.078 A 
HETATM   10  C   UNL     1      20.534  51.427  48.076  1.00  0.00     0.073 C 
HETATM   11  C   UNL     1      22.366  48.635  49.571  1.00  0.00     0.069 A 
HETATM   12  O   UNL     1      20.117  49.559  49.579  1.00  0.00    -0.345 OA
HETATM   13  C   UNL     1      19.464  50.522  48.708  1.00  0.00     0.129 C 
HETATM   14  C   UNL     1      18.648  49.757  47.667  1.00  0.00     0.040 C 
BRANCH   6  15
HETATM   15  O   UNL     1      25.169  49.787  47.474  1.00  0.00    -0.349 OA
BRANCH  15  16
HETATM   16  C   UNL     1      26.123  50.568  48.201  1.00  0.00     0.171 C 
HETATM   17  C   UNL     1      27.226  49.656  48.708  1.00  0.00     0.034 C 
ENDBRANCH  15  16
ENDBRANCH   6  15
ENDBRANCH   1   5
BRANCH   2  18
HETATM   18  C   UNL     1      25.532  45.732  50.336  1.00  0.00     0.077 C 
HETATM   19  C   UNL     1      25.572  45.703  51.676  1.00  0.00     0.043 C 
BRANCH  19  20
HETATM   20  C   UNL     1      26.670  45.110  52.357  1.00  0.00     0.077 A 
HETATM   21  O   UNL     1      27.542  44.208  51.782  1.00  0.00    -0.310 OA
HETATM   22  C   UNL     1      28.468  43.856  52.709  1.00  0.00     0.086 A 
HETATM   23  C   UNL     1      28.229  44.514  53.904  1.00  0.00     0.000 A 
HETATM   24  C   UNL     1      29.518  42.963  52.505  1.00  0.00     0.038 A 
HETATM   25  C   UNL     1      27.078  45.308  53.672  1.00  0.00     0.051 A 
HETATM   26  C   UNL     1      29.094  44.281  54.988  1.00  0.00     0.014 A 
HETATM   27  C   UNL     1      30.162  43.389  54.815  1.00  0.00     0.001 A 
HETATM   28  C   UNL     1      30.368  42.741  53.594  1.00  0.00     0.003 A 
ENDBRANCH  19  20
ENDBRANCH   2  18
TORSDOF 5
ENDMDL
MODEL 5
REMARK VINA RESULT:      -8.9      2.954     10.094
REMARK  5 active torsions:
REMARK  status: ('A' for Active; 'I' for Inactive)
REMARK    1  A    between atoms: C_2  and  O_3 
REMARK    2  A    between atoms: O_3  and  C_4 
REMARK    3  A    between atoms: C_5  and  N_6 
REMARK       I    between atoms: N_6  and  C_7 
REMARK    4  A    between atoms: C_7  and  C_8 
REMARK    5  A    between atoms: C_9  and  C_10 
ROOT
HETATM    1  N   UNL     1      24.873  47.381  50.464  1.00  0.00    -0.321 N 
HETATM    2  C   UNL     1      25.328  48.291  49.534  1.00  0.00     0.245 C 
HETATM    3  O   UNL     1      26.466  48.445  49.117  1.00  0.00    -0.268 OA
HETATM    4  H   UNL     1      23.878  47.203  50.468  1.00  0.00     0.169 HD
ENDROOT
BRANCH   1   5
HETATM    5  C   UNL     1      25.636  46.531  51.301  1.00  0.00     0.071 A 
HETATM    6  C   UNL     1      26.298  45.348  50.899  1.00  0.00     0.096 A 
HETATM    7  C   UNL     1      26.996  44.552  51.823  1.00  0.00     0.049 A 
HETATM    8  C   UNL     1      27.103  44.999  53.124  1.00  0.00    -0.020 A 
HETATM    9  C   UNL     1      26.516  46.189  53.508  1.00  0.00     0.078 A 
HETATM   10  C   UNL     1      27.754  44.368  54.294  1.00  0.00     0.073 C 
HETATM   11  C   UNL     1      25.782  46.963  52.630  1.00  0.00     0.069 A 
HETATM   12  O   UNL     1      26.727  46.510  54.824  1.00  0.00    -0.345 OA
HETATM   13  C   UNL     1      27.732  45.559  55.267  1.00  0.00     0.129 C 
HETATM   14  C   UNL     1      29.078  46.279  55.346  1.00  0.00     0.040 C 
BRANCH   6  15
HETATM   15  O   UNL     1      26.309  44.947  49.590  1.00  0.00    -0.349 OA
BRANCH  15  16
HETATM   16  C   UNL     1      25.419  43.852  49.349  1.00  0.00     0.171 C 
HETATM   17  C   UNL     1      24.212  44.356  48.580  1.00  0.00     0.034 C 
ENDBRANCH  15  16
ENDBRANCH   6  15
ENDBRANCH   1   5
BRANCH   2  18
HETATM   18  C   UNL     1      24.206  49.098  48.974  1.00  0.00     0.077 C 
HETATM   19  C   UNL     1      22.975  48.967  49.490  1.00  0.00     0.043 C 
BRANCH  19  20
HETATM   20  C   UNL     1      21.881  49.699  48.955  1.00  0.00     0.077 A 
HETATM   21  O   UNL     1      21.144  49.300  47.859  1.00  0.00    -0.310 OA
HETATM   22  C   UNL     1      20.178  50.226  47.630  1.00  0.00     0.086 A 
HETATM   23  C   UNL     1      20.256  51.244  48.565  1.00  0.00     0.000 A 
HETATM   24  C   UNL     1      19.233  50.173  46.608  1.00  0.00     0.038 A 
HETATM   25  C   UNL     1      21.347  50.904  49.402  1.00  0.00     0.051 A 
HETATM   26  C   UNL     1      19.327  52.298  48.494  1.00  0.00     0.014 A 
HETATM   27  C   UNL     1      18.361  52.273  47.479  1.00  0.00     0.001 A 
HETATM   28  C   UNL     1      18.317  51.229  46.551  1.00  0.00     0.003 A 
ENDBRANCH  19  20
ENDBRANCH   2  18
TORSDOF 5
ENDMDL
MODEL 6
REMARK VINA RESULT:      -8.9      5.935      7.217
REMARK  5 active torsions:
REMARK  status: ('A' for Active; 'I' for Inactive)
REMARK    1  A    between atoms: C_2  and  O_3 
REMARK    2  A    between atoms: O_3  and  C_4 
REMARK    3  A    between atoms: C_5  and  N_6 
REMARK       I    between atoms: N_6  and  C_7 
REMARK    4  A    between atoms: C_7  and  C_8 
REMARK    5  A    between atoms: C_9  and  C_10 
ROOT
HETATM    1  N   UNL     1      28.580  40.593  50.829  1.00  0.00    -0.321 N 
HETATM    2  C   UNL     1      27.627  41.281  51.551  1.00  0.00     0.245 C 
HETATM    3  O   UNL     1      26.444  41.436  51.289  1.00  0.00    -0.268 OA
HETATM    4  H   UNL     1      29.415  40.324  51.330  1.00  0.00     0.169 HD
ENDROOT
BRANCH   1   5
HETATM    5  C   UNL     1      28.470  40.063  49.520  1.00  0.00     0.071 A 
HETATM    6  C   UNL     1      28.502  38.691  49.177  1.00  0.00     0.096 A 
HETATM    7  C   UNL     1      28.428  38.272  47.838  1.00  0.00     0.049 A 
HETATM    8  C   UNL     1      28.228  39.228  46.862  1.00  0.00    -0.020 A 
HETATM    9  C   UNL     1      28.127  40.564  47.198  1.00  0.00     0.078 A 
HETATM   10  C   UNL     1      28.129  39.078  45.394  1.00  0.00     0.073 C 
HETATM   11  C   UNL     1      28.248  41.005  48.502  1.00  0.00     0.069 A 
HETATM   12  O   UNL     1      27.908  41.388  46.126  1.00  0.00    -0.345 OA
HETATM   13  C   UNL     1      27.610  40.479  45.032  1.00  0.00     0.129 C 
HETATM   14  C   UNL     1      26.103  40.502  44.780  1.00  0.00     0.040 C 
BRANCH   6  15
HETATM   15  O   UNL     1      28.578  37.718  50.136  1.00  0.00    -0.349 OA
BRANCH  15  16
HETATM   16  C   UNL     1      29.930  37.376  50.459  1.00  0.00     0.171 C 
HETATM   17  C   UNL     1      29.952  36.648  51.790  1.00  0.00     0.034 C 
ENDBRANCH  15  16
ENDBRANCH   6  15
ENDBRANCH   1   5
BRANCH   2  18
HETATM   18  C   UNL     1      28.191  41.804  52.828  1.00  0.00     0.077 C 
HETATM   19  C   UNL     1      28.553  43.093  52.912  1.00  0.00     0.043 C 
BRANCH  19  20
HETATM   20  C   UNL     1      29.123  43.612  54.107  1.00  0.00     0.077 A 
HETATM   21  O   UNL     1      30.101  42.971  54.838  1.00  0.00    -0.310 OA
HETATM   22  C   UNL     1      30.417  43.748  55.906  1.00  0.00     0.086 A 
HETATM   23  C   UNL     1      29.660  44.907  55.898  1.00  0.00     0.000 A 
HETATM   24  C   UNL     1      31.366  43.439  56.878  1.00  0.00     0.038 A 
HETATM   25  C   UNL     1      28.834  44.810  54.751  1.00  0.00     0.051 A 
HETATM   26  C   UNL     1      29.852  45.845  56.928  1.00  0.00     0.014 A 
HETATM   27  C   UNL     1      30.802  45.567  57.921  1.00  0.00     0.001 A 
HETATM   28  C   UNL     1      31.544  44.383  57.896  1.00  0.00     0.003 A 
ENDBRANCH  19  20
ENDBRANCH   2  18
TORSDOF 5
ENDMDL
MODEL 7
REMARK VINA RESULT:      -8.8      1.464      2.011
REMARK  5 active torsions:
REMARK  status: ('A' for Active; 'I' for Inactive)
REMARK    1  A    between atoms: C_2  and  O_3 
REMARK    2  A    between atoms: O_3  and  C_4 
REMARK    3  A    between atoms: C_5  and  N_6 
REMARK       I    between atoms: N_6  and  C_7 
REMARK    4  A    between atoms: C_7  and  C_8 
REMARK    5  A    between atoms: C_9  and  C_10 
ROOT
HETATM    1  N   UNL     1      24.741  45.793  50.342  1.00  0.00    -0.321 N 
HETATM    2  C   UNL     1      24.547  44.736  51.207  1.00  0.00     0.245 C 
HETATM    3  O   UNL     1      23.561  44.024  51.323  1.00  0.00    -0.268 OA
HETATM    4  H   UNL     1      25.699  46.071  50.183  1.00  0.00     0.169 HD
ENDROOT
BRANCH   1   5
HETATM    5  C   UNL     1      23.786  46.431  49.513  1.00  0.00     0.071 A 
HETATM    6  C   UNL     1      23.758  47.807  49.189  1.00  0.00     0.096 A 
HETATM    7  C   UNL     1      22.736  48.347  48.390  1.00  0.00     0.049 A 
HETATM    8  C   UNL     1      21.805  47.486  47.844  1.00  0.00    -0.020 A 
HETATM    9  C   UNL     1      21.868  46.131  48.102  1.00  0.00     0.078 A 
HETATM   10  C   UNL     1      20.631  47.775  46.992  1.00  0.00     0.073 C 
HETATM   11  C   UNL     1      22.832  45.583  48.926  1.00  0.00     0.069 A 
HETATM   12  O   UNL     1      20.890  45.404  47.474  1.00  0.00    -0.345 OA
HETATM   13  C   UNL     1      20.286  46.344  46.546  1.00  0.00     0.129 C 
HETATM   14  C   UNL     1      20.791  46.028  45.139  1.00  0.00     0.040 C 
BRANCH   6  15
HETATM   15  O   UNL     1      24.737  48.661  49.618  1.00  0.00    -0.349 OA
BRANCH  15  16
HETATM   16  C   UNL     1      25.183  49.542  48.582  1.00  0.00     0.171 C 
HETATM   17  C   UNL     1      26.693  49.676  48.662  1.00  0.00     0.034 C 
ENDBRANCH  15  16
ENDBRANCH   6  15
ENDBRANCH   1   5
BRANCH   2  18
HETATM   18  C   UNL     1      25.772  44.464  52.011  1.00  0.00     0.077 C 
HETATM   19  C   UNL     1      26.019  45.193  53.109  1.00  0.00     0.043 C 
BRANCH  19  20
HETATM   20  C   UNL     1      27.196  44.976  53.876  1.00  0.00     0.077 A 
HETATM   21  O   UNL     1      27.976  43.841  53.792  1.00  0.00    -0.310 OA
HETATM   22  C   UNL     1      29.018  43.971  54.652  1.00  0.00     0.086 A 
HETATM   23  C   UNL     1      28.947  45.186  55.314  1.00  0.00     0.000 A 
HETATM   24  C   UNL     1      30.025  43.030  54.852  1.00  0.00     0.038 A 
HETATM   25  C   UNL     1      27.780  45.818  54.817  1.00  0.00     0.051 A 
HETATM   26  C   UNL     1      29.950  45.506  56.246  1.00  0.00     0.014 A 
HETATM   27  C   UNL     1      30.980  44.580  56.468  1.00  0.00     0.001 A 
HETATM   28  C   UNL     1      31.014  43.363  55.783  1.00  0.00     0.003 A 
ENDBRANCH  19  20
ENDBRANCH   2  18
TORSDOF 5
ENDMDL
MODEL 8
REMARK VINA RESULT:      -8.7      3.537      4.528
REMARK  5 active torsions:
REMARK  status: ('A' for Active; 'I' for Inactive)
REMARK    1  A    between atoms: C_2  and  O_3 
REMARK    2  A    between atoms: O_3  and  C_4 
REMARK    3  A    between atoms: C_5  and  N_6 
REMARK       I    between atoms: N_6  and  C_7 
REMARK    4  A    between atoms: C_7  and  C_8 
REMARK    5  A    between atoms: C_9  and  C_10 
ROOT
HETATM    1  N   UNL     1      25.723  42.675  51.104  1.00  0.00    -0.321 N 
HETATM    2  C   UNL     1      26.774  43.563  51.008  1.00  0.00     0.245 C 
HETATM    3  O   UNL     1      27.177  44.155  50.018  1.00  0.00    -0.268 OA
HETATM    4  H   UNL     1      25.355  42.515  52.032  1.00  0.00     0.169 HD
ENDROOT
BRANCH   1   5
HETATM    5  C   UNL     1      24.975  42.088  50.054  1.00  0.00     0.071 A 
HETATM    6  C   UNL     1      23.643  42.408  49.707  1.00  0.00     0.096 A 
HETATM    7  C   UNL     1      22.976  41.732  48.671  1.00  0.00     0.049 A 
HETATM    8  C   UNL     1      23.684  40.807  47.930  1.00  0.00    -0.020 A 
HETATM    9  C   UNL     1      25.007  40.539  48.221  1.00  0.00     0.078 A 
HETATM   10  C   UNL     1      23.240  39.948  46.811  1.00  0.00     0.073 C 
HETATM   11  C   UNL     1      25.669  41.153  49.267  1.00  0.00     0.069 A 
HETATM   12  O   UNL     1      25.580  39.615  47.387  1.00  0.00    -0.345 OA
HETATM   13  C   UNL     1      24.608  39.445  46.321  1.00  0.00     0.129 C 
HETATM   14  C   UNL     1      25.105  40.197  45.087  1.00  0.00     0.040 C 
BRANCH   6  15
HETATM   15  O   UNL     1      22.959  43.406  50.347  1.00  0.00    -0.349 OA
BRANCH  15  16
HETATM   16  C   UNL     1      22.638  44.493  49.473  1.00  0.00     0.171 C 
HETATM   17  C   UNL     1      23.777  45.497  49.493  1.00  0.00     0.034 C 
ENDBRANCH  15  16
ENDBRANCH   6  15
ENDBRANCH   1   5
BRANCH   2  18
HETATM   18  C   UNL     1      27.388  43.819  52.342  1.00  0.00     0.077 C 
HETATM   19  C   UNL     1      28.708  43.649  52.506  1.00  0.00     0.043 C 
BRANCH  19  20
HETATM   20  C   UNL     1      29.316  43.856  53.774  1.00  0.00     0.077 A 
HETATM   21  O   UNL     1      29.025  44.916  54.608  1.00  0.00    -0.310 OA
HETATM   22  C   UNL     1      29.777  44.798  55.732  1.00  0.00     0.086 A 
HETATM   23  C   UNL     1      30.570  43.665  55.664  1.00  0.00     0.000 A 
HETATM   24  C   UNL     1      29.763  45.679  56.811  1.00  0.00     0.038 A 
HETATM   25  C   UNL     1      30.274  43.073  54.410  1.00  0.00     0.051 A 
HETATM   26  C   UNL     1      31.418  43.369  56.746  1.00  0.00     0.014 A 
HETATM   27  C   UNL     1      31.425  44.234  57.849  1.00  0.00     0.001 A 
HETATM   28  C   UNL     1      30.613  45.370  57.878  1.00  0.00     0.003 A 
ENDBRANCH  19  20
ENDBRANCH   2  18
TORSDOF 5
ENDMDL
MODEL 9
REMARK VINA RESULT:      -8.4      2.729      4.838
REMARK  5 active torsions:
REMARK  status: ('A' for Active; 'I' for Inactive)
REMARK    1  A    between atoms: C_2  and  O_3 
REMARK    2  A    between atoms: O_3  and  C_4 
REMARK    3  A    between atoms: C_5  and  N_6 
REMARK       I    between atoms: N_6  and  C_7 
REMARK    4  A    between atoms: C_7  and  C_8 
REMARK    5  A    between atoms: C_9  and  C_10 
ROOT
HETATM    1  N   UNL     1      23.871  47.882  49.710  1.00  0.00    -0.321 N 
HETATM    2  C   UNL     1      25.189  48.218  49.483  1.00  0.00     0.245 C 
HETATM    3  O   UNL     1      25.632  49.155  48.836  1.00  0.00    -0.268 OA
HETATM    4  H   UNL     1      23.693  47.266  50.491  1.00  0.00     0.169 HD
ENDROOT
BRANCH   1   5
HETATM    5  C   UNL     1      22.714  48.424  49.099  1.00  0.00     0.071 A 
HETATM    6  C   UNL     1      21.777  47.707  48.319  1.00  0.00     0.096 A 
HETATM    7  C   UNL     1      20.682  48.353  47.720  1.00  0.00     0.049 A 
HETATM    8  C   UNL     1      20.483  49.692  47.987  1.00  0.00    -0.020 A 
HETATM    9  C   UNL     1      21.357  50.382  48.805  1.00  0.00     0.078 A 
HETATM   10  C   UNL     1      19.440  50.615  47.488  1.00  0.00     0.073 C 
HETATM   11  C   UNL     1      22.469  49.782  49.364  1.00  0.00     0.069 A 
HETATM   12  O   UNL     1      21.016  51.696  48.993  1.00  0.00    -0.345 OA
HETATM   13  C   UNL     1      19.679  51.802  48.435  1.00  0.00     0.129 C 
HETATM   14  C   UNL     1      18.676  51.848  49.587  1.00  0.00     0.040 C 
BRANCH   6  15
HETATM   15  O   UNL     1      21.884  46.355  48.138  1.00  0.00    -0.349 OA
BRANCH  15  16
HETATM   16  C   UNL     1      20.673  45.665  48.461  1.00  0.00     0.171 C 
HETATM   17  C   UNL     1      20.337  44.702  47.336  1.00  0.00     0.034 C 
ENDBRANCH  15  16
ENDBRANCH   6  15
ENDBRANCH   1   5
BRANCH   2  18
HETATM   18  C   UNL     1      26.113  47.305  50.215  1.00  0.00     0.077 C 
HETATM   19  C   UNL     1      25.633  46.524  51.195  1.00  0.00     0.043 C 
BRANCH  19  20
HETATM   20  C   UNL     1      26.496  45.668  51.931  1.00  0.00     0.077 A 
HETATM   21  O   UNL     1      27.211  44.627  51.375  1.00  0.00    -0.310 OA
HETATM   22  C   UNL     1      27.933  44.029  52.357  1.00  0.00     0.086 A 
HETATM   23  C   UNL     1      27.712  44.660  53.569  1.00  0.00     0.000 A 
HETATM   24  C   UNL     1      28.781  42.937  52.186  1.00  0.00     0.038 A 
HETATM   25  C   UNL     1      26.791  45.701  53.290  1.00  0.00     0.051 A 
HETATM   26  C   UNL     1      28.383  44.184  54.710  1.00  0.00     0.014 A 
HETATM   27  C   UNL     1      29.246  43.088  54.572  1.00  0.00     0.001 A 
HETATM   28  C   UNL     1      29.440  42.475  53.331  1.00  0.00     0.003 A 
ENDBRANCH  19  20
ENDBRANCH   2  18
TORSDOF 5
ENDMDL
MODEL 10
REMARK VINA RESULT:      -8.4      3.533      9.552
REMARK  5 active torsions:
REMARK  status: ('A' for Active; 'I' for Inactive)
REMARK    1  A    between atoms: C_2  and  O_3 
REMARK    2  A    between atoms: O_3  and  C_4 
REMARK    3  A    between atoms: C_5  and  N_6 
REMARK       I    between atoms: N_6  and  C_7 
REMARK    4  A    between atoms: C_7  and  C_8 
REMARK    5  A    between atoms: C_9  and  C_10 
ROOT
HETATM    1  N   UNL     1      24.874  46.654  49.929  1.00  0.00    -0.321 N 
HETATM    2  C   UNL     1      25.332  47.909  49.585  1.00  0.00     0.245 C 
HETATM    3  O   UNL     1      26.487  48.304  49.525  1.00  0.00    -0.268 OA
HETATM    4  H   UNL     1      23.931  46.428  49.645  1.00  0.00     0.169 HD
ENDROOT
BRANCH   1   5
HETATM    5  C   UNL     1      25.609  45.576  50.478  1.00  0.00     0.071 A 
HETATM    6  C   UNL     1      25.893  45.380  51.850  1.00  0.00     0.096 A 
HETATM    7  C   UNL     1      26.671  44.294  52.286  1.00  0.00     0.049 A 
HETATM    8  C   UNL     1      27.079  43.363  51.352  1.00  0.00    -0.020 A 
HETATM    9  C   UNL     1      26.747  43.513  50.020  1.00  0.00     0.078 A 
HETATM   10  C   UNL     1      27.909  42.150  51.522  1.00  0.00     0.073 C 
HETATM   11  C   UNL     1      26.027  44.598  49.560  1.00  0.00     0.069 A 
HETATM   12  O   UNL     1      27.204  42.499  49.219  1.00  0.00    -0.345 OA
HETATM   13  C   UNL     1      27.673  41.489  50.154  1.00  0.00     0.129 C 
HETATM   14  C   UNL     1      26.638  40.367  50.212  1.00  0.00     0.040 C 
BRANCH   6  15
HETATM   15  O   UNL     1      25.398  46.222  52.808  1.00  0.00    -0.349 OA
BRANCH  15  16
HETATM   16  C   UNL     1      26.344  47.225  53.192  1.00  0.00     0.171 C 
HETATM   17  C   UNL     1      26.369  47.327  54.707  1.00  0.00     0.034 C 
ENDBRANCH  15  16
ENDBRANCH   6  15
ENDBRANCH   1   5
BRANCH   2  18
HETATM   18  C   UNL     1      24.208  48.803  49.186  1.00  0.00     0.077 C 
HETATM   19  C   UNL     1      22.970  48.301  49.075  1.00  0.00     0.043 C 
BRANCH  19  20
HETATM   20  C   UNL     1      21.885  49.124  48.666  1.00  0.00     0.077 A 
HETATM   21  O   UNL     1      21.482  50.261  49.335  1.00  0.00    -0.310 OA
HETATM   22  C   UNL     1      20.430  50.801  48.668  1.00  0.00     0.086 A 
HETATM   23  C   UNL     1      20.123  50.039  47.554  1.00  0.00     0.000 A 
HETATM   24  C   UNL     1      19.747  51.958  49.036  1.00  0.00     0.038 A 
HETATM   25  C   UNL     1      21.052  48.968  47.563  1.00  0.00     0.051 A 
HETATM   26  C   UNL     1      19.059  50.446  46.729  1.00  0.00     0.014 A 
HETATM   27  C   UNL     1      18.353  51.609  47.070  1.00  0.00     0.001 A 
HETATM   28  C   UNL     1      18.692  52.350  48.206  1.00  0.00     0.003 A 
ENDBRANCH  19  20
ENDBRANCH   2  18
TORSDOF 5
ENDMDL
