MODEL 1
REMARK VINA RESULT:      -9.4      0.000      0.000
REMARK  7 active torsions:
REMARK  status: ('A' for Active; 'I' for Inactive)
REMARK    1  A    between atoms: C_2  and  N_3 
REMARK    2  A    between atoms: C_4  and  C_5 
REMARK       I    between atoms: C_5  and  N_6 
REMARK    3  A    between atoms: N_6  and  C_7 
REMARK    4  A    between atoms: C_7  and  C_8 
REMARK    5  A    between atoms: C_19  and  N_20 
REMARK       I    between atoms: N_20  and  C_21 
REMARK    6  A    between atoms: C_21  and  C_22 
REMARK    7  A    between atoms: C_25  and  O_26 
ROOT
HETATM    1  N   UNL     1      22.969  47.099  48.565  1.00  0.00    -0.342 N 
HETATM    2  C   UNL     1      23.125  48.479  48.604  1.00  0.00     0.104 A 
HETATM    3  C   UNL     1      24.121  48.719  49.543  1.00  0.00     0.049 A 
HETATM    4  C   UNL     1      24.583  47.483  50.061  1.00  0.00    -0.005 A 
HETATM    5  C   UNL     1      23.847  46.478  49.441  1.00  0.00     0.045 A 
HETATM    6  C   UNL     1      25.579  47.134  51.000  1.00  0.00     0.043 A 
HETATM    7  C   UNL     1      25.822  45.789  51.298  1.00  0.00     0.035 A 
HETATM    8  C   UNL     1      25.057  44.802  50.671  1.00  0.00     0.032 A 
HETATM    9  C   UNL     1      24.066  45.123  49.735  1.00  0.00     0.033 A 
ENDROOT
BRANCH   7  10
HETATM   10  N   UNL     1      26.809  45.355  52.210  1.00  0.00    -0.323 N 
HETATM   11  C   UNL     1      26.699  45.292  53.589  1.00  0.00     0.256 C 
HETATM   12  O   UNL     1      25.746  45.647  54.273  1.00  0.00    -0.267 OA
HETATM   13  H   UNL     1      27.719  45.161  51.815  1.00  0.00     0.169 HD
BRANCH  11  14
HETATM   14  C   UNL     1      27.908  44.778  54.286  1.00  0.00     0.032 A 
HETATM   15  C   UNL     1      28.338  43.478  54.002  1.00  0.00     0.020 A 
HETATM   16  C   UNL     1      29.479  42.971  54.624  1.00  0.00     0.038 A 
HETATM   17  C   UNL     1      30.216  43.762  55.509  1.00  0.00     0.068 A 
HETATM   18  C   UNL     1      29.785  45.060  55.795  1.00  0.00     0.038 A 
HETATM   19  C   UNL     1      28.635  45.572  55.183  1.00  0.00     0.020 A 
BRANCH  17  20
HETATM   20  O   UNL     1      31.321  43.155  56.039  1.00  0.00    -0.356 OA
HETATM   21  C   UNL     1      31.710  43.580  57.339  1.00  0.00     0.210 C 
ENDBRANCH  17  20
ENDBRANCH  11  14
ENDBRANCH   7  10
BRANCH   2  22
HETATM   22  C   UNL     1      22.394  49.431  47.779  1.00  0.00     0.268 C 
HETATM   23  N   UNL     1      21.023  49.351  47.864  1.00  0.00    -0.353 N 
HETATM   24  H   UNL     1      20.601  48.545  48.305  1.00  0.00     0.162 HD
HETATM   25  O   UNL     1      22.939  50.257  47.050  1.00  0.00    -0.266 OA
BRANCH  23  26
HETATM   26  C   UNL     1      20.152  50.155  47.024  1.00  0.00     0.160 C 
BRANCH  26  27
HETATM   27  C   UNL     1      19.080  50.910  47.832  1.00  0.00     0.073 C 
HETATM   28  C   UNL     1      18.052  51.512  46.863  1.00  0.00     0.047 C 
HETATM   29  O   UNL     1      18.377  49.985  48.693  1.00  0.00    -0.379 OA
HETATM   30  C   UNL     1      18.175  50.604  49.973  1.00  0.00     0.169 C 
HETATM   31  C   UNL     1      18.636  52.043  49.866  1.00  0.00     0.029 C 
HETATM   32  C   UNL     1      19.663  51.974  48.763  1.00  0.00     0.041 C 
ENDBRANCH  26  27
ENDBRANCH  23  26
ENDBRANCH   2  22
BRANCH   1  33
HETATM   33  C   UNL     1      22.020  46.373  47.729  1.00  0.00     0.125 C 
HETATM   34  C   UNL     1      20.811  45.893  48.513  1.00  0.00     0.027 C 
ENDBRANCH   1  33
TORSDOF 7
ENDMDL
MODEL 2
REMARK VINA RESULT:      -9.4      1.545      1.906
REMARK  7 active torsions:
REMARK  status: ('A' for Active; 'I' for Inactive)
REMARK    1  A    between atoms: C_2  and  N_3 
REMARK    2  A    between atoms: C_4  and  C_5 
REMARK       I    between atoms: C_5  and  N_6 
REMARK    3  A    between atoms: N_6  and  C_7 
REMARK    4  A    between atoms: C_7  and  C_8 
REMARK    5  A    between atoms: C_19  and  N_20 
REMARK       I    between atoms: N_20  and  C_21 
REMARK    6  A    between atoms: C_21  and  C_22 
REMARK    7  A    between atoms: C_25  and  O_26 
ROOT
HETATM    1  N   UNL     1      23.084  45.610  49.274  1.00  0.00    -0.342 N 
HETATM    2  C   UNL     1      23.200  46.963  48.982  1.00  0.00     0.104 A 
HETATM    3  C   UNL     1      24.204  47.444  49.815  1.00  0.00     0.049 A 
HETATM    4  C   UNL     1      24.710  46.377  50.600  1.00  0.00    -0.005 A 
HETATM    5  C   UNL     1      23.993  45.236  50.252  1.00  0.00     0.045 A 
HETATM    6  C   UNL     1      25.730  46.285  51.572  1.00  0.00     0.043 A 
HETATM    7  C   UNL     1      26.018  45.055  52.175  1.00  0.00     0.035 A 
HETATM    8  C   UNL     1      25.271  43.929  51.815  1.00  0.00     0.032 A 
HETATM    9  C   UNL     1      24.256  43.995  50.853  1.00  0.00     0.033 A 
ENDROOT
BRANCH   7  10
HETATM   10  N   UNL     1      27.031  44.874  53.141  1.00  0.00    -0.323 N 
HETATM   11  C   UNL     1      28.235  44.213  52.970  1.00  0.00     0.256 C 
HETATM   12  O   UNL     1      28.621  43.623  51.967  1.00  0.00    -0.267 OA
HETATM   13  H   UNL     1      26.806  45.178  54.078  1.00  0.00     0.169 HD
BRANCH  11  14
HETATM   14  C   UNL     1      29.110  44.195  54.172  1.00  0.00     0.032 A 
HETATM   15  C   UNL     1      29.035  45.267  55.066  1.00  0.00     0.020 A 
HETATM   16  C   UNL     1      29.828  45.274  56.214  1.00  0.00     0.038 A 
HETATM   17  C   UNL     1      30.679  44.201  56.495  1.00  0.00     0.068 A 
HETATM   18  C   UNL     1      30.756  43.131  55.601  1.00  0.00     0.038 A 
HETATM   19  C   UNL     1      29.971  43.123  54.442  1.00  0.00     0.020 A 
BRANCH  17  20
HETATM   20  O   UNL     1      31.389  44.321  57.658  1.00  0.00    -0.356 OA
HETATM   21  C   UNL     1      30.922  45.295  58.583  1.00  0.00     0.210 C 
ENDBRANCH  17  20
ENDBRANCH  11  14
ENDBRANCH   7  10
BRANCH   2  22
HETATM   22  C   UNL     1      22.429  47.675  47.972  1.00  0.00     0.268 C 
HETATM   23  N   UNL     1      22.096  48.971  48.292  1.00  0.00    -0.353 N 
HETATM   24  H   UNL     1      22.210  49.290  49.245  1.00  0.00     0.162 HD
HETATM   25  O   UNL     1      22.087  47.177  46.902  1.00  0.00    -0.266 OA
BRANCH  23  26
HETATM   26  C   UNL     1      21.239  49.778  47.442  1.00  0.00     0.160 C 
BRANCH  26  27
HETATM   27  C   UNL     1      19.953  50.234  48.157  1.00  0.00     0.073 C 
HETATM   28  C   UNL     1      18.761  50.063  47.204  1.00  0.00     0.047 C 
HETATM   29  O   UNL     1      19.713  49.394  49.310  1.00  0.00    -0.379 OA
HETATM   30  C   UNL     1      19.276  50.219  50.401  1.00  0.00     0.169 C 
HETATM   31  C   UNL     1      19.084  51.623  49.869  1.00  0.00     0.029 C 
HETATM   32  C   UNL     1      20.036  51.661  48.700  1.00  0.00     0.041 C 
ENDBRANCH  26  27
ENDBRANCH  23  26
ENDBRANCH   2  22
BRANCH   1  33
HETATM   33  C   UNL     1      22.143  44.684  48.655  1.00  0.00     0.125 C 
HETATM   34  C   UNL     1      22.788  43.854  47.558  1.00  0.00     0.027 C 
ENDBRANCH   1  33
TORSDOF 7
ENDMDL
MODEL 3
REMARK VINA RESULT:      -8.8      3.743     12.159
REMARK  7 active torsions:
REMARK  status: ('A' for Active; 'I' for Inactive)
REMARK    1  A    between atoms: C_2  and  N_3 
REMARK    2  A    between atoms: C_4  and  C_5 
REMARK       I    between atoms: C_5  and  N_6 
REMARK    3  A    between atoms: N_6  and  C_7 
REMARK    4  A    between atoms: C_7  and  C_8 
REMARK    5  A    between atoms: C_19  and  N_20 
REMARK       I    between atoms: N_20  and  C_21 
REMARK    6  A    between atoms: C_21  and  C_22 
REMARK    7  A    between atoms: C_25  and  O_26 
ROOT
HETATM    1  N   UNL     1      21.070  49.232  48.038  1.00  0.00    -0.342 N 
HETATM    2  C   UNL     1      22.147  50.048  48.360  1.00  0.00     0.104 A 
HETATM    3  C   UNL     1      21.596  51.207  48.893  1.00  0.00     0.049 A 
HETATM    4  C   UNL     1      20.183  51.088  48.911  1.00  0.00    -0.005 A 
HETATM    5  C   UNL     1      19.870  49.845  48.366  1.00  0.00     0.045 A 
HETATM    6  C   UNL     1      19.142  51.930  49.357  1.00  0.00     0.043 A 
HETATM    7  C   UNL     1      17.809  51.515  49.255  1.00  0.00     0.035 A 
HETATM    8  C   UNL     1      17.525  50.269  48.691  1.00  0.00     0.032 A 
HETATM    9  C   UNL     1      18.540  49.415  48.243  1.00  0.00     0.033 A 
ENDROOT
BRANCH   7  10
HETATM   10  N   UNL     1      16.712  52.288  49.693  1.00  0.00    -0.323 N 
HETATM   11  C   UNL     1      15.692  52.803  48.912  1.00  0.00     0.256 C 
HETATM   12  O   UNL     1      15.579  52.725  47.693  1.00  0.00    -0.267 OA
HETATM   13  H   UNL     1      16.731  52.570  50.664  1.00  0.00     0.169 HD
BRANCH  11  14
HETATM   14  C   UNL     1      14.662  53.571  49.661  1.00  0.00     0.032 A 
HETATM   15  C   UNL     1      14.890  53.845  51.014  1.00  0.00     0.020 A 
HETATM   16  C   UNL     1      13.953  54.579  51.743  1.00  0.00     0.038 A 
HETATM   17  C   UNL     1      12.800  55.071  51.125  1.00  0.00     0.068 A 
HETATM   18  C   UNL     1      12.572  54.796  49.774  1.00  0.00     0.038 A 
HETATM   19  C   UNL     1      13.502  54.050  49.040  1.00  0.00     0.020 A 
BRANCH  17  20
HETATM   20  O   UNL     1      11.972  55.788  51.943  1.00  0.00    -0.356 OA
HETATM   21  C   UNL     1      12.560  56.323  53.122  1.00  0.00     0.210 C 
ENDBRANCH  17  20
ENDBRANCH  11  14
ENDBRANCH   7  10
BRANCH   2  22
HETATM   22  C   UNL     1      23.549  49.695  48.190  1.00  0.00     0.268 C 
HETATM   23  N   UNL     1      24.079  48.897  49.178  1.00  0.00    -0.353 N 
HETATM   24  H   UNL     1      23.564  48.769  50.039  1.00  0.00     0.162 HD
HETATM   25  O   UNL     1      24.235  50.070  47.242  1.00  0.00    -0.266 OA
BRANCH  23  26
HETATM   26  C   UNL     1      25.488  48.548  49.214  1.00  0.00     0.160 C 
BRANCH  26  27
HETATM   27  C   UNL     1      25.771  47.308  50.082  1.00  0.00     0.073 C 
HETATM   28  C   UNL     1      27.007  46.581  49.533  1.00  0.00     0.047 C 
HETATM   29  O   UNL     1      26.073  47.719  51.435  1.00  0.00    -0.379 OA
HETATM   30  C   UNL     1      25.420  46.825  52.350  1.00  0.00     0.169 C 
HETATM   31  C   UNL     1      24.802  45.707  51.537  1.00  0.00     0.029 C 
HETATM   32  C   UNL     1      24.572  46.365  50.199  1.00  0.00     0.041 C 
ENDBRANCH  26  27
ENDBRANCH  23  26
ENDBRANCH   2  22
BRANCH   1  33
HETATM   33  C   UNL     1      21.157  47.908  47.434  1.00  0.00     0.125 C 
HETATM   34  C   UNL     1      21.139  46.798  48.471  1.00  0.00     0.027 C 
ENDBRANCH   1  33
TORSDOF 7
ENDMDL
MODEL 4
REMARK VINA RESULT:      -8.7      2.067     11.234
REMARK  7 active torsions:
REMARK  status: ('A' for Active; 'I' for Inactive)
REMARK    1  A    between atoms: C_2  and  N_3 
REMARK    2  A    between atoms: C_4  and  C_5 
REMARK       I    between atoms: C_5  and  N_6 
REMARK    3  A    between atoms: N_6  and  C_7 
REMARK    4  A    between atoms: C_7  and  C_8 
REMARK    5  A    between atoms: C_19  and  N_20 
REMARK       I    between atoms: N_20  and  C_21 
REMARK    6  A    between atoms: C_21  and  C_22 
REMARK    7  A    between atoms: C_25  and  O_26 
ROOT
HETATM    1  N   UNL     1      26.152  47.784  49.434  1.00  0.00    -0.342 N 
HETATM    2  C   UNL     1      25.792  46.580  50.027  1.00  0.00     0.104 A 
HETATM    3  C   UNL     1      24.405  46.602  50.111  1.00  0.00     0.049 A 
HETATM    4  C   UNL     1      23.921  47.812  49.552  1.00  0.00    -0.005 A 
HETATM    5  C   UNL     1      25.031  48.543  49.136  1.00  0.00     0.045 A 
HETATM    6  C   UNL     1      22.628  48.342  49.352  1.00  0.00     0.043 A 
HETATM    7  C   UNL     1      22.466  49.589  48.738  1.00  0.00     0.035 A 
HETATM    8  C   UNL     1      23.599  50.307  48.345  1.00  0.00     0.032 A 
HETATM    9  C   UNL     1      24.892  49.802  48.531  1.00  0.00     0.033 A 
ENDROOT
BRANCH   7  10
HETATM   10  N   UNL     1      21.210  50.182  48.486  1.00  0.00    -0.323 N 
HETATM   11  C   UNL     1      20.463  50.953  49.360  1.00  0.00     0.256 C 
HETATM   12  O   UNL     1      20.730  51.222  50.526  1.00  0.00    -0.267 OA
HETATM   13  H   UNL     1      20.775  49.935  47.608  1.00  0.00     0.169 HD
BRANCH  11  14
HETATM   14  C   UNL     1      19.178  51.453  48.804  1.00  0.00     0.032 A 
HETATM   15  C   UNL     1      18.941  51.301  47.434  1.00  0.00     0.020 A 
HETATM   16  C   UNL     1      17.738  51.742  46.882  1.00  0.00     0.038 A 
HETATM   17  C   UNL     1      16.751  52.310  47.692  1.00  0.00     0.068 A 
HETATM   18  C   UNL     1      16.988  52.464  49.061  1.00  0.00     0.038 A 
HETATM   19  C   UNL     1      18.197  52.034  49.619  1.00  0.00     0.020 A 
BRANCH  17  20
HETATM   20  O   UNL     1      15.613  52.685  47.034  1.00  0.00    -0.356 OA
HETATM   21  C   UNL     1      15.130  51.782  46.047  1.00  0.00     0.210 C 
ENDBRANCH  17  20
ENDBRANCH  11  14
ENDBRANCH   7  10
BRANCH   2  22
HETATM   22  C   UNL     1      26.717  45.529  50.425  1.00  0.00     0.268 C 
HETATM   23  N   UNL     1      26.699  45.205  51.762  1.00  0.00    -0.353 N 
HETATM   24  H   UNL     1      26.227  45.818  52.413  1.00  0.00     0.162 HD
HETATM   25  O   UNL     1      27.471  44.954  49.642  1.00  0.00    -0.266 OA
BRANCH  23  26
HETATM   26  C   UNL     1      27.637  44.256  52.337  1.00  0.00     0.160 C 
BRANCH  26  27
HETATM   27  C   UNL     1      27.742  44.379  53.869  1.00  0.00     0.073 C 
HETATM   28  C   UNL     1      26.734  43.422  54.520  1.00  0.00     0.047 C 
HETATM   29  O   UNL     1      29.064  43.980  54.300  1.00  0.00    -0.379 OA
HETATM   30  C   UNL     1      29.515  44.887  55.318  1.00  0.00     0.169 C 
HETATM   31  C   UNL     1      28.363  45.811  55.653  1.00  0.00     0.029 C 
HETATM   32  C   UNL     1      27.563  45.812  54.373  1.00  0.00     0.041 C 
ENDBRANCH  26  27
ENDBRANCH  23  26
ENDBRANCH   2  22
BRANCH   1  33
HETATM   33  C   UNL     1      27.515  48.218  49.151  1.00  0.00     0.125 C 
HETATM   34  C   UNL     1      27.607  49.716  48.919  1.00  0.00     0.027 C 
ENDBRANCH   1  33
TORSDOF 7
ENDMDL
MODEL 5
REMARK VINA RESULT:      -8.5      2.442      3.401
REMARK  7 active torsions:
REMARK  status: ('A' for Active; 'I' for Inactive)
REMARK    1  A    between atoms: C_2  and  N_3 
REMARK    2  A    between atoms: C_4  and  C_5 
REMARK       I    between atoms: C_5  and  N_6 
REMARK    3  A    between atoms: N_6  and  C_7 
REMARK    4  A    between atoms: C_7  and  C_8 
REMARK    5  A    between atoms: C_19  and  N_20 
REMARK       I    between atoms: N_20  and  C_21 
REMARK    6  A    between atoms: C_21  and  C_22 
REMARK    7  A    between atoms: C_25  and  O_26 
ROOT
HETATM    1  N   UNL     1      23.087  46.502  48.764  1.00  0.00    -0.342 N 
HETATM    2  C   UNL     1      22.610  45.236  48.451  1.00  0.00     0.104 A 
HETATM    3  C   UNL     1      23.344  44.353  49.236  1.00  0.00     0.049 A 
HETATM    4  C   UNL     1      24.253  45.087  50.039  1.00  0.00    -0.005 A 
HETATM    5  C   UNL     1      24.082  46.433  49.727  1.00  0.00     0.045 A 
HETATM    6  C   UNL     1      25.201  44.718  51.018  1.00  0.00     0.043 A 
HETATM    7  C   UNL     1      25.958  45.699  51.669  1.00  0.00     0.035 A 
HETATM    8  C   UNL     1      25.775  47.041  51.324  1.00  0.00     0.032 A 
HETATM    9  C   UNL     1      24.839  47.432  50.358  1.00  0.00     0.033 A 
ENDROOT
BRANCH   7  10
HETATM   10  N   UNL     1      26.913  45.417  52.669  1.00  0.00    -0.323 N 
HETATM   11  C   UNL     1      27.813  44.365  52.688  1.00  0.00     0.256 C 
HETATM   12  O   UNL     1      27.914  43.460  51.867  1.00  0.00    -0.267 OA
HETATM   13  H   UNL     1      26.864  45.992  53.499  1.00  0.00     0.169 HD
BRANCH  11  14
HETATM   14  C   UNL     1      28.708  44.335  53.876  1.00  0.00     0.032 A 
HETATM   15  C   UNL     1      28.616  45.375  54.806  1.00  0.00     0.020 A 
HETATM   16  C   UNL     1      29.427  45.369  55.941  1.00  0.00     0.038 A 
HETATM   17  C   UNL     1      30.314  44.315  56.173  1.00  0.00     0.068 A 
HETATM   18  C   UNL     1      30.408  43.276  55.243  1.00  0.00     0.038 A 
HETATM   19  C   UNL     1      29.604  43.281  54.097  1.00  0.00     0.020 A 
BRANCH  17  20
HETATM   20  O   UNL     1      31.040  44.418  57.328  1.00  0.00    -0.356 OA
HETATM   21  C   UNL     1      30.670  45.470  58.211  1.00  0.00     0.210 C 
ENDBRANCH  17  20
ENDBRANCH  11  14
ENDBRANCH   7  10
BRANCH   2  22
HETATM   22  C   UNL     1      21.534  44.950  47.513  1.00  0.00     0.268 C 
HETATM   23  N   UNL     1      20.264  45.014  48.039  1.00  0.00    -0.353 N 
HETATM   24  H   UNL     1      20.146  45.047  49.043  1.00  0.00     0.162 HD
HETATM   25  O   UNL     1      21.718  44.668  46.331  1.00  0.00    -0.266 OA
BRANCH  23  26
HETATM   26  C   UNL     1      19.090  44.649  47.265  1.00  0.00     0.160 C 
BRANCH  26  27
HETATM   27  C   UNL     1      18.056  45.788  47.181  1.00  0.00     0.073 C 
HETATM   28  C   UNL     1      17.247  45.638  45.885  1.00  0.00     0.047 C 
HETATM   29  O   UNL     1      17.131  45.687  48.287  1.00  0.00    -0.379 OA
HETATM   30  C   UNL     1      16.877  47.004  48.802  1.00  0.00     0.169 C 
HETATM   31  C   UNL     1      17.555  47.996  47.881  1.00  0.00     0.029 C 
HETATM   32  C   UNL     1      18.680  47.180  47.295  1.00  0.00     0.041 C 
ENDBRANCH  26  27
ENDBRANCH  23  26
ENDBRANCH   2  22
BRANCH   1  33
HETATM   33  C   UNL     1      22.624  47.754  48.176  1.00  0.00     0.125 C 
HETATM   34  C   UNL     1      21.617  48.470  49.060  1.00  0.00     0.027 C 
ENDBRANCH   1  33
TORSDOF 7
ENDMDL
MODEL 6
REMARK VINA RESULT:      -8.3      2.244     10.983
REMARK  7 active torsions:
REMARK  status: ('A' for Active; 'I' for Inactive)
REMARK    1  A    between atoms: C_2  and  N_3 
REMARK    2  A    between atoms: C_4  and  C_5 
REMARK       I    between atoms: C_5  and  N_6 
REMARK    3  A    between atoms: N_6  and  C_7 
REMARK    4  A    between atoms: C_7  and  C_8 
REMARK    5  A    between atoms: C_19  and  N_20 
REMARK       I    between atoms: N_20  and  C_21 
REMARK    6  A    between atoms: C_21  and  C_22 
REMARK    7  A    between atoms: C_25  and  O_26 
ROOT
HETATM    1  N   UNL     1      24.001  45.184  48.957  1.00  0.00    -0.342 N 
HETATM    2  C   UNL     1      25.056  45.918  49.484  1.00  0.00     0.104 A 
HETATM    3  C   UNL     1      24.570  47.210  49.649  1.00  0.00     0.049 A 
HETATM    4  C   UNL     1      23.214  47.256  49.239  1.00  0.00    -0.005 A 
HETATM    5  C   UNL     1      22.874  45.978  48.803  1.00  0.00     0.045 A 
HETATM    6  C   UNL     1      22.239  48.277  49.213  1.00  0.00     0.043 A 
HETATM    7  C   UNL     1      20.945  48.003  48.757  1.00  0.00     0.035 A 
HETATM    8  C   UNL     1      20.638  46.714  48.312  1.00  0.00     0.032 A 
HETATM    9  C   UNL     1      21.586  45.684  48.330  1.00  0.00     0.033 A 
ENDROOT
BRANCH   7  10
HETATM   10  N   UNL     1      19.909  48.961  48.716  1.00  0.00    -0.323 N 
HETATM   11  C   UNL     1      19.010  49.259  49.725  1.00  0.00     0.256 C 
HETATM   12  O   UNL     1      18.916  48.714  50.819  1.00  0.00    -0.267 OA
HETATM   13  H   UNL     1      19.755  49.405  47.821  1.00  0.00     0.169 HD
BRANCH  11  14
HETATM   14  C   UNL     1      18.034  50.331  49.392  1.00  0.00     0.032 A 
HETATM   15  C   UNL     1      16.934  50.004  48.593  1.00  0.00     0.020 A 
HETATM   16  C   UNL     1      15.989  50.980  48.276  1.00  0.00     0.038 A 
HETATM   17  C   UNL     1      16.116  52.279  48.775  1.00  0.00     0.068 A 
HETATM   18  C   UNL     1      17.216  52.607  49.571  1.00  0.00     0.038 A 
HETATM   19  C   UNL     1      18.174  51.635  49.884  1.00  0.00     0.020 A 
BRANCH  17  20
HETATM   20  O   UNL     1      15.117  53.137  48.405  1.00  0.00    -0.356 OA
HETATM   21  C   UNL     1      14.789  54.160  49.338  1.00  0.00     0.210 C 
ENDBRANCH  17  20
ENDBRANCH  11  14
ENDBRANCH   7  10
BRANCH   2  22
HETATM   22  C   UNL     1      26.370  45.385  49.814  1.00  0.00     0.268 C 
HETATM   23  N   UNL     1      26.386  44.440  50.814  1.00  0.00    -0.353 N 
HETATM   24  H   UNL     1      25.565  44.316  51.390  1.00  0.00     0.162 HD
HETATM   25  O   UNL     1      27.407  45.737  49.255  1.00  0.00    -0.266 OA
BRANCH  23  26
HETATM   26  C   UNL     1      27.627  43.892  51.335  1.00  0.00     0.160 C 
BRANCH  26  27
HETATM   27  C   UNL     1      27.549  43.574  52.840  1.00  0.00     0.073 C 
HETATM   28  C   UNL     1      27.836  42.080  53.053  1.00  0.00     0.047 C 
HETATM   29  O   UNL     1      28.567  44.318  53.549  1.00  0.00    -0.379 OA
HETATM   30  C   UNL     1      28.005  44.826  54.769  1.00  0.00     0.169 C 
HETATM   31  C   UNL     1      26.613  44.247  54.911  1.00  0.00     0.029 C 
HETATM   32  C   UNL     1      26.221  43.986  53.478  1.00  0.00     0.041 C 
ENDBRANCH  26  27
ENDBRANCH  23  26
ENDBRANCH   2  22
BRANCH   1  33
HETATM   33  C   UNL     1      24.043  43.770  48.602  1.00  0.00     0.125 C 
HETATM   34  C   UNL     1      23.410  42.889  49.666  1.00  0.00     0.027 C 
ENDBRANCH   1  33
TORSDOF 7
ENDMDL
MODEL 7
REMARK VINA RESULT:      -8.2      2.336     11.188
REMARK  7 active torsions:
REMARK  status: ('A' for Active; 'I' for Inactive)
REMARK    1  A    between atoms: C_2  and  N_3 
REMARK    2  A    between atoms: C_4  and  C_5 
REMARK       I    between atoms: C_5  and  N_6 
REMARK    3  A    between atoms: N_6  and  C_7 
REMARK    4  A    between atoms: C_7  and  C_8 
REMARK    5  A    between atoms: C_19  and  N_20 
REMARK       I    between atoms: N_20  and  C_21 
REMARK    6  A    between atoms: C_21  and  C_22 
REMARK    7  A    between atoms: C_25  and  O_26 
ROOT
HETATM    1  N   UNL     1      25.718  48.573  48.920  1.00  0.00    -0.342 N 
HETATM    2  C   UNL     1      25.523  47.366  49.580  1.00  0.00     0.104 A 
HETATM    3  C   UNL     1      24.182  47.350  49.946  1.00  0.00     0.049 A 
HETATM    4  C   UNL     1      23.559  48.540  49.493  1.00  0.00    -0.005 A 
HETATM    5  C   UNL     1      24.538  49.298  48.856  1.00  0.00     0.045 A 
HETATM    6  C   UNL     1      22.237  49.031  49.560  1.00  0.00     0.043 A 
HETATM    7  C   UNL     1      21.917  50.267  48.987  1.00  0.00     0.035 A 
HETATM    8  C   UNL     1      22.923  51.013  48.367  1.00  0.00     0.032 A 
HETATM    9  C   UNL     1      24.241  50.545  48.286  1.00  0.00     0.033 A 
ENDROOT
BRANCH   7  10
HETATM   10  N   UNL     1      20.619  50.822  48.995  1.00  0.00    -0.323 N 
HETATM   11  C   UNL     1      19.693  50.791  47.966  1.00  0.00     0.256 C 
HETATM   12  O   UNL     1      19.848  50.321  46.844  1.00  0.00    -0.267 OA
HETATM   13  H   UNL     1      20.383  51.380  49.804  1.00  0.00     0.169 HD
BRANCH  11  14
HETATM   14  C   UNL     1      18.398  51.454  48.274  1.00  0.00     0.032 A 
HETATM   15  C   UNL     1      18.229  52.028  49.537  1.00  0.00     0.020 A 
HETATM   16  C   UNL     1      17.033  52.674  49.854  1.00  0.00     0.038 A 
HETATM   17  C   UNL     1      16.011  52.779  48.907  1.00  0.00     0.068 A 
HETATM   18  C   UNL     1      16.179  52.204  47.645  1.00  0.00     0.038 A 
HETATM   19  C   UNL     1      17.372  51.544  47.325  1.00  0.00     0.020 A 
BRANCH  17  20
HETATM   20  O   UNL     1      14.898  53.450  49.334  1.00  0.00    -0.356 OA
HETATM   21  C   UNL     1      14.352  53.033  50.580  1.00  0.00     0.210 C 
ENDBRANCH  17  20
ENDBRANCH  11  14
ENDBRANCH   7  10
BRANCH   2  22
HETATM   22  C   UNL     1      26.540  46.345  49.784  1.00  0.00     0.268 C 
HETATM   23  N   UNL     1      26.265  45.431  50.776  1.00  0.00    -0.353 N 
HETATM   24  H   UNL     1      25.513  45.618  51.426  1.00  0.00     0.162 HD
HETATM   25  O   UNL     1      27.580  46.280  49.132  1.00  0.00    -0.266 OA
BRANCH  23  26
HETATM   26  C   UNL     1      27.225  44.418  51.177  1.00  0.00     0.160 C 
BRANCH  26  27
HETATM   27  C   UNL     1      27.385  44.323  52.706  1.00  0.00     0.073 C 
HETATM   28  C   UNL     1      28.805  43.842  53.034  1.00  0.00     0.047 C 
HETATM   29  O   UNL     1      27.221  45.633  53.295  1.00  0.00    -0.379 OA
HETATM   30  C   UNL     1      26.438  45.510  54.493  1.00  0.00     0.169 C 
HETATM   31  C   UNL     1      26.227  44.033  54.754  1.00  0.00     0.029 C 
HETATM   32  C   UNL     1      26.326  43.440  53.370  1.00  0.00     0.041 C 
ENDBRANCH  26  27
ENDBRANCH  23  26
ENDBRANCH   2  22
BRANCH   1  33
HETATM   33  C   UNL     1      26.980  49.041  48.362  1.00  0.00     0.125 C 
HETATM   34  C   UNL     1      27.879  49.669  49.414  1.00  0.00     0.027 C 
ENDBRANCH   1  33
TORSDOF 7
ENDMDL
MODEL 8
REMARK VINA RESULT:      -8.1      3.225      5.386
REMARK  7 active torsions:
REMARK  status: ('A' for Active; 'I' for Inactive)
REMARK    1  A    between atoms: C_2  and  N_3 
REMARK    2  A    between atoms: C_4  and  C_5 
REMARK       I    between atoms: C_5  and  N_6 
REMARK    3  A    between atoms: N_6  and  C_7 
REMARK    4  A    between atoms: C_7  and  C_8 
REMARK    5  A    between atoms: C_19  and  N_20 
REMARK       I    between atoms: N_20  and  C_21 
REMARK    6  A    between atoms: C_21  and  C_22 
REMARK    7  A    between atoms: C_25  and  O_26 
ROOT
HETATM    1  N   UNL     1      22.785  46.131  48.849  1.00  0.00    -0.342 N 
HETATM    2  C   UNL     1      22.151  44.895  48.818  1.00  0.00     0.104 A 
HETATM    3  C   UNL     1      22.834  44.099  49.729  1.00  0.00     0.049 A 
HETATM    4  C   UNL     1      23.873  44.857  50.327  1.00  0.00    -0.005 A 
HETATM    5  C   UNL     1      23.831  46.128  49.759  1.00  0.00     0.045 A 
HETATM    6  C   UNL     1      24.839  44.572  51.316  1.00  0.00     0.043 A 
HETATM    7  C   UNL     1      25.743  45.561  51.721  1.00  0.00     0.035 A 
HETATM    8  C   UNL     1      25.686  46.823  51.123  1.00  0.00     0.032 A 
HETATM    9  C   UNL     1      24.735  47.130  50.142  1.00  0.00     0.033 A 
ENDROOT
BRANCH   7  10
HETATM   10  N   UNL     1      26.727  45.363  52.714  1.00  0.00    -0.323 N 
HETATM   11  C   UNL     1      27.660  44.342  52.770  1.00  0.00     0.256 C 
HETATM   12  O   UNL     1      27.772  43.397  51.997  1.00  0.00    -0.267 OA
HETATM   13  H   UNL     1      26.678  45.981  53.512  1.00  0.00     0.169 HD
BRANCH  11  14
HETATM   14  C   UNL     1      28.580  44.404  53.936  1.00  0.00     0.032 A 
HETATM   15  C   UNL     1      29.513  43.376  54.104  1.00  0.00     0.020 A 
HETATM   16  C   UNL     1      30.404  43.412  55.177  1.00  0.00     0.038 A 
HETATM   17  C   UNL     1      30.394  44.485  56.072  1.00  0.00     0.068 A 
HETATM   18  C   UNL     1      29.461  45.511  55.906  1.00  0.00     0.038 A 
HETATM   19  C   UNL     1      28.556  45.476  54.838  1.00  0.00     0.020 A 
BRANCH  17  20
HETATM   20  O   UNL     1      31.326  44.410  57.070  1.00  0.00    -0.356 OA
HETATM   21  C   UNL     1      31.976  43.155  57.231  1.00  0.00     0.210 C 
ENDBRANCH  17  20
ENDBRANCH  11  14
ENDBRANCH   7  10
BRANCH   2  22
HETATM   22  C   UNL     1      20.988  44.567  48.006  1.00  0.00     0.268 C 
HETATM   23  N   UNL     1      21.265  44.003  46.782  1.00  0.00    -0.353 N 
HETATM   24  H   UNL     1      22.212  44.032  46.428  1.00  0.00     0.162 HD
HETATM   25  O   UNL     1      19.829  44.769  48.365  1.00  0.00    -0.266 OA
BRANCH  23  26
HETATM   26  C   UNL     1      20.223  43.719  45.811  1.00  0.00     0.160 C 
BRANCH  26  27
HETATM   27  C   UNL     1      20.495  42.435  45.005  1.00  0.00     0.073 C 
HETATM   28  C   UNL     1      19.405  42.272  43.936  1.00  0.00     0.047 C 
HETATM   29  O   UNL     1      21.764  42.550  44.320  1.00  0.00    -0.379 OA
HETATM   30  C   UNL     1      22.460  41.298  44.418  1.00  0.00     0.169 C 
HETATM   31  C   UNL     1      21.523  40.300  45.063  1.00  0.00     0.029 C 
HETATM   32  C   UNL     1      20.615  41.186  45.880  1.00  0.00     0.041 C 
ENDBRANCH  26  27
ENDBRANCH  23  26
ENDBRANCH   2  22
BRANCH   1  33
HETATM   33  C   UNL     1      22.425  47.292  48.043  1.00  0.00     0.125 C 
HETATM   34  C   UNL     1      21.452  48.212  48.760  1.00  0.00     0.027 C 
ENDBRANCH   1  33
TORSDOF 7
ENDMDL
MODEL 9
REMARK VINA RESULT:      -8.0     12.613     13.754
REMARK  7 active torsions:
REMARK  status: ('A' for Active; 'I' for Inactive)
REMARK    1  A    between atoms: C_2  and  N_3 
REMARK    2  A    between atoms: C_4  and  C_5 
REMARK       I    between atoms: C_5  and  N_6 
REMARK    3  A    between atoms: N_6  and  C_7 
REMARK    4  A    between atoms: C_7  and  C_8 
REMARK    5  A    between atoms: C_19  and  N_20 
REMARK       I    between atoms: N_20  and  C_21 
REMARK    6  A    between atoms: C_21  and  C_22 
REMARK    7  A    between atoms: C_25  and  O_26 
ROOT
HETATM    1  N   UNL     1      31.822  50.445  41.103  1.00  0.00    -0.342 N 
HETATM    2  C   UNL     1      30.714  50.991  41.739  1.00  0.00     0.104 A 
HETATM    3  C   UNL     1      31.207  51.638  42.866  1.00  0.00     0.049 A 
HETATM    4  C   UNL     1      32.618  51.501  42.904  1.00  0.00    -0.005 A 
HETATM    5  C   UNL     1      32.986  50.746  41.794  1.00  0.00     0.045 A 
HETATM    6  C   UNL     1      33.617  51.968  43.787  1.00  0.00     0.043 A 
HETATM    7  C   UNL     1      34.963  51.676  43.542  1.00  0.00     0.035 A 
HETATM    8  C   UNL     1      35.302  50.903  42.428  1.00  0.00     0.032 A 
HETATM    9  C   UNL     1      34.329  50.430  41.537  1.00  0.00     0.033 A 
ENDROOT
BRANCH   7  10
HETATM   10  N   UNL     1      36.023  52.118  44.363  1.00  0.00    -0.323 N 
HETATM   11  C   UNL     1      36.865  53.192  44.129  1.00  0.00     0.256 C 
HETATM   12  O   UNL     1      36.878  53.923  43.146  1.00  0.00    -0.267 OA
HETATM   13  H   UNL     1      36.243  51.528  45.154  1.00  0.00     0.169 HD
BRANCH  11  14
HETATM   14  C   UNL     1      37.886  53.422  45.186  1.00  0.00     0.032 A 
HETATM   15  C   UNL     1      37.763  54.557  45.993  1.00  0.00     0.020 A 
HETATM   16  C   UNL     1      38.693  54.795  47.007  1.00  0.00     0.038 A 
HETATM   17  C   UNL     1      39.732  53.891  47.243  1.00  0.00     0.068 A 
HETATM   18  C   UNL     1      39.856  52.758  46.435  1.00  0.00     0.038 A 
HETATM   19  C   UNL     1      38.933  52.519  45.410  1.00  0.00     0.020 A 
BRANCH  17  20
HETATM   20  O   UNL     1      40.565  54.229  48.273  1.00  0.00    -0.356 OA
HETATM   21  C   UNL     1      41.826  54.776  47.909  1.00  0.00     0.210 C 
ENDBRANCH  17  20
ENDBRANCH  11  14
ENDBRANCH   7  10
BRANCH   2  22
HETATM   22  C   UNL     1      29.342  50.906  41.259  1.00  0.00     0.268 C 
HETATM   23  N   UNL     1      28.660  49.769  41.628  1.00  0.00    -0.353 N 
HETATM   24  H   UNL     1      29.173  48.989  42.015  1.00  0.00     0.162 HD
HETATM   25  O   UNL     1      28.807  51.773  40.571  1.00  0.00    -0.266 OA
BRANCH  23  26
HETATM   26  C   UNL     1      27.322  49.482  41.140  1.00  0.00     0.160 C 
BRANCH  26  27
HETATM   27  C   UNL     1      27.285  48.274  40.185  1.00  0.00     0.073 C 
HETATM   28  C   UNL     1      28.002  47.088  40.846  1.00  0.00     0.047 C 
HETATM   29  O   UNL     1      25.914  47.879  39.952  1.00  0.00    -0.379 OA
HETATM   30  C   UNL     1      25.751  47.561  38.561  1.00  0.00     0.169 C 
HETATM   31  C   UNL     1      27.120  47.611  37.915  1.00  0.00     0.029 C 
HETATM   32  C   UNL     1      27.863  48.579  38.802  1.00  0.00     0.041 C 
ENDBRANCH  26  27
ENDBRANCH  23  26
ENDBRANCH   2  22
BRANCH   1  33
HETATM   33  C   UNL     1      31.796  49.658  39.876  1.00  0.00     0.125 C 
HETATM   34  C   UNL     1      31.557  48.182  40.143  1.00  0.00     0.027 C 
ENDBRANCH   1  33
TORSDOF 7
ENDMDL
MODEL 10
REMARK VINA RESULT:      -7.9      3.401     11.238
REMARK  7 active torsions:
REMARK  status: ('A' for Active; 'I' for Inactive)
REMARK    1  A    between atoms: C_2  and  N_3 
REMARK    2  A    between atoms: C_4  and  C_5 
REMARK       I    between atoms: C_5  and  N_6 
REMARK    3  A    between atoms: N_6  and  C_7 
REMARK    4  A    between atoms: C_7  and  C_8 
REMARK    5  A    between atoms: C_19  and  N_20 
REMARK       I    between atoms: N_20  and  C_21 
REMARK    6  A    between atoms: C_21  and  C_22 
REMARK    7  A    between atoms: C_25  and  O_26 
ROOT
HETATM    1  N   UNL     1      25.593  48.581  48.862  1.00  0.00    -0.342 N 
HETATM    2  C   UNL     1      25.430  47.363  49.510  1.00  0.00     0.104 A 
HETATM    3  C   UNL     1      24.084  47.295  49.851  1.00  0.00     0.049 A 
HETATM    4  C   UNL     1      23.426  48.465  49.394  1.00  0.00    -0.005 A 
HETATM    5  C   UNL     1      24.388  49.262  48.780  1.00  0.00     0.045 A 
HETATM    6  C   UNL     1      22.086  48.907  49.440  1.00  0.00     0.043 A 
HETATM    7  C   UNL     1      21.732  50.135  48.869  1.00  0.00     0.035 A 
HETATM    8  C   UNL     1      22.722  50.921  48.273  1.00  0.00     0.032 A 
HETATM    9  C   UNL     1      24.057  50.503  48.214  1.00  0.00     0.033 A 
ENDROOT
BRANCH   7  10
HETATM   10  N   UNL     1      20.414  50.642  48.857  1.00  0.00    -0.323 N 
HETATM   11  C   UNL     1      19.405  50.360  49.762  1.00  0.00     0.256 C 
HETATM   12  O   UNL     1      19.454  49.583  50.709  1.00  0.00    -0.267 OA
HETATM   13  H   UNL     1      20.162  51.193  48.048  1.00  0.00     0.169 HD
BRANCH  11  14
HETATM   14  C   UNL     1      18.119  51.058  49.495  1.00  0.00     0.032 A 
HETATM   15  C   UNL     1      17.977  52.380  49.927  1.00  0.00     0.020 A 
HETATM   16  C   UNL     1      16.791  53.071  49.678  1.00  0.00     0.038 A 
HETATM   17  C   UNL     1      15.750  52.462  48.972  1.00  0.00     0.068 A 
HETATM   18  C   UNL     1      15.891  51.140  48.542  1.00  0.00     0.038 A 
HETATM   19  C   UNL     1      17.074  50.438  48.798  1.00  0.00     0.020 A 
BRANCH  17  20
HETATM   20  O   UNL     1      14.649  53.249  48.778  1.00  0.00    -0.356 OA
HETATM   21  C   UNL     1      14.674  54.529  49.398  1.00  0.00     0.210 C 
ENDBRANCH  17  20
ENDBRANCH  11  14
ENDBRANCH   7  10
BRANCH   2  22
HETATM   22  C   UNL     1      26.480  46.378  49.726  1.00  0.00     0.268 C 
HETATM   23  N   UNL     1      26.215  45.439  50.697  1.00  0.00    -0.353 N 
HETATM   24  H   UNL     1      25.440  45.588  51.330  1.00  0.00     0.162 HD
HETATM   25  O   UNL     1      27.538  46.363  49.101  1.00  0.00    -0.266 OA
BRANCH  23  26
HETATM   26  C   UNL     1      27.202  44.457  51.109  1.00  0.00     0.160 C 
BRANCH  26  27
HETATM   27  C   UNL     1      26.807  43.019  50.723  1.00  0.00     0.073 C 
HETATM   28  C   UNL     1      25.295  42.843  50.922  1.00  0.00     0.047 C 
HETATM   29  O   UNL     1      27.091  42.794  49.323  1.00  0.00    -0.379 OA
HETATM   30  C   UNL     1      27.660  41.484  49.169  1.00  0.00     0.169 C 
HETATM   31  C   UNL     1      27.589  40.791  50.513  1.00  0.00     0.029 C 
HETATM   32  C   UNL     1      27.600  41.951  51.479  1.00  0.00     0.041 C 
ENDBRANCH  26  27
ENDBRANCH  23  26
ENDBRANCH   2  22
BRANCH   1  33
HETATM   33  C   UNL     1      26.848  49.099  48.331  1.00  0.00     0.125 C 
HETATM   34  C   UNL     1      27.767  49.617  49.424  1.00  0.00     0.027 C 
ENDBRANCH   1  33
TORSDOF 7
ENDMDL
