MODEL 1
REMARK VINA RESULT:     -10.4      0.000      0.000
REMARK  6 active torsions:
REMARK  status: ('A' for Active; 'I' for Inactive)
REMARK    1  A    between atoms: C_2  and  O_3 
REMARK    2  A    between atoms: C_2  and  C_4 
REMARK    3  A    between atoms: C_6  and  N_7 
REMARK       I    between atoms: N_7  and  C_8 
REMARK    4  A    between atoms: C_8  and  C_9 
REMARK    5  A    between atoms: C_14  and  C_15 
REMARK    6  A    between atoms: C_23  and  C_24 
ROOT
HETATM    1  C   UNL     1      25.512  44.279  51.266  1.00  0.00     0.148 A 
HETATM    2  N   UNL     1      25.612  42.971  51.605  1.00  0.00    -0.165 NA
HETATM    3  N   UNL     1      26.854  42.881  52.119  1.00  0.00    -0.240 N 
HETATM    4  C   UNL     1      27.512  44.076  52.198  1.00  0.00     0.123 A 
HETATM    5  N   UNL     1      28.713  44.175  52.799  1.00  0.00    -0.366 N 
HETATM    6  C   UNL     1      29.282  43.096  53.605  1.00  0.00     0.118 C 
HETATM    7  C   UNL     1      28.239  41.996  53.907  1.00  0.00     0.066 C 
HETATM    8  C   UNL     1      27.383  41.653  52.678  1.00  0.00     0.221 C 
HETATM    9  C   UNL     1      26.696  44.994  51.598  1.00  0.00     0.089 A 
HETATM   10  H   UNL     1      29.205  45.067  52.848  1.00  0.00     0.161 HD
ENDROOT
BRANCH   1  11
HETATM   11  C   UNL     1      24.293  44.852  50.668  1.00  0.00     0.276 C 
HETATM   12  N   UNL     1      24.525  46.086  50.094  1.00  0.00    -0.322 N 
HETATM   13  H   UNL     1      25.480  46.413  50.209  1.00  0.00     0.169 HD
HETATM   14  O   UNL     1      23.228  44.247  50.701  1.00  0.00    -0.266 OA
BRANCH  12  15
HETATM   15  C   UNL     1      23.623  46.902  49.391  1.00  0.00     0.035 A 
HETATM   16  C   UNL     1      23.463  48.269  49.633  1.00  0.00     0.039 A 
HETATM   17  C   UNL     1      22.535  49.036  48.903  1.00  0.00    -0.028 A 
HETATM   18  C   UNL     1      21.774  48.404  47.911  1.00  0.00     0.010 A 
HETATM   19  C   UNL     1      21.923  47.040  47.666  1.00  0.00     0.003 A 
HETATM   20  C   UNL     1      22.842  46.292  48.405  1.00  0.00     0.029 A 
BRANCH  17  21
HETATM   21  C   UNL     1      22.413  50.517  49.186  1.00  0.00     0.147 C 
HETATM   22  C   UNL     1      21.199  51.119  48.488  1.00  0.00     0.044 C 
BRANCH  21  23
HETATM   23  O   UNL     1      22.304  50.751  50.590  1.00  0.00    -0.391 OA
HETATM   24  H   UNL     1      21.377  50.590  50.830  1.00  0.00     0.210 HD
ENDBRANCH  21  23
ENDBRANCH  17  21
ENDBRANCH  12  15
ENDBRANCH   1  11
BRANCH   8  25
HETATM   25  C   UNL     1      28.149  40.890  51.623  1.00  0.00     0.409 C 
HETATM   26  F   UNL     1      28.677  41.703  50.682  1.00  0.00    -0.169 F 
HETATM   27  F   UNL     1      29.147  40.133  52.121  1.00  0.00    -0.169 F 
HETATM   28  F   UNL     1      27.308  40.043  50.973  1.00  0.00    -0.169 F 
ENDBRANCH   8  25
BRANCH   6  29
HETATM   29  C   UNL     1      29.843  43.706  54.881  1.00  0.00    -0.035 A 
HETATM   30  C   UNL     1      30.816  43.026  55.641  1.00  0.00     0.012 A 
HETATM   31  C   UNL     1      31.304  43.570  56.828  1.00  0.00     0.043 A 
HETATM   32  C   UNL     1      30.815  44.793  57.269  1.00  0.00     0.116 A 
HETATM   33  F   UNL     1      31.274  45.311  58.415  1.00  0.00    -0.206 F 
HETATM   34  C   UNL     1      29.851  45.481  56.542  1.00  0.00     0.043 A 
HETATM   35  C   UNL     1      29.364  44.940  55.349  1.00  0.00     0.012 A 
ENDBRANCH   6  29
TORSDOF 6
ENDMDL
MODEL 2
REMARK VINA RESULT:      -9.7      1.577      2.261
REMARK  6 active torsions:
REMARK  status: ('A' for Active; 'I' for Inactive)
REMARK    1  A    between atoms: C_2  and  O_3 
REMARK    2  A    between atoms: C_2  and  C_4 
REMARK    3  A    between atoms: C_6  and  N_7 
REMARK       I    between atoms: N_7  and  C_8 
REMARK    4  A    between atoms: C_8  and  C_9 
REMARK    5  A    between atoms: C_14  and  C_15 
REMARK    6  A    between atoms: C_23  and  C_24 
ROOT
HETATM    1  C   UNL     1      24.954  45.480  49.962  1.00  0.00     0.148 A 
HETATM    2  N   UNL     1      24.678  44.197  50.301  1.00  0.00    -0.165 NA
HETATM    3  N   UNL     1      25.853  43.749  50.785  1.00  0.00    -0.240 N 
HETATM    4  C   UNL     1      26.830  44.700  50.844  1.00  0.00     0.123 A 
HETATM    5  N   UNL     1      28.023  44.444  51.416  1.00  0.00    -0.366 N 
HETATM    6  C   UNL     1      28.273  43.242  52.209  1.00  0.00     0.118 C 
HETATM    7  C   UNL     1      26.965  42.490  52.540  1.00  0.00     0.066 C 
HETATM    8  C   UNL     1      26.016  42.417  51.333  1.00  0.00     0.221 C 
HETATM    9  C   UNL     1      26.302  45.819  50.263  1.00  0.00     0.089 A 
HETATM   10  H   UNL     1      28.754  45.154  51.450  1.00  0.00     0.161 HD
ENDROOT
BRANCH   1  11
HETATM   11  C   UNL     1      23.939  46.384  49.393  1.00  0.00     0.276 C 
HETATM   12  N   UNL     1      24.255  47.713  49.596  1.00  0.00    -0.322 N 
HETATM   13  H   UNL     1      25.107  47.850  50.132  1.00  0.00     0.169 HD
HETATM   14  O   UNL     1      22.955  45.945  48.810  1.00  0.00    -0.266 OA
BRANCH  12  15
HETATM   15  C   UNL     1      23.557  48.850  49.154  1.00  0.00     0.035 A 
HETATM   16  C   UNL     1      22.261  49.173  49.565  1.00  0.00     0.039 A 
HETATM   17  C   UNL     1      21.607  50.322  49.081  1.00  0.00    -0.028 A 
HETATM   18  C   UNL     1      22.285  51.152  48.180  1.00  0.00     0.010 A 
HETATM   19  C   UNL     1      23.576  50.835  47.761  1.00  0.00     0.003 A 
HETATM   20  C   UNL     1      24.208  49.687  48.244  1.00  0.00     0.029 A 
BRANCH  17  21
HETATM   21  C   UNL     1      20.211  50.642  49.572  1.00  0.00     0.147 C 
HETATM   22  C   UNL     1      19.634  51.857  48.856  1.00  0.00     0.044 C 
BRANCH  21  23
HETATM   23  O   UNL     1      19.342  49.528  49.369  1.00  0.00    -0.391 OA
HETATM   24  H   UNL     1      19.758  48.966  48.694  1.00  0.00     0.210 HD
ENDBRANCH  21  23
ENDBRANCH  17  21
ENDBRANCH  12  15
ENDBRANCH   1  11
BRANCH   8  25
HETATM   25  C   UNL     1      26.502  41.470  50.261  1.00  0.00     0.409 C 
HETATM   26  F   UNL     1      27.393  40.571  50.733  1.00  0.00    -0.169 F 
HETATM   27  F   UNL     1      25.511  40.788  49.651  1.00  0.00    -0.169 F 
HETATM   28  F   UNL     1      27.142  42.173  49.289  1.00  0.00    -0.169 F 
ENDBRANCH   8  25
BRANCH   6  29
HETATM   29  C   UNL     1      29.018  43.656  53.470  1.00  0.00    -0.035 A 
HETATM   30  C   UNL     1      30.150  42.941  53.911  1.00  0.00     0.012 A 
HETATM   31  C   UNL     1      30.810  43.300  55.085  1.00  0.00     0.043 A 
HETATM   32  C   UNL     1      30.338  44.372  55.831  1.00  0.00     0.116 A 
HETATM   33  F   UNL     1      30.964  44.712  56.965  1.00  0.00    -0.206 F 
HETATM   34  C   UNL     1      29.221  45.091  55.422  1.00  0.00     0.043 A 
HETATM   35  C   UNL     1      28.560  44.736  54.244  1.00  0.00     0.012 A 
ENDBRANCH   6  29
TORSDOF 6
ENDMDL
MODEL 3
REMARK VINA RESULT:      -9.7      2.377      3.826
REMARK  6 active torsions:
REMARK  status: ('A' for Active; 'I' for Inactive)
REMARK    1  A    between atoms: C_2  and  O_3 
REMARK    2  A    between atoms: C_2  and  C_4 
REMARK    3  A    between atoms: C_6  and  N_7 
REMARK       I    between atoms: N_7  and  C_8 
REMARK    4  A    between atoms: C_8  and  C_9 
REMARK    5  A    between atoms: C_14  and  C_15 
REMARK    6  A    between atoms: C_23  and  C_24 
ROOT
HETATM    1  C   UNL     1      24.666  47.083  49.833  1.00  0.00     0.148 A 
HETATM    2  N   UNL     1      23.956  45.992  50.209  1.00  0.00    -0.165 NA
HETATM    3  N   UNL     1      24.913  45.086  50.491  1.00  0.00    -0.240 N 
HETATM    4  C   UNL     1      26.185  45.571  50.392  1.00  0.00     0.123 A 
HETATM    5  N   UNL     1      27.248  44.828  50.759  1.00  0.00    -0.366 N 
HETATM    6  C   UNL     1      27.114  43.574  51.497  1.00  0.00     0.118 C 
HETATM    7  C   UNL     1      25.679  43.375  52.036  1.00  0.00     0.066 C 
HETATM    8  C   UNL     1      24.611  43.763  51.001  1.00  0.00     0.221 C 
HETATM    9  C   UNL     1      26.067  46.844  49.909  1.00  0.00     0.089 A 
HETATM   10  H   UNL     1      28.197  45.191  50.676  1.00  0.00     0.161 HD
ENDROOT
BRANCH   1  11
HETATM   11  C   UNL     1      24.023  48.350  49.441  1.00  0.00     0.276 C 
HETATM   12  N   UNL     1      22.649  48.236  49.372  1.00  0.00    -0.322 N 
HETATM   13  H   UNL     1      22.310  47.297  49.563  1.00  0.00     0.169 HD
HETATM   14  O   UNL     1      24.688  49.357  49.226  1.00  0.00    -0.266 OA
BRANCH  12  15
HETATM   15  C   UNL     1      21.707  49.238  49.085  1.00  0.00     0.035 A 
HETATM   16  C   UNL     1      20.948  49.276  47.913  1.00  0.00     0.039 A 
HETATM   17  C   UNL     1      20.024  50.311  47.673  1.00  0.00    -0.028 A 
HETATM   18  C   UNL     1      19.865  51.307  48.645  1.00  0.00     0.010 A 
HETATM   19  C   UNL     1      20.621  51.281  49.815  1.00  0.00     0.003 A 
HETATM   20  C   UNL     1      21.540  50.252  50.033  1.00  0.00     0.029 A 
BRANCH  17  21
HETATM   21  C   UNL     1      19.210  50.298  46.398  1.00  0.00     0.147 C 
HETATM   22  C   UNL     1      18.707  48.896  46.073  1.00  0.00     0.044 C 
BRANCH  21  23
HETATM   23  O   UNL     1      18.091  51.178  46.509  1.00  0.00    -0.391 OA
HETATM   24  H   UNL     1      18.374  52.037  46.154  1.00  0.00     0.210 HD
ENDBRANCH  21  23
ENDBRANCH  17  21
ENDBRANCH  12  15
ENDBRANCH   1  11
BRANCH   8  25
HETATM   25  C   UNL     1      24.513  42.777  49.860  1.00  0.00     0.409 C 
HETATM   26  F   UNL     1      25.149  43.210  48.750  1.00  0.00    -0.169 F 
HETATM   27  F   UNL     1      24.994  41.553  50.160  1.00  0.00    -0.169 F 
HETATM   28  F   UNL     1      23.209  42.607  49.516  1.00  0.00    -0.169 F 
ENDBRANCH   8  25
BRANCH   6  29
HETATM   29  C   UNL     1      28.141  43.575  52.620  1.00  0.00    -0.035 A 
HETATM   30  C   UNL     1      27.969  44.386  53.758  1.00  0.00     0.012 A 
HETATM   31  C   UNL     1      28.928  44.413  54.769  1.00  0.00     0.043 A 
HETATM   32  C   UNL     1      30.071  43.634  54.645  1.00  0.00     0.116 A 
HETATM   33  F   UNL     1      30.999  43.666  55.610  1.00  0.00    -0.206 F 
HETATM   34  C   UNL     1      30.269  42.828  53.529  1.00  0.00     0.043 A 
HETATM   35  C   UNL     1      29.306  42.797  52.517  1.00  0.00     0.012 A 
ENDBRANCH   6  29
TORSDOF 6
ENDMDL
MODEL 4
REMARK VINA RESULT:      -9.6      2.414      5.003
REMARK  6 active torsions:
REMARK  status: ('A' for Active; 'I' for Inactive)
REMARK    1  A    between atoms: C_2  and  O_3 
REMARK    2  A    between atoms: C_2  and  C_4 
REMARK    3  A    between atoms: C_6  and  N_7 
REMARK       I    between atoms: N_7  and  C_8 
REMARK    4  A    between atoms: C_8  and  C_9 
REMARK    5  A    between atoms: C_14  and  C_15 
REMARK    6  A    between atoms: C_23  and  C_24 
ROOT
HETATM    1  C   UNL     1      26.112  45.595  51.762  1.00  0.00     0.148 A 
HETATM    2  N   UNL     1      27.288  45.503  52.430  1.00  0.00    -0.165 NA
HETATM    3  N   UNL     1      27.514  44.175  52.471  1.00  0.00    -0.240 N 
HETATM    4  C   UNL     1      26.589  43.432  51.796  1.00  0.00     0.123 A 
HETATM    5  N   UNL     1      26.739  42.102  51.639  1.00  0.00    -0.366 N 
HETATM    6  C   UNL     1      27.984  41.408  51.958  1.00  0.00     0.118 C 
HETATM    7  C   UNL     1      29.146  42.397  52.202  1.00  0.00     0.066 C 
HETATM    8  C   UNL     1      28.713  43.604  53.050  1.00  0.00     0.221 C 
HETATM    9  C   UNL     1      25.632  44.313  51.374  1.00  0.00     0.089 A 
HETATM   10  H   UNL     1      26.041  41.549  51.141  1.00  0.00     0.161 HD
ENDROOT
BRANCH   1  11
HETATM   11  C   UNL     1      25.471  46.888  51.461  1.00  0.00     0.276 C 
HETATM   12  N   UNL     1      25.352  47.105  50.103  1.00  0.00    -0.322 N 
HETATM   13  H   UNL     1      25.756  46.365  49.537  1.00  0.00     0.169 HD
HETATM   14  O   UNL     1      25.099  47.634  52.359  1.00  0.00    -0.266 OA
BRANCH  12  15
HETATM   15  C   UNL     1      24.752  48.193  49.446  1.00  0.00     0.035 A 
HETATM   16  C   UNL     1      23.376  48.439  49.452  1.00  0.00     0.039 A 
HETATM   17  C   UNL     1      22.828  49.540  48.768  1.00  0.00    -0.028 A 
HETATM   18  C   UNL     1      23.692  50.404  48.083  1.00  0.00     0.010 A 
HETATM   19  C   UNL     1      25.065  50.164  48.068  1.00  0.00     0.003 A 
HETATM   20  C   UNL     1      25.592  49.062  48.745  1.00  0.00     0.029 A 
BRANCH  17  21
HETATM   21  C   UNL     1      21.335  49.776  48.820  1.00  0.00     0.147 C 
HETATM   22  C   UNL     1      20.982  51.204  48.417  1.00  0.00     0.044 C 
BRANCH  21  23
HETATM   23  O   UNL     1      20.653  48.868  47.955  1.00  0.00    -0.391 OA
HETATM   24  H   UNL     1      19.756  49.219  47.830  1.00  0.00     0.210 HD
ENDBRANCH  21  23
ENDBRANCH  17  21
ENDBRANCH  12  15
ENDBRANCH   1  11
BRANCH   8  25
HETATM   25  C   UNL     1      28.471  43.248  54.498  1.00  0.00     0.409 C 
HETATM   26  F   UNL     1      28.722  44.281  55.332  1.00  0.00    -0.169 F 
HETATM   27  F   UNL     1      27.219  42.812  54.746  1.00  0.00    -0.169 F 
HETATM   28  F   UNL     1      29.310  42.243  54.866  1.00  0.00    -0.169 F 
ENDBRANCH   8  25
BRANCH   6  29
HETATM   29  C   UNL     1      28.294  40.447  50.819  1.00  0.00    -0.035 A 
HETATM   30  C   UNL     1      29.014  39.258  51.051  1.00  0.00     0.012 A 
HETATM   31  C   UNL     1      29.327  38.396  50.001  1.00  0.00     0.043 A 
HETATM   32  C   UNL     1      28.930  38.721  48.710  1.00  0.00     0.116 A 
HETATM   33  F   UNL     1      29.240  37.900  47.699  1.00  0.00    -0.206 F 
HETATM   34  C   UNL     1      28.224  39.891  48.454  1.00  0.00     0.043 A 
HETATM   35  C   UNL     1      27.905  40.754  49.505  1.00  0.00     0.012 A 
ENDBRANCH   6  29
TORSDOF 6
ENDMDL
MODEL 5
REMARK VINA RESULT:      -9.6      3.583      9.055
REMARK  6 active torsions:
REMARK  status: ('A' for Active; 'I' for Inactive)
REMARK    1  A    between atoms: C_2  and  O_3 
REMARK    2  A    between atoms: C_2  and  C_4 
REMARK    3  A    between atoms: C_6  and  N_7 
REMARK       I    between atoms: N_7  and  C_8 
REMARK    4  A    between atoms: C_8  and  C_9 
REMARK    5  A    between atoms: C_14  and  C_15 
REMARK    6  A    between atoms: C_23  and  C_24 
ROOT
HETATM    1  C   UNL     1      26.368  43.520  52.006  1.00  0.00     0.148 A 
HETATM    2  N   UNL     1      26.136  42.918  50.814  1.00  0.00    -0.165 NA
HETATM    3  N   UNL     1      25.084  43.602  50.324  1.00  0.00    -0.240 N 
HETATM    4  C   UNL     1      24.692  44.653  51.103  1.00  0.00     0.123 A 
HETATM    5  N   UNL     1      23.734  45.508  50.694  1.00  0.00    -0.366 N 
HETATM    6  C   UNL     1      23.226  45.523  49.324  1.00  0.00     0.118 C 
HETATM    7  C   UNL     1      24.102  44.672  48.377  1.00  0.00     0.066 C 
HETATM    8  C   UNL     1      24.520  43.337  49.015  1.00  0.00     0.221 C 
HETATM    9  C   UNL     1      25.462  44.594  52.230  1.00  0.00     0.089 A 
HETATM   10  H   UNL     1      23.438  46.286  51.282  1.00  0.00     0.161 HD
ENDROOT
BRANCH   1  11
HETATM   11  C   UNL     1      27.461  43.106  52.904  1.00  0.00     0.276 C 
HETATM   12  N   UNL     1      28.043  44.181  53.545  1.00  0.00    -0.322 N 
HETATM   13  H   UNL     1      27.653  45.077  53.268  1.00  0.00     0.169 HD
HETATM   14  O   UNL     1      27.762  41.925  53.030  1.00  0.00    -0.266 OA
BRANCH  12  15
HETATM   15  C   UNL     1      29.069  44.170  54.505  1.00  0.00     0.035 A 
HETATM   16  C   UNL     1      29.131  45.055  55.584  1.00  0.00     0.039 A 
HETATM   17  C   UNL     1      30.189  45.003  56.511  1.00  0.00    -0.028 A 
HETATM   18  C   UNL     1      31.185  44.033  56.341  1.00  0.00     0.010 A 
HETATM   19  C   UNL     1      31.134  43.149  55.265  1.00  0.00     0.003 A 
HETATM   20  C   UNL     1      30.082  43.219  54.349  1.00  0.00     0.029 A 
BRANCH  17  21
HETATM   21  C   UNL     1      30.202  45.969  57.676  1.00  0.00     0.147 C 
HETATM   22  C   UNL     1      28.788  46.291  58.147  1.00  0.00     0.044 C 
BRANCH  21  23
HETATM   23  O   UNL     1      30.943  45.426  58.768  1.00  0.00    -0.391 OA
HETATM   24  H   UNL     1      31.286  44.566  58.474  1.00  0.00     0.210 HD
ENDBRANCH  21  23
ENDBRANCH  17  21
ENDBRANCH  12  15
ENDBRANCH   1  11
BRANCH   8  25
HETATM   25  C   UNL     1      23.376  42.358  49.132  1.00  0.00     0.409 C 
HETATM   26  F   UNL     1      22.760  42.426  50.332  1.00  0.00    -0.169 F 
HETATM   27  F   UNL     1      22.436  42.508  48.177  1.00  0.00    -0.169 F 
HETATM   28  F   UNL     1      23.849  41.089  49.012  1.00  0.00    -0.169 F 
ENDBRANCH   8  25
BRANCH   6  29
HETATM   29  C   UNL     1      23.147  46.972  48.866  1.00  0.00    -0.035 A 
HETATM   30  C   UNL     1      24.151  47.897  49.212  1.00  0.00     0.012 A 
HETATM   31  C   UNL     1      24.059  49.232  48.822  1.00  0.00     0.043 A 
HETATM   32  C   UNL     1      22.958  49.653  48.088  1.00  0.00     0.116 A 
HETATM   33  F   UNL     1      22.862  50.937  47.722  1.00  0.00    -0.206 F 
HETATM   34  C   UNL     1      21.950  48.762  47.738  1.00  0.00     0.043 A 
HETATM   35  C   UNL     1      22.042  47.423  48.125  1.00  0.00     0.012 A 
ENDBRANCH   6  29
TORSDOF 6
ENDMDL
MODEL 6
REMARK VINA RESULT:      -9.6      3.047      4.987
REMARK  6 active torsions:
REMARK  status: ('A' for Active; 'I' for Inactive)
REMARK    1  A    between atoms: C_2  and  O_3 
REMARK    2  A    between atoms: C_2  and  C_4 
REMARK    3  A    between atoms: C_6  and  N_7 
REMARK       I    between atoms: N_7  and  C_8 
REMARK    4  A    between atoms: C_8  and  C_9 
REMARK    5  A    between atoms: C_14  and  C_15 
REMARK    6  A    between atoms: C_23  and  C_24 
ROOT
HETATM    1  C   UNL     1      23.640  48.101  48.947  1.00  0.00     0.148 A 
HETATM    2  N   UNL     1      23.139  46.872  49.223  1.00  0.00    -0.165 NA
HETATM    3  N   UNL     1      24.141  46.279  49.900  1.00  0.00    -0.240 N 
HETATM    4  C   UNL     1      25.212  47.092  50.138  1.00  0.00     0.123 A 
HETATM    5  N   UNL     1      26.241  46.687  50.907  1.00  0.00    -0.366 N 
HETATM    6  C   UNL     1      26.186  45.475  51.722  1.00  0.00     0.118 C 
HETATM    7  C   UNL     1      24.750  44.910  51.812  1.00  0.00     0.066 C 
HETATM    8  C   UNL     1      24.025  44.945  50.457  1.00  0.00     0.221 C 
HETATM    9  C   UNL     1      24.948  48.262  49.482  1.00  0.00     0.089 A 
HETATM   10  H   UNL     1      27.043  47.294  51.074  1.00  0.00     0.161 HD
ENDROOT
BRANCH   1  11
HETATM   11  C   UNL     1      22.870  49.125  48.217  1.00  0.00     0.276 C 
HETATM   12  N   UNL     1      21.575  49.232  48.684  1.00  0.00    -0.322 N 
HETATM   13  H   UNL     1      21.354  48.569  49.422  1.00  0.00     0.169 HD
HETATM   14  O   UNL     1      23.382  49.779  47.316  1.00  0.00    -0.266 OA
BRANCH  12  15
HETATM   15  C   UNL     1      20.573  50.127  48.272  1.00  0.00     0.035 A 
HETATM   16  C   UNL     1      19.703  49.880  47.207  1.00  0.00     0.039 A 
HETATM   17  C   UNL     1      18.723  50.818  46.832  1.00  0.00    -0.028 A 
HETATM   18  C   UNL     1      18.624  52.013  47.556  1.00  0.00     0.010 A 
HETATM   19  C   UNL     1      19.491  52.271  48.616  1.00  0.00     0.003 A 
HETATM   20  C   UNL     1      20.464  51.333  48.971  1.00  0.00     0.029 A 
BRANCH  17  21
HETATM   21  C   UNL     1      17.789  50.496  45.685  1.00  0.00     0.147 C 
HETATM   22  C   UNL     1      18.501  50.599  44.341  1.00  0.00     0.044 C 
BRANCH  21  23
HETATM   23  O   UNL     1      17.257  49.180  45.829  1.00  0.00    -0.391 OA
HETATM   24  H   UNL     1      16.352  49.279  46.170  1.00  0.00     0.210 HD
ENDBRANCH  21  23
ENDBRANCH  17  21
ENDBRANCH  12  15
ENDBRANCH   1  11
BRANCH   8  25
HETATM   25  C   UNL     1      24.559  43.926  49.479  1.00  0.00     0.409 C 
HETATM   26  F   UNL     1      23.614  43.495  48.616  1.00  0.00    -0.169 F 
HETATM   27  F   UNL     1      25.607  44.369  48.754  1.00  0.00    -0.169 F 
HETATM   28  F   UNL     1      24.993  42.829  50.155  1.00  0.00    -0.169 F 
ENDBRANCH   8  25
BRANCH   6  29
HETATM   29  C   UNL     1      26.748  45.805  53.097  1.00  0.00    -0.035 A 
HETATM   30  C   UNL     1      26.528  47.066  53.685  1.00  0.00     0.012 A 
HETATM   31  C   UNL     1      27.073  47.380  54.929  1.00  0.00     0.043 A 
HETATM   32  C   UNL     1      27.850  46.437  55.590  1.00  0.00     0.116 A 
HETATM   33  F   UNL     1      28.384  46.739  56.780  1.00  0.00    -0.206 F 
HETATM   34  C   UNL     1      28.088  45.187  55.029  1.00  0.00     0.043 A 
HETATM   35  C   UNL     1      27.538  44.869  53.784  1.00  0.00     0.012 A 
ENDBRANCH   6  29
TORSDOF 6
ENDMDL
MODEL 7
REMARK VINA RESULT:      -9.3      5.166      7.149
REMARK  6 active torsions:
REMARK  status: ('A' for Active; 'I' for Inactive)
REMARK    1  A    between atoms: C_2  and  O_3 
REMARK    2  A    between atoms: C_2  and  C_4 
REMARK    3  A    between atoms: C_6  and  N_7 
REMARK       I    between atoms: N_7  and  C_8 
REMARK    4  A    between atoms: C_8  and  C_9 
REMARK    5  A    between atoms: C_14  and  C_15 
REMARK    6  A    between atoms: C_23  and  C_24 
ROOT
HETATM    1  C   UNL     1      27.447  41.398  49.283  1.00  0.00     0.148 A 
HETATM    2  N   UNL     1      26.900  42.637  49.243  1.00  0.00    -0.165 NA
HETATM    3  N   UNL     1      26.822  42.980  50.543  1.00  0.00    -0.240 N 
HETATM    4  C   UNL     1      27.362  42.060  51.395  1.00  0.00     0.123 A 
HETATM    5  N   UNL     1      27.472  42.308  52.715  1.00  0.00    -0.366 N 
HETATM    6  C   UNL     1      27.252  43.635  53.287  1.00  0.00     0.118 C 
HETATM    7  C   UNL     1      27.175  44.725  52.195  1.00  0.00     0.066 C 
HETATM    8  C   UNL     1      26.343  44.276  50.982  1.00  0.00     0.221 C 
HETATM    9  C   UNL     1      27.723  40.995  50.619  1.00  0.00     0.089 A 
HETATM   10  H   UNL     1      27.869  41.616  53.349  1.00  0.00     0.161 HD
ENDROOT
BRANCH   1  11
HETATM   11  C   UNL     1      27.739  40.621  48.065  1.00  0.00     0.276 C 
HETATM   12  N   UNL     1      27.157  41.176  46.943  1.00  0.00    -0.322 N 
HETATM   13  H   UNL     1      26.597  41.999  47.142  1.00  0.00     0.169 HD
HETATM   14  O   UNL     1      28.434  39.612  48.109  1.00  0.00    -0.266 OA
BRANCH  12  15
HETATM   15  C   UNL     1      27.259  40.746  45.608  1.00  0.00     0.035 A 
HETATM   16  C   UNL     1      28.412  40.891  44.833  1.00  0.00     0.039 A 
HETATM   17  C   UNL     1      28.453  40.450  43.496  1.00  0.00    -0.028 A 
HETATM   18  C   UNL     1      27.313  39.845  42.953  1.00  0.00     0.010 A 
HETATM   19  C   UNL     1      26.157  39.700  43.718  1.00  0.00     0.003 A 
HETATM   20  C   UNL     1      26.129  40.151  45.039  1.00  0.00     0.029 A 
BRANCH  17  21
HETATM   21  C   UNL     1      29.731  40.610  42.702  1.00  0.00     0.147 C 
HETATM   22  C   UNL     1      30.546  39.321  42.693  1.00  0.00     0.044 C 
BRANCH  21  23
HETATM   23  O   UNL     1      29.440  40.985  41.356  1.00  0.00    -0.391 OA
HETATM   24  H   UNL     1      29.708  40.239  40.793  1.00  0.00     0.210 HD
ENDBRANCH  21  23
ENDBRANCH  17  21
ENDBRANCH  12  15
ENDBRANCH   1  11
BRANCH   8  25
HETATM   25  C   UNL     1      24.863  44.210  51.277  1.00  0.00     0.409 C 
HETATM   26  F   UNL     1      24.430  42.944  51.457  1.00  0.00    -0.169 F 
HETATM   27  F   UNL     1      24.494  44.930  52.356  1.00  0.00    -0.169 F 
HETATM   28  F   UNL     1      24.167  44.710  50.222  1.00  0.00    -0.169 F 
ENDBRANCH   8  25
BRANCH   6  29
HETATM   29  C   UNL     1      28.371  43.912  54.281  1.00  0.00    -0.035 A 
HETATM   30  C   UNL     1      28.371  45.085  55.062  1.00  0.00     0.012 A 
HETATM   31  C   UNL     1      29.415  45.354  55.946  1.00  0.00     0.043 A 
HETATM   32  C   UNL     1      30.470  44.457  56.049  1.00  0.00     0.116 A 
HETATM   33  F   UNL     1      31.478  44.719  56.889  1.00  0.00    -0.206 F 
HETATM   34  C   UNL     1      30.496  43.295  55.286  1.00  0.00     0.043 A 
HETATM   35  C   UNL     1      29.449  43.020  54.402  1.00  0.00     0.012 A 
ENDBRANCH   6  29
TORSDOF 6
ENDMDL
MODEL 8
REMARK VINA RESULT:      -9.3      4.896     10.802
REMARK  6 active torsions:
REMARK  status: ('A' for Active; 'I' for Inactive)
REMARK    1  A    between atoms: C_2  and  O_3 
REMARK    2  A    between atoms: C_2  and  C_4 
REMARK    3  A    between atoms: C_6  and  N_7 
REMARK       I    between atoms: N_7  and  C_8 
REMARK    4  A    between atoms: C_8  and  C_9 
REMARK    5  A    between atoms: C_14  and  C_15 
REMARK    6  A    between atoms: C_23  and  C_24 
ROOT
HETATM    1  C   UNL     1      24.038  46.356  49.812  1.00  0.00     0.148 A 
HETATM    2  N   UNL     1      24.152  47.661  50.163  1.00  0.00    -0.165 NA
HETATM    3  N   UNL     1      23.211  48.263  49.411  1.00  0.00    -0.240 N 
HETATM    4  C   UNL     1      22.456  47.402  48.666  1.00  0.00     0.123 A 
HETATM    5  N   UNL     1      21.396  47.835  47.956  1.00  0.00    -0.366 N 
HETATM    6  C   UNL     1      20.839  49.177  48.111  1.00  0.00     0.118 C 
HETATM    7  C   UNL     1      21.412  49.895  49.354  1.00  0.00     0.066 C 
HETATM    8  C   UNL     1      22.927  49.682  49.501  1.00  0.00     0.221 C 
HETATM    9  C   UNL     1      23.003  46.164  48.855  1.00  0.00     0.089 A 
HETATM   10  H   UNL     1      20.840  47.189  47.395  1.00  0.00     0.161 HD
ENDROOT
BRANCH   1  11
HETATM   11  C   UNL     1      24.876  45.300  50.407  1.00  0.00     0.276 C 
HETATM   12  N   UNL     1      25.316  45.637  51.672  1.00  0.00    -0.322 N 
HETATM   13  H   UNL     1      25.026  46.564  51.969  1.00  0.00     0.169 HD
HETATM   14  O   UNL     1      25.110  44.261  49.801  1.00  0.00    -0.266 OA
BRANCH  12  15
HETATM   15  C   UNL     1      26.085  44.864  52.559  1.00  0.00     0.035 A 
HETATM   16  C   UNL     1      27.371  44.401  52.269  1.00  0.00     0.039 A 
HETATM   17  C   UNL     1      28.092  43.621  53.193  1.00  0.00    -0.028 A 
HETATM   18  C   UNL     1      27.501  43.324  54.427  1.00  0.00     0.010 A 
HETATM   19  C   UNL     1      26.217  43.778  54.724  1.00  0.00     0.003 A 
HETATM   20  C   UNL     1      25.511  44.543  53.792  1.00  0.00     0.029 A 
BRANCH  17  21
HETATM   21  C   UNL     1      29.490  43.160  52.842  1.00  0.00     0.147 C 
HETATM   22  C   UNL     1      30.364  43.034  54.085  1.00  0.00     0.044 C 
BRANCH  21  23
HETATM   23  O   UNL     1      29.448  41.899  52.174  1.00  0.00    -0.391 OA
HETATM   24  H   UNL     1      28.748  41.960  51.503  1.00  0.00     0.210 HD
ENDBRANCH  21  23
ENDBRANCH  17  21
ENDBRANCH  12  15
ENDBRANCH   1  11
BRANCH   8  25
HETATM   25  C   UNL     1      23.730  50.438  48.469  1.00  0.00     0.409 C 
HETATM   26  F   UNL     1      23.231  51.671  48.230  1.00  0.00    -0.169 F 
HETATM   27  F   UNL     1      25.032  50.576  48.790  1.00  0.00    -0.169 F 
HETATM   28  F   UNL     1      23.692  49.772  47.285  1.00  0.00    -0.169 F 
ENDBRANCH   8  25
BRANCH   6  29
HETATM   29  C   UNL     1      19.324  49.054  48.181  1.00  0.00    -0.035 A 
HETATM   30  C   UNL     1      18.713  48.093  49.012  1.00  0.00     0.012 A 
HETATM   31  C   UNL     1      17.326  47.958  49.048  1.00  0.00     0.043 A 
HETATM   32  C   UNL     1      16.540  48.777  48.248  1.00  0.00     0.116 A 
HETATM   33  F   UNL     1      15.209  48.642  48.273  1.00  0.00    -0.206 F 
HETATM   34  C   UNL     1      17.118  49.729  47.416  1.00  0.00     0.043 A 
HETATM   35  C   UNL     1      18.508  49.870  47.381  1.00  0.00     0.012 A 
ENDBRANCH   6  29
TORSDOF 6
ENDMDL
MODEL 9
REMARK VINA RESULT:      -9.3      1.798      2.089
REMARK  6 active torsions:
REMARK  status: ('A' for Active; 'I' for Inactive)
REMARK    1  A    between atoms: C_2  and  O_3 
REMARK    2  A    between atoms: C_2  and  C_4 
REMARK    3  A    between atoms: C_6  and  N_7 
REMARK       I    between atoms: N_7  and  C_8 
REMARK    4  A    between atoms: C_8  and  C_9 
REMARK    5  A    between atoms: C_14  and  C_15 
REMARK    6  A    between atoms: C_23  and  C_24 
ROOT
HETATM    1  C   UNL     1      24.886  43.565  50.609  1.00  0.00     0.148 A 
HETATM    2  N   UNL     1      25.176  42.294  50.979  1.00  0.00    -0.165 NA
HETATM    3  N   UNL     1      26.438  42.389  51.441  1.00  0.00    -0.240 N 
HETATM    4  C   UNL     1      26.930  43.663  51.457  1.00  0.00     0.123 A 
HETATM    5  N   UNL     1      28.130  43.943  52.003  1.00  0.00    -0.366 N 
HETATM    6  C   UNL     1      28.871  42.977  52.812  1.00  0.00     0.118 C 
HETATM    7  C   UNL     1      28.001  41.758  53.190  1.00  0.00     0.066 C 
HETATM    8  C   UNL     1      27.150  41.262  52.009  1.00  0.00     0.221 C 
HETATM    9  C   UNL     1      25.974  44.443  50.870  1.00  0.00     0.089 A 
HETATM   10  H   UNL     1      28.497  44.894  52.006  1.00  0.00     0.161 HD
ENDROOT
BRANCH   1  11
HETATM   11  C   UNL     1      23.577  43.948  50.050  1.00  0.00     0.276 C 
HETATM   12  N   UNL     1      23.700  44.831  48.996  1.00  0.00    -0.322 N 
HETATM   13  H   UNL     1      24.661  45.100  48.803  1.00  0.00     0.169 HD
HETATM   14  O   UNL     1      22.535  43.492  50.507  1.00  0.00    -0.266 OA
BRANCH  12  15
HETATM   15  C   UNL     1      22.683  45.370  48.190  1.00  0.00     0.035 A 
HETATM   16  C   UNL     1      21.674  46.207  48.671  1.00  0.00     0.039 A 
HETATM   17  C   UNL     1      20.673  46.711  47.818  1.00  0.00    -0.028 A 
HETATM   18  C   UNL     1      20.712  46.367  46.461  1.00  0.00     0.010 A 
HETATM   19  C   UNL     1      21.713  45.529  45.972  1.00  0.00     0.003 A 
HETATM   20  C   UNL     1      22.693  45.031  46.834  1.00  0.00     0.029 A 
BRANCH  17  21
HETATM   21  C   UNL     1      19.613  47.630  48.382  1.00  0.00     0.147 C 
HETATM   22  C   UNL     1      18.319  47.547  47.579  1.00  0.00     0.044 C 
BRANCH  21  23
HETATM   23  O   UNL     1      19.336  47.300  49.743  1.00  0.00    -0.391 OA
HETATM   24  H   UNL     1      20.186  47.316  50.214  1.00  0.00     0.210 HD
ENDBRANCH  21  23
ENDBRANCH  17  21
ENDBRANCH  12  15
ENDBRANCH   1  11
BRANCH   8  25
HETATM   25  C   UNL     1      27.970  40.575  50.942  1.00  0.00     0.409 C 
HETATM   26  F   UNL     1      27.293  39.577  50.334  1.00  0.00    -0.169 F 
HETATM   27  F   UNL     1      28.421  41.411  49.985  1.00  0.00    -0.169 F 
HETATM   28  F   UNL     1      29.068  40.007  51.507  1.00  0.00    -0.169 F 
ENDBRANCH   8  25
BRANCH   6  29
HETATM   29  C   UNL     1      29.394  43.699  54.045  1.00  0.00    -0.035 A 
HETATM   30  C   UNL     1      30.500  43.199  54.761  1.00  0.00     0.012 A 
HETATM   31  C   UNL     1      30.957  43.841  55.911  1.00  0.00     0.043 A 
HETATM   32  C   UNL     1      30.306  44.983  56.358  1.00  0.00     0.116 A 
HETATM   33  F   UNL     1      30.736  45.596  57.468  1.00  0.00    -0.206 F 
HETATM   34  C   UNL     1      29.209  45.494  55.673  1.00  0.00     0.043 A 
HETATM   35  C   UNL     1      28.752  44.855  54.518  1.00  0.00     0.012 A 
ENDBRANCH   6  29
TORSDOF 6
ENDMDL
MODEL 10
REMARK VINA RESULT:      -9.3      2.952      5.354
REMARK  6 active torsions:
REMARK  status: ('A' for Active; 'I' for Inactive)
REMARK    1  A    between atoms: C_2  and  O_3 
REMARK    2  A    between atoms: C_2  and  C_4 
REMARK    3  A    between atoms: C_6  and  N_7 
REMARK       I    between atoms: N_7  and  C_8 
REMARK    4  A    between atoms: C_8  and  C_9 
REMARK    5  A    between atoms: C_14  and  C_15 
REMARK    6  A    between atoms: C_23  and  C_24 
ROOT
HETATM    1  C   UNL     1      24.542  47.109  50.496  1.00  0.00     0.148 A 
HETATM    2  N   UNL     1      25.453  47.282  51.484  1.00  0.00    -0.165 NA
HETATM    3  N   UNL     1      25.708  46.023  51.889  1.00  0.00    -0.240 N 
HETATM    4  C   UNL     1      25.071  45.062  51.157  1.00  0.00     0.123 A 
HETATM    5  N   UNL     1      25.316  43.752  51.357  1.00  0.00    -0.366 N 
HETATM    6  C   UNL     1      26.427  43.276  52.179  1.00  0.00     0.118 C 
HETATM    7  C   UNL     1      27.413  44.414  52.525  1.00  0.00     0.066 C 
HETATM    8  C   UNL     1      26.689  45.714  52.911  1.00  0.00     0.221 C 
HETATM    9  C   UNL     1      24.259  45.730  50.284  1.00  0.00     0.089 A 
HETATM   10  H   UNL     1      24.832  43.038  50.814  1.00  0.00     0.161 HD
ENDROOT
BRANCH   1  11
HETATM   11  C   UNL     1      23.975  48.237  49.734  1.00  0.00     0.276 C 
HETATM   12  N   UNL     1      22.600  48.155  49.632  1.00  0.00    -0.322 N 
HETATM   13  H   UNL     1      22.211  47.321  50.060  1.00  0.00     0.169 HD
HETATM   14  O   UNL     1      24.694  49.118  49.280  1.00  0.00    -0.266 OA
BRANCH  12  15
HETATM   15  C   UNL     1      21.718  49.069  49.030  1.00  0.00     0.035 A 
HETATM   16  C   UNL     1      20.747  48.706  48.093  1.00  0.00     0.039 A 
HETATM   17  C   UNL     1      19.895  49.667  47.515  1.00  0.00    -0.028 A 
HETATM   18  C   UNL     1      20.028  51.005  47.906  1.00  0.00     0.010 A 
HETATM   19  C   UNL     1      20.997  51.376  48.836  1.00  0.00     0.003 A 
HETATM   20  C   UNL     1      21.840  50.413  49.394  1.00  0.00     0.029 A 
BRANCH  17  21
HETATM   21  C   UNL     1      18.845  49.223  46.520  1.00  0.00     0.147 C 
HETATM   22  C   UNL     1      18.607  50.283  45.451  1.00  0.00     0.044 C 
BRANCH  21  23
HETATM   23  O   UNL     1      19.238  48.005  45.888  1.00  0.00    -0.391 OA
HETATM   24  H   UNL     1      19.987  48.219  45.307  1.00  0.00     0.210 HD
ENDBRANCH  21  23
ENDBRANCH  17  21
ENDBRANCH  12  15
ENDBRANCH   1  11
BRANCH   8  25
HETATM   25  C   UNL     1      26.021  45.635  54.264  1.00  0.00     0.409 C 
HETATM   26  F   UNL     1      25.880  46.848  54.840  1.00  0.00    -0.169 F 
HETATM   27  F   UNL     1      24.807  45.048  54.235  1.00  0.00    -0.169 F 
HETATM   28  F   UNL     1      26.788  44.894  55.107  1.00  0.00    -0.169 F 
ENDBRANCH   8  25
BRANCH   6  29
HETATM   29  C   UNL     1      27.115  42.143  51.431  1.00  0.00    -0.035 A 
HETATM   30  C   UNL     1      26.775  41.845  50.097  1.00  0.00     0.012 A 
HETATM   31  C   UNL     1      27.381  40.784  49.424  1.00  0.00     0.043 A 
HETATM   32  C   UNL     1      28.326  40.010  50.085  1.00  0.00     0.116 A 
HETATM   33  F   UNL     1      28.901  38.984  49.445  1.00  0.00    -0.206 F 
HETATM   34  C   UNL     1      28.675  40.279  51.403  1.00  0.00     0.043 A 
HETATM   35  C   UNL     1      28.072  41.344  52.077  1.00  0.00     0.012 A 
ENDBRANCH   6  29
TORSDOF 6
ENDMDL
