MODEL 1
REMARK VINA RESULT:      -9.0      0.000      0.000
REMARK  5 active torsions:
REMARK  status: ('A' for Active; 'I' for Inactive)
REMARK    1  A    between atoms: C_5  and  C_6 
REMARK    2  A    between atoms: C_9  and  O_10 
REMARK    3  A    between atoms: N_14  and  C_15 
REMARK    4  A    between atoms: C_15  and  C_16 
REMARK       I    between atoms: C_16  and  N_17 
REMARK    5  A    between atoms: N_17  and  C_18 
ROOT
HETATM    1  C   UNL     1      28.357  40.481  51.081  1.00  0.00     0.156 C 
HETATM    2  N   UNL     1      27.856  41.722  51.623  1.00  0.00    -0.346 N 
HETATM    3  C   UNL     1      26.706  42.338  51.271  1.00  0.00     0.113 A 
HETATM    4  C   UNL     1      26.594  43.525  51.943  1.00  0.00     0.014 A 
HETATM    5  C   UNL     1      25.334  44.217  51.572  1.00  0.00     0.158 A 
HETATM    6  N   UNL     1      24.738  43.186  50.681  1.00  0.00    -0.325 N 
HETATM    7  C   UNL     1      25.554  42.068  50.483  1.00  0.00     0.272 A 
HETATM    8  O   UNL     1      25.271  41.041  49.891  1.00  0.00    -0.266 OA
HETATM    9  C   UNL     1      27.664  43.612  52.852  1.00  0.00     0.002 A 
HETATM   10  C   UNL     1      28.455  42.465  52.635  1.00  0.00     0.045 A 
HETATM   11  C   UNL     1      28.037  44.518  53.862  1.00  0.00     0.014 A 
HETATM   12  C   UNL     1      29.183  44.266  54.622  1.00  0.00     0.001 A 
HETATM   13  C   UNL     1      29.957  43.133  54.387  1.00  0.00     0.002 A 
HETATM   14  C   UNL     1      29.612  42.216  53.389  1.00  0.00     0.030 A 
ENDROOT
BRANCH   6  15
HETATM   15  C   UNL     1      23.310  43.172  50.405  1.00  0.00     0.229 C 
BRANCH  15  16
HETATM   16  C   UNL     1      22.977  43.804  49.043  1.00  0.00     0.235 C 
HETATM   17  N   UNL     1      22.387  45.050  49.113  1.00  0.00    -0.355 N 
HETATM   18  H   UNL     1      21.989  45.321  50.004  1.00  0.00     0.162 HD
HETATM   19  O   UNL     1      23.163  43.208  47.986  1.00  0.00    -0.272 OA
BRANCH  17  20
HETATM   20  C   UNL     1      22.037  45.841  47.942  1.00  0.00     0.084 C 
HETATM   21  C   UNL     1      20.520  45.890  47.726  1.00  0.00     0.025 C 
HETATM   22  C   UNL     1      19.802  46.771  48.748  1.00  0.00     0.002 C 
HETATM   23  C   UNL     1      20.411  48.169  48.822  1.00  0.00     0.000 C 
HETATM   24  C   UNL     1      21.909  48.114  49.099  1.00  0.00     0.002 C 
HETATM   25  C   UNL     1      22.637  47.249  48.069  1.00  0.00     0.025 C 
ENDBRANCH  17  20
ENDBRANCH  15  16
ENDBRANCH   6  15
BRANCH   5  26
HETATM   26  C   UNL     1      25.740  45.492  50.863  1.00  0.00    -0.030 A 
HETATM   27  C   UNL     1      26.836  45.556  49.988  1.00  0.00     0.012 A 
HETATM   28  C   UNL     1      27.202  46.761  49.383  1.00  0.00     0.037 A 
HETATM   29  C   UNL     1      26.490  47.934  49.638  1.00  0.00     0.068 A 
HETATM   30  C   UNL     1      25.398  47.887  50.501  1.00  0.00     0.037 A 
HETATM   31  C   UNL     1      25.024  46.677  51.104  1.00  0.00     0.012 A 
BRANCH  29  32
HETATM   32  O   UNL     1      26.964  49.042  48.993  1.00  0.00    -0.356 OA
HETATM   33  C   UNL     1      26.035  49.779  48.211  1.00  0.00     0.210 C 
ENDBRANCH  29  32
ENDBRANCH   5  26
TORSDOF 5
ENDMDL
MODEL 2
REMARK VINA RESULT:      -8.8      2.172      7.101
REMARK  5 active torsions:
REMARK  status: ('A' for Active; 'I' for Inactive)
REMARK    1  A    between atoms: C_5  and  C_6 
REMARK    2  A    between atoms: C_9  and  O_10 
REMARK    3  A    between atoms: N_14  and  C_15 
REMARK    4  A    between atoms: C_15  and  C_16 
REMARK       I    between atoms: C_16  and  N_17 
REMARK    5  A    between atoms: N_17  and  C_18 
ROOT
HETATM    1  C   UNL     1      20.836  46.734  48.350  1.00  0.00     0.156 C 
HETATM    2  N   UNL     1      22.223  46.883  48.723  1.00  0.00    -0.346 N 
HETATM    3  C   UNL     1      23.013  45.922  49.251  1.00  0.00     0.113 A 
HETATM    4  C   UNL     1      24.243  46.445  49.542  1.00  0.00     0.014 A 
HETATM    5  C   UNL     1      25.128  45.403  50.121  1.00  0.00     0.158 A 
HETATM    6  N   UNL     1      24.231  44.223  50.007  1.00  0.00    -0.325 N 
HETATM    7  C   UNL     1      22.962  44.523  49.503  1.00  0.00     0.272 A 
HETATM    8  O   UNL     1      22.076  43.738  49.212  1.00  0.00    -0.266 OA
HETATM    9  C   UNL     1      24.275  47.769  49.068  1.00  0.00     0.002 A 
HETATM   10  C   UNL     1      22.988  48.032  48.556  1.00  0.00     0.045 A 
HETATM   11  C   UNL     1      25.262  48.769  48.984  1.00  0.00     0.014 A 
HETATM   12  C   UNL     1      24.944  49.999  48.401  1.00  0.00     0.001 A 
HETATM   13  C   UNL     1      23.665  50.245  47.909  1.00  0.00     0.002 A 
HETATM   14  C   UNL     1      22.664  49.271  47.981  1.00  0.00     0.030 A 
ENDROOT
BRANCH   6  15
HETATM   15  C   UNL     1      24.768  42.871  50.022  1.00  0.00     0.229 C 
BRANCH  15  16
HETATM   16  C   UNL     1      26.306  42.860  50.040  1.00  0.00     0.235 C 
HETATM   17  N   UNL     1      26.866  42.474  51.240  1.00  0.00    -0.355 N 
HETATM   18  H   UNL     1      26.265  42.492  52.055  1.00  0.00     0.162 HD
HETATM   19  O   UNL     1      26.971  43.232  49.077  1.00  0.00    -0.272 OA
BRANCH  17  20
HETATM   20  C   UNL     1      28.301  42.348  51.456  1.00  0.00     0.084 C 
HETATM   21  C   UNL     1      28.881  43.595  52.133  1.00  0.00     0.025 C 
HETATM   22  C   UNL     1      28.496  43.704  53.609  1.00  0.00     0.002 C 
HETATM   23  C   UNL     1      28.832  42.429  54.379  1.00  0.00     0.000 C 
HETATM   24  C   UNL     1      28.199  41.202  53.735  1.00  0.00     0.002 C 
HETATM   25  C   UNL     1      28.595  41.076  52.263  1.00  0.00     0.025 C 
ENDBRANCH  17  20
ENDBRANCH  15  16
ENDBRANCH   6  15
BRANCH   5  26
HETATM   26  C   UNL     1      25.416  45.830  51.545  1.00  0.00    -0.030 A 
HETATM   27  C   UNL     1      26.131  46.998  51.856  1.00  0.00     0.012 A 
HETATM   28  C   UNL     1      26.409  47.337  53.182  1.00  0.00     0.037 A 
HETATM   29  C   UNL     1      25.988  46.520  54.232  1.00  0.00     0.068 A 
HETATM   30  C   UNL     1      25.275  45.360  53.941  1.00  0.00     0.037 A 
HETATM   31  C   UNL     1      24.989  45.020  52.611  1.00  0.00     0.012 A 
BRANCH  29  32
HETATM   32  O   UNL     1      26.340  46.962  55.477  1.00  0.00    -0.356 OA
HETATM   33  C   UNL     1      26.420  48.369  55.663  1.00  0.00     0.210 C 
ENDBRANCH  29  32
ENDBRANCH   5  26
TORSDOF 5
ENDMDL
MODEL 3
REMARK VINA RESULT:      -8.5      2.361      6.945
REMARK  5 active torsions:
REMARK  status: ('A' for Active; 'I' for Inactive)
REMARK    1  A    between atoms: C_5  and  C_6 
REMARK    2  A    between atoms: C_9  and  O_10 
REMARK    3  A    between atoms: N_14  and  C_15 
REMARK    4  A    between atoms: C_15  and  C_16 
REMARK       I    between atoms: C_16  and  N_17 
REMARK    5  A    between atoms: N_17  and  C_18 
ROOT
HETATM    1  C   UNL     1      22.587  47.544  49.136  1.00  0.00     0.156 C 
HETATM    2  N   UNL     1      23.959  47.234  49.459  1.00  0.00    -0.346 N 
HETATM    3  C   UNL     1      24.409  46.075  49.990  1.00  0.00     0.113 A 
HETATM    4  C   UNL     1      25.754  46.168  50.225  1.00  0.00     0.014 A 
HETATM    5  C   UNL     1      26.269  44.902  50.805  1.00  0.00     0.158 A 
HETATM    6  N   UNL     1      25.029  44.082  50.754  1.00  0.00    -0.325 N 
HETATM    7  C   UNL     1      23.911  44.776  50.283  1.00  0.00     0.272 A 
HETATM    8  O   UNL     1      22.806  44.322  50.043  1.00  0.00    -0.266 OA
HETATM    9  C   UNL     1      26.201  47.399  49.713  1.00  0.00     0.002 A 
HETATM   10  C   UNL     1      25.052  48.064  49.235  1.00  0.00     0.045 A 
HETATM   11  C   UNL     1      27.457  48.017  49.569  1.00  0.00     0.014 A 
HETATM   12  C   UNL     1      27.539  49.273  48.962  1.00  0.00     0.001 A 
HETATM   13  C   UNL     1      26.393  49.919  48.504  1.00  0.00     0.002 A 
HETATM   14  C   UNL     1      25.132  49.330  48.636  1.00  0.00     0.030 A 
ENDROOT
BRANCH   6  15
HETATM   15  C   UNL     1      25.092  42.629  50.790  1.00  0.00     0.229 C 
BRANCH  15  16
HETATM   16  C   UNL     1      25.637  42.040  49.478  1.00  0.00     0.235 C 
HETATM   17  N   UNL     1      26.564  41.031  49.639  1.00  0.00    -0.355 N 
HETATM   18  H   UNL     1      26.998  40.946  50.550  1.00  0.00     0.162 HD
HETATM   19  O   UNL     1      25.316  42.488  48.380  1.00  0.00    -0.272 OA
BRANCH  17  20
HETATM   20  C   UNL     1      27.167  40.307  48.529  1.00  0.00     0.084 C 
HETATM   21  C   UNL     1      28.672  40.103  48.739  1.00  0.00     0.025 C 
HETATM   22  C   UNL     1      28.987  39.061  49.812  1.00  0.00     0.002 C 
HETATM   23  C   UNL     1      28.264  37.742  49.554  1.00  0.00     0.000 C 
HETATM   24  C   UNL     1      26.760  37.945  49.409  1.00  0.00     0.002 C 
HETATM   25  C   UNL     1      26.437  38.972  48.323  1.00  0.00     0.025 C 
ENDBRANCH  17  20
ENDBRANCH  15  16
ENDBRANCH   6  15
BRANCH   5  26
HETATM   26  C   UNL     1      26.738  45.234  52.206  1.00  0.00    -0.030 A 
HETATM   27  C   UNL     1      27.664  44.441  52.903  1.00  0.00     0.012 A 
HETATM   28  C   UNL     1      28.042  44.760  54.210  1.00  0.00     0.037 A 
HETATM   29  C   UNL     1      27.503  45.872  54.858  1.00  0.00     0.068 A 
HETATM   30  C   UNL     1      26.585  46.671  54.180  1.00  0.00     0.037 A 
HETATM   31  C   UNL     1      26.210  46.357  52.866  1.00  0.00     0.012 A 
BRANCH  29  32
HETATM   32  O   UNL     1      27.947  46.058  56.137  1.00  0.00    -0.356 OA
HETATM   33  C   UNL     1      29.324  45.807  56.385  1.00  0.00     0.210 C 
ENDBRANCH  29  32
ENDBRANCH   5  26
TORSDOF 5
ENDMDL
MODEL 4
REMARK VINA RESULT:      -8.1      2.409      7.748
REMARK  5 active torsions:
REMARK  status: ('A' for Active; 'I' for Inactive)
REMARK    1  A    between atoms: C_5  and  C_6 
REMARK    2  A    between atoms: C_9  and  O_10 
REMARK    3  A    between atoms: N_14  and  C_15 
REMARK    4  A    between atoms: C_15  and  C_16 
REMARK       I    between atoms: C_16  and  N_17 
REMARK    5  A    between atoms: N_17  and  C_18 
ROOT
HETATM    1  C   UNL     1      26.327  49.843  48.287  1.00  0.00     0.156 C 
HETATM    2  N   UNL     1      25.156  49.097  48.682  1.00  0.00    -0.346 N 
HETATM    3  C   UNL     1      25.130  47.803  49.073  1.00  0.00     0.113 A 
HETATM    4  C   UNL     1      23.838  47.416  49.303  1.00  0.00     0.014 A 
HETATM    5  C   UNL     1      23.790  45.997  49.738  1.00  0.00     0.158 A 
HETATM    6  N   UNL     1      25.247  45.708  49.806  1.00  0.00    -0.325 N 
HETATM    7  C   UNL     1      26.055  46.773  49.398  1.00  0.00     0.272 A 
HETATM    8  O   UNL     1      27.270  46.842  49.454  1.00  0.00    -0.266 OA
HETATM    9  C   UNL     1      23.015  48.547  49.164  1.00  0.00     0.002 A 
HETATM   10  C   UNL     1      23.863  49.602  48.767  1.00  0.00     0.045 A 
HETATM   11  C   UNL     1      21.646  48.808  49.361  1.00  0.00     0.014 A 
HETATM   12  C   UNL     1      21.157  50.102  49.157  1.00  0.00     0.001 A 
HETATM   13  C   UNL     1      22.008  51.129  48.756  1.00  0.00     0.002 A 
HETATM   14  C   UNL     1      23.371  50.898  48.550  1.00  0.00     0.030 A 
ENDROOT
BRANCH   6  15
HETATM   15  C   UNL     1      25.752  44.601  50.603  1.00  0.00     0.229 C 
BRANCH  15  16
HETATM   16  C   UNL     1      25.380  44.740  52.089  1.00  0.00     0.235 C 
HETATM   17  N   UNL     1      26.357  45.312  52.878  1.00  0.00    -0.355 N 
HETATM   18  H   UNL     1      27.295  45.342  52.498  1.00  0.00     0.162 HD
HETATM   19  O   UNL     1      24.321  44.310  52.538  1.00  0.00    -0.272 OA
BRANCH  17  20
HETATM   20  C   UNL     1      26.190  45.579  54.299  1.00  0.00     0.084 C 
HETATM   21  C   UNL     1      27.131  44.717  55.150  1.00  0.00     0.025 C 
HETATM   22  C   UNL     1      28.590  45.166  55.063  1.00  0.00     0.002 C 
HETATM   23  C   UNL     1      28.746  46.653  55.370  1.00  0.00     0.000 C 
HETATM   24  C   UNL     1      27.854  47.507  54.476  1.00  0.00     0.002 C 
HETATM   25  C   UNL     1      26.390  47.076  54.573  1.00  0.00     0.025 C 
ENDBRANCH  17  20
ENDBRANCH  15  16
ENDBRANCH   6  15
BRANCH   5  26
HETATM   26  C   UNL     1      23.056  45.241  48.649  1.00  0.00    -0.030 A 
HETATM   27  C   UNL     1      21.667  45.334  48.467  1.00  0.00     0.012 A 
HETATM   28  C   UNL     1      21.023  44.591  47.475  1.00  0.00     0.037 A 
HETATM   29  C   UNL     1      21.742  43.732  46.644  1.00  0.00     0.068 A 
HETATM   30  C   UNL     1      23.122  43.631  46.810  1.00  0.00     0.037 A 
HETATM   31  C   UNL     1      23.772  44.381  47.800  1.00  0.00     0.012 A 
BRANCH  29  32
HETATM   32  O   UNL     1      20.986  43.055  45.729  1.00  0.00    -0.356 OA
HETATM   33  C   UNL     1      19.575  43.147  45.865  1.00  0.00     0.210 C 
ENDBRANCH  29  32
ENDBRANCH   5  26
TORSDOF 5
ENDMDL
MODEL 5
REMARK VINA RESULT:      -8.1      3.237      5.965
REMARK  5 active torsions:
REMARK  status: ('A' for Active; 'I' for Inactive)
REMARK    1  A    between atoms: C_5  and  C_6 
REMARK    2  A    between atoms: C_9  and  O_10 
REMARK    3  A    between atoms: N_14  and  C_15 
REMARK    4  A    between atoms: C_15  and  C_16 
REMARK       I    between atoms: C_16  and  N_17 
REMARK    5  A    between atoms: N_17  and  C_18 
ROOT
HETATM    1  C   UNL     1      25.471  44.265  54.703  1.00  0.00     0.156 C 
HETATM    2  N   UNL     1      26.400  43.860  53.675  1.00  0.00    -0.346 N 
HETATM    3  C   UNL     1      26.118  43.709  52.361  1.00  0.00     0.113 A 
HETATM    4  C   UNL     1      27.224  43.248  51.702  1.00  0.00     0.014 A 
HETATM    5  C   UNL     1      26.936  43.079  50.255  1.00  0.00     0.158 A 
HETATM    6  N   UNL     1      25.547  43.610  50.215  1.00  0.00    -0.325 N 
HETATM    7  C   UNL     1      25.044  43.975  51.467  1.00  0.00     0.272 A 
HETATM    8  O   UNL     1      23.986  44.530  51.706  1.00  0.00    -0.266 OA
HETATM    9  C   UNL     1      28.292  43.215  52.617  1.00  0.00     0.002 A 
HETATM   10  C   UNL     1      27.753  43.602  53.861  1.00  0.00     0.045 A 
HETATM   11  C   UNL     1      29.668  42.933  52.526  1.00  0.00     0.014 A 
HETATM   12  C   UNL     1      30.467  43.037  53.668  1.00  0.00     0.001 A 
HETATM   13  C   UNL     1      29.916  43.411  54.891  1.00  0.00     0.002 A 
HETATM   14  C   UNL     1      28.552  43.695  55.011  1.00  0.00     0.030 A 
ENDROOT
BRANCH   6  15
HETATM   15  C   UNL     1      24.963  44.080  48.968  1.00  0.00     0.229 C 
BRANCH  15  16
HETATM   16  C   UNL     1      24.060  43.019  48.317  1.00  0.00     0.235 C 
HETATM   17  N   UNL     1      24.656  42.297  47.303  1.00  0.00    -0.355 N 
HETATM   18  H   UNL     1      25.501  42.682  46.900  1.00  0.00     0.162 HD
HETATM   19  O   UNL     1      22.882  42.881  48.637  1.00  0.00    -0.272 OA
BRANCH  17  20
HETATM   20  C   UNL     1      23.994  41.215  46.589  1.00  0.00     0.084 C 
HETATM   21  C   UNL     1      23.849  41.529  45.096  1.00  0.00     0.025 C 
HETATM   22  C   UNL     1      25.175  41.445  44.339  1.00  0.00     0.002 C 
HETATM   23  C   UNL     1      25.881  40.113  44.574  1.00  0.00     0.000 C 
HETATM   24  C   UNL     1      26.078  39.837  46.061  1.00  0.00     0.002 C 
HETATM   25  C   UNL     1      24.753  39.900  46.820  1.00  0.00     0.025 C 
ENDBRANCH  17  20
ENDBRANCH  15  16
ENDBRANCH   6  15
BRANCH   5  26
HETATM   26  C   UNL     1      27.043  41.595  49.969  1.00  0.00    -0.030 A 
HETATM   27  C   UNL     1      26.110  40.662  50.450  1.00  0.00     0.012 A 
HETATM   28  C   UNL     1      26.265  39.297  50.196  1.00  0.00     0.037 A 
HETATM   29  C   UNL     1      27.354  38.826  49.463  1.00  0.00     0.068 A 
HETATM   30  C   UNL     1      28.287  39.739  48.976  1.00  0.00     0.037 A 
HETATM   31  C   UNL     1      28.130  41.110  49.224  1.00  0.00     0.012 A 
BRANCH  29  32
HETATM   32  O   UNL     1      27.391  37.469  49.303  1.00  0.00    -0.356 OA
HETATM   33  C   UNL     1      26.463  36.902  48.389  1.00  0.00     0.210 C 
ENDBRANCH  29  32
ENDBRANCH   5  26
TORSDOF 5
ENDMDL
MODEL 6
REMARK VINA RESULT:      -8.0     10.896     13.185
REMARK  5 active torsions:
REMARK  status: ('A' for Active; 'I' for Inactive)
REMARK    1  A    between atoms: C_5  and  C_6 
REMARK    2  A    between atoms: C_9  and  O_10 
REMARK    3  A    between atoms: N_14  and  C_15 
REMARK    4  A    between atoms: C_15  and  C_16 
REMARK       I    between atoms: C_16  and  N_17 
REMARK    5  A    between atoms: N_17  and  C_18 
ROOT
HETATM    1  C   UNL     1      25.930  47.326  36.889  1.00  0.00     0.156 C 
HETATM    2  N   UNL     1      26.533  47.027  38.167  1.00  0.00    -0.346 N 
HETATM    3  C   UNL     1      26.929  47.930  39.091  1.00  0.00     0.113 A 
HETATM    4  C   UNL     1      27.518  47.284  40.144  1.00  0.00     0.014 A 
HETATM    5  C   UNL     1      27.957  48.260  41.173  1.00  0.00     0.158 A 
HETATM    6  N   UNL     1      27.430  49.513  40.569  1.00  0.00    -0.325 N 
HETATM    7  C   UNL     1      26.827  49.330  39.321  1.00  0.00     0.272 A 
HETATM    8  O   UNL     1      26.227  50.159  38.661  1.00  0.00    -0.266 OA
HETATM    9  C   UNL     1      27.386  45.900  39.933  1.00  0.00     0.002 A 
HETATM   10  C   UNL     1      26.763  45.754  38.676  1.00  0.00     0.045 A 
HETATM   11  C   UNL     1      27.694  44.749  40.682  1.00  0.00     0.014 A 
HETATM   12  C   UNL     1      27.381  43.489  40.163  1.00  0.00     0.001 A 
HETATM   13  C   UNL     1      26.775  43.363  38.915  1.00  0.00     0.002 A 
HETATM   14  C   UNL     1      26.460  44.489  38.149  1.00  0.00     0.030 A 
ENDROOT
BRANCH   6  15
HETATM   15  C   UNL     1      27.201  50.696  41.384  1.00  0.00     0.229 C 
BRANCH  15  16
HETATM   16  C   UNL     1      28.030  51.899  40.903  1.00  0.00     0.235 C 
HETATM   17  N   UNL     1      28.998  51.596  39.968  1.00  0.00    -0.355 N 
HETATM   18  H   UNL     1      29.261  50.622  39.877  1.00  0.00     0.162 HD
HETATM   19  O   UNL     1      27.879  53.024  41.373  1.00  0.00    -0.272 OA
BRANCH  17  20
HETATM   20  C   UNL     1      29.859  52.593  39.348  1.00  0.00     0.084 C 
HETATM   21  C   UNL     1      31.012  52.997  40.273  1.00  0.00     0.025 C 
HETATM   22  C   UNL     1      32.079  51.910  40.403  1.00  0.00     0.002 C 
HETATM   23  C   UNL     1      32.581  51.439  39.041  1.00  0.00     0.000 C 
HETATM   24  C   UNL     1      31.433  50.980  38.149  1.00  0.00     0.002 C 
HETATM   25  C   UNL     1      30.371  52.070  37.999  1.00  0.00     0.025 C 
ENDBRANCH  17  20
ENDBRANCH  15  16
ENDBRANCH   6  15
BRANCH   5  26
HETATM   26  C   UNL     1      29.469  48.181  41.219  1.00  0.00    -0.030 A 
HETATM   27  C   UNL     1      30.221  48.676  42.297  1.00  0.00     0.012 A 
HETATM   28  C   UNL     1      31.617  48.618  42.284  1.00  0.00     0.037 A 
HETATM   29  C   UNL     1      32.299  48.072  41.197  1.00  0.00     0.068 A 
HETATM   30  C   UNL     1      31.568  47.573  40.121  1.00  0.00     0.037 A 
HETATM   31  C   UNL     1      30.167  47.624  40.134  1.00  0.00     0.012 A 
BRANCH  29  32
HETATM   32  O   UNL     1      33.662  48.093  41.308  1.00  0.00    -0.356 OA
HETATM   33  C   UNL     1      34.277  49.367  41.441  1.00  0.00     0.210 C 
ENDBRANCH  29  32
ENDBRANCH   5  26
TORSDOF 5
ENDMDL
MODEL 7
REMARK VINA RESULT:      -7.9      2.495      7.202
REMARK  5 active torsions:
REMARK  status: ('A' for Active; 'I' for Inactive)
REMARK    1  A    between atoms: C_5  and  C_6 
REMARK    2  A    between atoms: C_9  and  O_10 
REMARK    3  A    between atoms: N_14  and  C_15 
REMARK    4  A    between atoms: C_15  and  C_16 
REMARK       I    between atoms: C_16  and  N_17 
REMARK    5  A    between atoms: N_17  and  C_18 
ROOT
HETATM    1  C   UNL     1      19.226  47.497  48.917  1.00  0.00     0.156 C 
HETATM    2  N   UNL     1      20.663  47.489  48.780  1.00  0.00    -0.346 N 
HETATM    3  C   UNL     1      21.432  46.406  48.526  1.00  0.00     0.113 A 
HETATM    4  C   UNL     1      22.752  46.767  48.533  1.00  0.00     0.014 A 
HETATM    5  C   UNL     1      23.614  45.592  48.252  1.00  0.00     0.158 A 
HETATM    6  N   UNL     1      22.565  44.570  47.994  1.00  0.00    -0.325 N 
HETATM    7  C   UNL     1      21.261  45.041  48.168  1.00  0.00     0.272 A 
HETATM    8  O   UNL     1      20.222  44.451  47.923  1.00  0.00    -0.266 OA
HETATM    9  C   UNL     1      22.820  48.164  48.682  1.00  0.00     0.002 A 
HETATM   10  C   UNL     1      21.489  48.605  48.841  1.00  0.00     0.045 A 
HETATM   11  C   UNL     1      23.858  49.114  48.669  1.00  0.00     0.014 A 
HETATM   12  C   UNL     1      23.550  50.470  48.817  1.00  0.00     0.001 A 
HETATM   13  C   UNL     1      22.231  50.886  48.981  1.00  0.00     0.002 A 
HETATM   14  C   UNL     1      21.180  49.964  49.001  1.00  0.00     0.030 A 
ENDROOT
BRANCH   6  15
HETATM   15  C   UNL     1      22.868  43.361  47.242  1.00  0.00     0.229 C 
BRANCH  15  16
HETATM   16  C   UNL     1      23.237  42.185  48.162  1.00  0.00     0.235 C 
HETATM   17  N   UNL     1      24.566  41.815  48.121  1.00  0.00    -0.355 N 
HETATM   18  H   UNL     1      25.110  42.143  47.333  1.00  0.00     0.162 HD
HETATM   19  O   UNL     1      22.393  41.587  48.824  1.00  0.00    -0.272 OA
BRANCH  17  20
HETATM   20  C   UNL     1      25.133  40.760  48.949  1.00  0.00     0.084 C 
HETATM   21  C   UNL     1      26.092  39.870  48.149  1.00  0.00     0.025 C 
HETATM   22  C   UNL     1      27.416  40.563  47.827  1.00  0.00     0.002 C 
HETATM   23  C   UNL     1      28.079  41.135  49.077  1.00  0.00     0.000 C 
HETATM   24  C   UNL     1      27.140  42.068  49.832  1.00  0.00     0.002 C 
HETATM   25  C   UNL     1      25.821  41.375  50.175  1.00  0.00     0.025 C 
ENDBRANCH  17  20
ENDBRANCH  15  16
ENDBRANCH   6  15
BRANCH   5  26
HETATM   26  C   UNL     1      24.425  45.347  49.508  1.00  0.00    -0.030 A 
HETATM   27  C   UNL     1      23.893  44.709  50.640  1.00  0.00     0.012 A 
HETATM   28  C   UNL     1      24.662  44.537  51.794  1.00  0.00     0.037 A 
HETATM   29  C   UNL     1      25.977  44.999  51.851  1.00  0.00     0.068 A 
HETATM   30  C   UNL     1      26.521  45.630  50.735  1.00  0.00     0.037 A 
HETATM   31  C   UNL     1      25.754  45.799  49.574  1.00  0.00     0.012 A 
BRANCH  29  32
HETATM   32  O   UNL     1      26.609  44.778  53.043  1.00  0.00    -0.356 OA
HETATM   33  C   UNL     1      25.821  44.892  54.220  1.00  0.00     0.210 C 
ENDBRANCH  29  32
ENDBRANCH   5  26
TORSDOF 5
ENDMDL
MODEL 8
REMARK VINA RESULT:      -7.8     18.367     20.932
REMARK  5 active torsions:
REMARK  status: ('A' for Active; 'I' for Inactive)
REMARK    1  A    between atoms: C_5  and  C_6 
REMARK    2  A    between atoms: C_9  and  O_10 
REMARK    3  A    between atoms: N_14  and  C_15 
REMARK    4  A    between atoms: C_15  and  C_16 
REMARK       I    between atoms: C_16  and  N_17 
REMARK    5  A    between atoms: N_17  and  C_18 
ROOT
HETATM    1  C   UNL     1      43.176  41.133  66.872  1.00  0.00     0.156 C 
HETATM    2  N   UNL     1      42.181  41.351  65.850  1.00  0.00    -0.346 N 
HETATM    3  C   UNL     1      41.792  42.549  65.360  1.00  0.00     0.113 A 
HETATM    4  C   UNL     1      40.781  42.371  64.455  1.00  0.00     0.014 A 
HETATM    5  C   UNL     1      40.341  43.677  63.902  1.00  0.00     0.158 A 
HETATM    6  N   UNL     1      41.328  44.572  64.562  1.00  0.00    -0.325 N 
HETATM    7  C   UNL     1      42.189  43.912  65.445  1.00  0.00     0.272 A 
HETATM    8  O   UNL     1      43.148  44.381  66.032  1.00  0.00    -0.266 OA
HETATM    9  C   UNL     1      40.597  40.988  64.275  1.00  0.00     0.002 A 
HETATM   10  C   UNL     1      41.488  40.357  65.168  1.00  0.00     0.045 A 
HETATM   11  C   UNL     1      39.798  40.195  63.431  1.00  0.00     0.014 A 
HETATM   12  C   UNL     1      39.901  38.802  63.498  1.00  0.00     0.001 A 
HETATM   13  C   UNL     1      40.780  38.196  64.392  1.00  0.00     0.002 A 
HETATM   14  C   UNL     1      41.584  38.959  65.244  1.00  0.00     0.030 A 
ENDROOT
BRANCH   6  15
HETATM   15  C   UNL     1      41.620  45.890  64.022  1.00  0.00     0.229 C 
BRANCH  15  16
HETATM   16  C   UNL     1      41.175  47.016  64.970  1.00  0.00     0.235 C 
HETATM   17  N   UNL     1      39.913  47.515  64.720  1.00  0.00    -0.355 N 
HETATM   18  H   UNL     1      39.507  47.309  63.816  1.00  0.00     0.162 HD
HETATM   19  O   UNL     1      41.919  47.473  65.833  1.00  0.00    -0.272 OA
BRANCH  17  20
HETATM   20  C   UNL     1      39.282  48.549  65.529  1.00  0.00     0.084 C 
HETATM   21  C   UNL     1      38.138  49.237  64.775  1.00  0.00     0.025 C 
HETATM   22  C   UNL     1      36.900  48.351  64.635  1.00  0.00     0.002 C 
HETATM   23  C   UNL     1      36.442  47.797  65.981  1.00  0.00     0.000 C 
HETATM   24  C   UNL     1      37.567  47.060  66.697  1.00  0.00     0.002 C 
HETATM   25  C   UNL     1      38.802  47.947  66.858  1.00  0.00     0.025 C 
ENDBRANCH  17  20
ENDBRANCH  15  16
ENDBRANCH   6  15
BRANCH   5  26
HETATM   26  C   UNL     1      38.913  43.878  64.364  1.00  0.00    -0.030 A 
HETATM   27  C   UNL     1      38.434  43.377  65.585  1.00  0.00     0.012 A 
HETATM   28  C   UNL     1      37.099  43.550  65.957  1.00  0.00     0.037 A 
HETATM   29  C   UNL     1      36.205  44.222  65.122  1.00  0.00     0.068 A 
HETATM   30  C   UNL     1      36.665  44.727  63.908  1.00  0.00     0.037 A 
HETATM   31  C   UNL     1      38.006  44.560  63.535  1.00  0.00     0.012 A 
BRANCH  29  32
HETATM   32  O   UNL     1      34.928  44.306  65.602  1.00  0.00    -0.356 OA
HETATM   33  C   UNL     1      34.305  43.090  65.991  1.00  0.00     0.210 C 
ENDBRANCH  29  32
ENDBRANCH   5  26
TORSDOF 5
ENDMDL
MODEL 9
REMARK VINA RESULT:      -7.7      5.827     10.016
REMARK  5 active torsions:
REMARK  status: ('A' for Active; 'I' for Inactive)
REMARK    1  A    between atoms: C_5  and  C_6 
REMARK    2  A    between atoms: C_9  and  O_10 
REMARK    3  A    between atoms: N_14  and  C_15 
REMARK    4  A    between atoms: C_15  and  C_16 
REMARK       I    between atoms: C_16  and  N_17 
REMARK    5  A    between atoms: N_17  and  C_18 
ROOT
HETATM    1  C   UNL     1      17.822  48.742  44.314  1.00  0.00     0.156 C 
HETATM    2  N   UNL     1      18.445  48.500  45.593  1.00  0.00    -0.346 N 
HETATM    3  C   UNL     1      18.828  49.443  46.484  1.00  0.00     0.113 A 
HETATM    4  C   UNL     1      19.444  48.846  47.550  1.00  0.00     0.014 A 
HETATM    5  C   UNL     1      19.869  49.866  48.542  1.00  0.00     0.158 A 
HETATM    6  N   UNL     1      19.304  51.084  47.904  1.00  0.00    -0.325 N 
HETATM    7  C   UNL     1      18.694  50.846  46.669  1.00  0.00     0.272 A 
HETATM    8  O   UNL     1      18.066  51.638  45.989  1.00  0.00    -0.266 OA
HETATM    9  C   UNL     1      19.345  47.453  47.386  1.00  0.00     0.002 A 
HETATM   10  C   UNL     1      18.713  47.250  46.141  1.00  0.00     0.045 A 
HETATM   11  C   UNL     1      19.689  46.335  48.167  1.00  0.00     0.014 A 
HETATM   12  C   UNL     1      19.403  45.051  47.693  1.00  0.00     0.001 A 
HETATM   13  C   UNL     1      18.788  44.870  46.457  1.00  0.00     0.002 A 
HETATM   14  C   UNL     1      18.436  45.962  45.658  1.00  0.00     0.030 A 
ENDROOT
BRANCH   6  15
HETATM   15  C   UNL     1      19.055  52.288  48.682  1.00  0.00     0.229 C 
BRANCH  15  16
HETATM   16  C   UNL     1      17.767  52.181  49.516  1.00  0.00     0.235 C 
HETATM   17  N   UNL     1      16.871  53.214  49.329  1.00  0.00    -0.355 N 
HETATM   18  H   UNL     1      17.224  54.056  48.892  1.00  0.00     0.162 HD
HETATM   19  O   UNL     1      17.591  51.279  50.331  1.00  0.00    -0.272 OA
BRANCH  17  20
HETATM   20  C   UNL     1      15.571  53.280  49.983  1.00  0.00     0.084 C 
HETATM   21  C   UNL     1      15.453  54.520  50.877  1.00  0.00     0.025 C 
HETATM   22  C   UNL     1      15.309  55.817  50.081  1.00  0.00     0.002 C 
HETATM   23  C   UNL     1      14.172  55.737  49.065  1.00  0.00     0.000 C 
HETATM   24  C   UNL     1      14.332  54.537  48.138  1.00  0.00     0.002 C 
HETATM   25  C   UNL     1      14.457  53.234  48.928  1.00  0.00     0.025 C 
ENDBRANCH  17  20
ENDBRANCH  15  16
ENDBRANCH   6  15
BRANCH   5  26
HETATM   26  C   UNL     1      21.383  49.825  48.574  1.00  0.00    -0.030 A 
HETATM   27  C   UNL     1      22.180  50.761  47.896  1.00  0.00     0.012 A 
HETATM   28  C   UNL     1      23.574  50.666  47.918  1.00  0.00     0.037 A 
HETATM   29  C   UNL     1      24.209  49.636  48.611  1.00  0.00     0.068 A 
HETATM   30  C   UNL     1      23.433  48.701  49.292  1.00  0.00     0.037 A 
HETATM   31  C   UNL     1      22.034  48.797  49.277  1.00  0.00     0.012 A 
BRANCH  29  32
HETATM   32  O   UNL     1      25.574  49.654  48.537  1.00  0.00    -0.356 OA
HETATM   33  C   UNL     1      26.272  48.654  49.266  1.00  0.00     0.210 C 
ENDBRANCH  29  32
ENDBRANCH   5  26
TORSDOF 5
ENDMDL
MODEL 10
REMARK VINA RESULT:      -7.6     18.791     21.063
REMARK  5 active torsions:
REMARK  status: ('A' for Active; 'I' for Inactive)
REMARK    1  A    between atoms: C_5  and  C_6 
REMARK    2  A    between atoms: C_9  and  O_10 
REMARK    3  A    between atoms: N_14  and  C_15 
REMARK    4  A    between atoms: C_15  and  C_16 
REMARK       I    between atoms: C_16  and  N_17 
REMARK    5  A    between atoms: N_17  and  C_18 
ROOT
HETATM    1  C   UNL     1      39.290  40.030  62.369  1.00  0.00     0.156 C 
HETATM    2  N   UNL     1      39.769  40.683  63.564  1.00  0.00    -0.346 N 
HETATM    3  C   UNL     1      39.313  41.851  64.070  1.00  0.00     0.113 A 
HETATM    4  C   UNL     1      40.049  42.195  65.171  1.00  0.00     0.014 A 
HETATM    5  C   UNL     1      39.562  43.475  65.744  1.00  0.00     0.158 A 
HETATM    6  N   UNL     1      38.396  43.718  64.853  1.00  0.00    -0.325 N 
HETATM    7  C   UNL     1      38.247  42.764  63.842  1.00  0.00     0.272 A 
HETATM    8  O   UNL     1      37.327  42.664  63.049  1.00  0.00    -0.266 OA
HETATM    9  C   UNL     1      40.936  41.140  65.447  1.00  0.00     0.002 A 
HETATM   10  C   UNL     1      40.749  40.192  64.420  1.00  0.00     0.045 A 
HETATM   11  C   UNL     1      41.858  40.861  66.474  1.00  0.00     0.014 A 
HETATM   12  C   UNL     1      42.569  39.658  66.450  1.00  0.00     0.001 A 
HETATM   13  C   UNL     1      42.378  38.738  65.422  1.00  0.00     0.002 A 
HETATM   14  C   UNL     1      41.471  38.989  64.388  1.00  0.00     0.030 A 
ENDROOT
BRANCH   6  15
HETATM   15  C   UNL     1      37.315  44.603  65.261  1.00  0.00     0.229 C 
BRANCH  15  16
HETATM   16  C   UNL     1      37.390  45.970  64.560  1.00  0.00     0.235 C 
HETATM   17  N   UNL     1      38.196  46.897  65.188  1.00  0.00    -0.355 N 
HETATM   18  H   UNL     1      38.444  46.713  66.152  1.00  0.00     0.162 HD
HETATM   19  O   UNL     1      36.727  46.225  63.558  1.00  0.00    -0.272 OA
BRANCH  17  20
HETATM   20  C   UNL     1      38.443  48.234  64.665  1.00  0.00     0.084 C 
HETATM   21  C   UNL     1      37.518  49.272  65.311  1.00  0.00     0.025 C 
HETATM   22  C   UNL     1      37.893  49.584  66.760  1.00  0.00     0.002 C 
HETATM   23  C   UNL     1      39.364  49.969  66.896  1.00  0.00     0.000 C 
HETATM   24  C   UNL     1      40.280  48.902  66.308  1.00  0.00     0.002 C 
HETATM   25  C   UNL     1      39.922  48.599  64.853  1.00  0.00     0.025 C 
ENDBRANCH  17  20
ENDBRANCH  15  16
ENDBRANCH   6  15
BRANCH   5  26
HETATM   26  C   UNL     1      40.689  44.474  65.579  1.00  0.00    -0.030 A 
HETATM   27  C   UNL     1      41.158  44.884  64.321  1.00  0.00     0.012 A 
HETATM   28  C   UNL     1      42.227  45.778  64.212  1.00  0.00     0.037 A 
HETATM   29  C   UNL     1      42.857  46.281  65.350  1.00  0.00     0.068 A 
HETATM   30  C   UNL     1      42.401  45.886  66.605  1.00  0.00     0.037 A 
HETATM   31  C   UNL     1      41.325  44.994  66.718  1.00  0.00     0.012 A 
BRANCH  29  32
HETATM   32  O   UNL     1      43.896  47.133  65.098  1.00  0.00    -0.356 OA
HETATM   33  C   UNL     1      45.109  46.552  64.638  1.00  0.00     0.210 C 
ENDBRANCH  29  32
ENDBRANCH   5  26
TORSDOF 5
ENDMDL
