MODEL 1
REMARK VINA RESULT:      -9.8      0.000      0.000
REMARK  5 active torsions:
REMARK  status: ('A' for Active; 'I' for Inactive)
REMARK    1  A    between atoms: C_3  and  N_4 
REMARK       I    between atoms: N_4  and  C_5 
REMARK    2  A    between atoms: C_5  and  C_6 
REMARK    3  A    between atoms: C_14  and  C_15 
REMARK    4  A    between atoms: C_24  and  O_25 
REMARK    5  A    between atoms: C_27  and  O_28 
ROOT
HETATM    1  C   UNL     1      26.586  44.161  51.931  1.00  0.00     0.047 A 
HETATM    2  C   UNL     1      26.987  42.943  51.328  1.00  0.00     0.008 A 
HETATM    3  C   UNL     1      27.999  42.235  51.999  1.00  0.00     0.068 A 
HETATM    4  C   UNL     1      28.423  41.014  51.492  1.00  0.00     0.032 A 
HETATM    5  C   UNL     1      27.898  40.475  50.317  1.00  0.00     0.002 A 
HETATM    6  C   UNL     1      26.933  41.179  49.616  1.00  0.00     0.001 A 
HETATM    7  C   UNL     1      26.487  42.404  50.110  1.00  0.00     0.015 A 
HETATM    8  N   UNL     1      28.600  42.694  53.107  1.00  0.00    -0.248 NA
HETATM    9  C   UNL     1      28.266  43.902  53.625  1.00  0.00     0.068 A 
HETATM   10  C   UNL     1      27.248  44.653  53.062  1.00  0.00     0.050 A 
ENDROOT
BRANCH   1  11
HETATM   11  C   UNL     1      25.491  45.012  51.382  1.00  0.00     0.257 C 
HETATM   12  N   UNL     1      25.859  45.811  50.322  1.00  0.00    -0.322 N 
HETATM   13  H   UNL     1      26.691  45.507  49.828  1.00  0.00     0.169 HD
HETATM   14  O   UNL     1      24.367  44.874  51.845  1.00  0.00    -0.267 OA
BRANCH  12  15
HETATM   15  C   UNL     1      25.253  46.986  49.813  1.00  0.00     0.043 A 
HETATM   16  C   UNL     1      25.907  48.173  49.439  1.00  0.00    -0.032 A 
HETATM   17  C   UNL     1      27.383  48.431  49.568  1.00  0.00     0.050 C 
HETATM   18  C   UNL     1      25.148  49.214  48.859  1.00  0.00     0.048 A 
HETATM   19  C   UNL     1      23.783  49.075  48.596  1.00  0.00     0.102 A 
HETATM   20  C   UNL     1      23.129  47.898  48.974  1.00  0.00     0.103 A 
HETATM   21  C   UNL     1      23.868  46.867  49.566  1.00  0.00     0.069 A 
BRANCH  19  22
HETATM   22  O   UNL     1      23.017  50.048  48.002  1.00  0.00    -0.353 OA
HETATM   23  C   UNL     1      22.686  51.171  48.810  1.00  0.00     0.210 C 
ENDBRANCH  19  22
BRANCH  20  24
HETATM   24  O   UNL     1      21.788  47.831  48.686  1.00  0.00    -0.353 OA
HETATM   25  C   UNL     1      21.376  46.942  47.660  1.00  0.00     0.210 C 
ENDBRANCH  20  24
ENDBRANCH  12  15
ENDBRANCH   1  11
BRANCH   9  26
HETATM   26  C   UNL     1      29.086  44.347  54.780  1.00  0.00    -0.007 A 
HETATM   27  C   UNL     1      28.716  45.490  55.518  1.00  0.00     0.014 A 
HETATM   28  C   UNL     1      29.449  45.926  56.627  1.00  0.00     0.001 A 
HETATM   29  C   UNL     1      30.580  45.226  57.029  1.00  0.00     0.000 A 
HETATM   30  C   UNL     1      30.977  44.097  56.318  1.00  0.00     0.001 A 
HETATM   31  C   UNL     1      30.242  43.666  55.207  1.00  0.00     0.014 A 
ENDBRANCH   9  26
TORSDOF 5
ENDMDL
MODEL 2
REMARK VINA RESULT:      -9.8      0.999      2.061
REMARK  5 active torsions:
REMARK  status: ('A' for Active; 'I' for Inactive)
REMARK    1  A    between atoms: C_3  and  N_4 
REMARK       I    between atoms: N_4  and  C_5 
REMARK    2  A    between atoms: C_5  and  C_6 
REMARK    3  A    between atoms: C_14  and  C_15 
REMARK    4  A    between atoms: C_24  and  O_25 
REMARK    5  A    between atoms: C_27  and  O_28 
ROOT
HETATM    1  C   UNL     1      26.477  43.563  51.998  1.00  0.00     0.047 A 
HETATM    2  C   UNL     1      26.917  42.365  51.382  1.00  0.00     0.008 A 
HETATM    3  C   UNL     1      28.027  41.744  51.981  1.00  0.00     0.068 A 
HETATM    4  C   UNL     1      28.498  40.548  51.459  1.00  0.00     0.032 A 
HETATM    5  C   UNL     1      27.924  39.950  50.336  1.00  0.00     0.002 A 
HETATM    6  C   UNL     1      26.860  40.570  49.703  1.00  0.00     0.001 A 
HETATM    7  C   UNL     1      26.365  41.768  50.214  1.00  0.00     0.015 A 
HETATM    8  N   UNL     1      28.677  42.266  53.032  1.00  0.00    -0.248 NA
HETATM    9  C   UNL     1      28.297  43.456  53.558  1.00  0.00     0.068 A 
HETATM   10  C   UNL     1      27.186  44.122  53.067  1.00  0.00     0.050 A 
ENDROOT
BRANCH   1  11
HETATM   11  C   UNL     1      25.283  44.322  51.525  1.00  0.00     0.257 C 
HETATM   12  N   UNL     1      25.413  44.876  50.271  1.00  0.00    -0.322 N 
HETATM   13  H   UNL     1      26.125  44.449  49.688  1.00  0.00     0.169 HD
HETATM   14  O   UNL     1      24.283  44.321  52.230  1.00  0.00    -0.267 OA
BRANCH  12  15
HETATM   15  C   UNL     1      24.703  45.944  49.668  1.00  0.00     0.043 A 
HETATM   16  C   UNL     1      23.389  45.902  49.170  1.00  0.00    -0.032 A 
HETATM   17  C   UNL     1      22.509  44.683  49.139  1.00  0.00     0.050 C 
HETATM   18  C   UNL     1      22.807  47.094  48.686  1.00  0.00     0.048 A 
HETATM   19  C   UNL     1      23.478  48.319  48.739  1.00  0.00     0.102 A 
HETATM   20  C   UNL     1      24.788  48.362  49.227  1.00  0.00     0.103 A 
HETATM   21  C   UNL     1      25.381  47.182  49.693  1.00  0.00     0.069 A 
BRANCH  19  22
HETATM   22  O   UNL     1      22.934  49.506  48.313  1.00  0.00    -0.353 OA
HETATM   23  C   UNL     1      21.919  50.065  49.138  1.00  0.00     0.210 C 
ENDBRANCH  19  22
BRANCH  20  24
HETATM   24  O   UNL     1      25.385  49.597  49.249  1.00  0.00    -0.353 OA
HETATM   25  C   UNL     1      26.567  49.773  48.482  1.00  0.00     0.210 C 
ENDBRANCH  20  24
ENDBRANCH  12  15
ENDBRANCH   1  11
BRANCH   9  26
HETATM   26  C   UNL     1      29.169  43.980  54.639  1.00  0.00    -0.007 A 
HETATM   27  C   UNL     1      28.871  45.211  55.261  1.00  0.00     0.014 A 
HETATM   28  C   UNL     1      29.654  45.725  56.300  1.00  0.00     0.001 A 
HETATM   29  C   UNL     1      30.765  45.019  56.746  1.00  0.00     0.000 A 
HETATM   30  C   UNL     1      31.092  43.805  56.148  1.00  0.00     0.001 A 
HETATM   31  C   UNL     1      30.306  43.295  55.107  1.00  0.00     0.014 A 
ENDBRANCH   9  26
TORSDOF 5
ENDMDL
MODEL 3
REMARK VINA RESULT:      -9.7      3.628      7.221
REMARK  5 active torsions:
REMARK  status: ('A' for Active; 'I' for Inactive)
REMARK    1  A    between atoms: C_3  and  N_4 
REMARK       I    between atoms: N_4  and  C_5 
REMARK    2  A    between atoms: C_5  and  C_6 
REMARK    3  A    between atoms: C_14  and  C_15 
REMARK    4  A    between atoms: C_24  and  O_25 
REMARK    5  A    between atoms: C_27  and  O_28 
ROOT
HETATM    1  C   UNL     1      27.351  42.490  51.944  1.00  0.00     0.047 A 
HETATM    2  C   UNL     1      26.464  43.561  51.668  1.00  0.00     0.008 A 
HETATM    3  C   UNL     1      26.692  44.744  52.392  1.00  0.00     0.068 A 
HETATM    4  C   UNL     1      25.889  45.850  52.155  1.00  0.00     0.032 A 
HETATM    5  C   UNL     1      24.836  45.820  51.238  1.00  0.00     0.002 A 
HETATM    6  C   UNL     1      24.565  44.650  50.549  1.00  0.00     0.001 A 
HETATM    7  C   UNL     1      25.363  43.529  50.766  1.00  0.00     0.015 A 
HETATM    8  N   UNL     1      27.646  44.854  53.329  1.00  0.00    -0.248 NA
HETATM    9  C   UNL     1      28.433  43.795  53.643  1.00  0.00     0.068 A 
HETATM   10  C   UNL     1      28.315  42.600  52.952  1.00  0.00     0.050 A 
ENDROOT
BRANCH   1  11
HETATM   11  C   UNL     1      27.285  41.183  51.231  1.00  0.00     0.257 C 
HETATM   12  N   UNL     1      28.446  40.819  50.586  1.00  0.00    -0.322 N 
HETATM   13  H   UNL     1      29.284  41.278  50.927  1.00  0.00     0.169 HD
HETATM   14  O   UNL     1      26.265  40.516  51.343  1.00  0.00    -0.267 OA
BRANCH  12  15
HETATM   15  C   UNL     1      28.652  39.901  49.527  1.00  0.00     0.043 A 
HETATM   16  C   UNL     1      29.271  38.641  49.617  1.00  0.00    -0.032 A 
HETATM   17  C   UNL     1      29.882  38.059  50.861  1.00  0.00     0.050 C 
HETATM   18  C   UNL     1      29.304  37.817  48.470  1.00  0.00     0.048 A 
HETATM   19  C   UNL     1      28.694  38.193  47.271  1.00  0.00     0.102 A 
HETATM   20  C   UNL     1      28.084  39.449  47.177  1.00  0.00     0.103 A 
HETATM   21  C   UNL     1      28.061  40.282  48.303  1.00  0.00     0.069 A 
BRANCH  19  22
HETATM   22  O   UNL     1      28.672  37.407  46.146  1.00  0.00    -0.353 OA
HETATM   23  C   UNL     1      27.806  36.278  46.183  1.00  0.00     0.210 C 
ENDBRANCH  19  22
BRANCH  20  24
HETATM   24  O   UNL     1      27.507  39.753  45.970  1.00  0.00    -0.353 OA
HETATM   25  C   UNL     1      28.000  40.883  45.267  1.00  0.00     0.210 C 
ENDBRANCH  20  24
ENDBRANCH  12  15
ENDBRANCH   1  11
BRANCH   9  26
HETATM   26  C   UNL     1      29.367  44.012  54.776  1.00  0.00    -0.007 A 
HETATM   27  C   UNL     1      29.306  45.200  55.533  1.00  0.00     0.014 A 
HETATM   28  C   UNL     1      30.152  45.429  56.623  1.00  0.00     0.001 A 
HETATM   29  C   UNL     1      31.089  44.470  56.986  1.00  0.00     0.000 A 
HETATM   30  C   UNL     1      31.181  43.289  56.257  1.00  0.00     0.001 A 
HETATM   31  C   UNL     1      30.333  43.065  55.164  1.00  0.00     0.014 A 
ENDBRANCH   9  26
TORSDOF 5
ENDMDL
MODEL 4
REMARK VINA RESULT:      -9.4      1.805      2.577
REMARK  5 active torsions:
REMARK  status: ('A' for Active; 'I' for Inactive)
REMARK    1  A    between atoms: C_3  and  N_4 
REMARK       I    between atoms: N_4  and  C_5 
REMARK    2  A    between atoms: C_5  and  C_6 
REMARK    3  A    between atoms: C_14  and  C_15 
REMARK    4  A    between atoms: C_24  and  O_25 
REMARK    5  A    between atoms: C_27  and  O_28 
ROOT
HETATM    1  C   UNL     1      27.461  43.685  51.198  1.00  0.00     0.047 A 
HETATM    2  C   UNL     1      27.702  42.340  50.825  1.00  0.00     0.008 A 
HETATM    3  C   UNL     1      28.413  41.566  51.759  1.00  0.00     0.068 A 
HETATM    4  C   UNL     1      28.659  40.228  51.484  1.00  0.00     0.032 A 
HETATM    5  C   UNL     1      28.251  39.627  50.293  1.00  0.00     0.002 A 
HETATM    6  C   UNL     1      27.591  40.384  49.339  1.00  0.00     0.001 A 
HETATM    7  C   UNL     1      27.325  41.728  49.596  1.00  0.00     0.015 A 
HETATM    8  N   UNL     1      28.890  42.066  52.909  1.00  0.00    -0.248 NA
HETATM    9  C   UNL     1      28.725  43.376  53.214  1.00  0.00     0.068 A 
HETATM   10  C   UNL     1      27.998  44.209  52.379  1.00  0.00     0.050 A 
ENDROOT
BRANCH   1  11
HETATM   11  C   UNL     1      26.678  44.630  50.350  1.00  0.00     0.257 C 
HETATM   12  N   UNL     1      25.348  44.742  50.689  1.00  0.00    -0.322 N 
HETATM   13  H   UNL     1      25.124  44.455  51.636  1.00  0.00     0.169 HD
HETATM   14  O   UNL     1      27.279  45.277  49.503  1.00  0.00    -0.267 OA
BRANCH  12  15
HETATM   15  C   UNL     1      24.247  45.200  49.923  1.00  0.00     0.043 A 
HETATM   16  C   UNL     1      23.960  46.533  49.582  1.00  0.00    -0.032 A 
HETATM   17  C   UNL     1      24.752  47.734  50.021  1.00  0.00     0.050 C 
HETATM   18  C   UNL     1      22.867  46.796  48.727  1.00  0.00     0.048 A 
HETATM   19  C   UNL     1      22.100  45.768  48.171  1.00  0.00     0.102 A 
HETATM   20  C   UNL     1      22.379  44.442  48.515  1.00  0.00     0.103 A 
HETATM   21  C   UNL     1      23.451  44.172  49.376  1.00  0.00     0.069 A 
BRANCH  19  22
HETATM   22  O   UNL     1      21.052  45.979  47.309  1.00  0.00    -0.353 OA
HETATM   23  C   UNL     1      20.520  47.298  47.275  1.00  0.00     0.210 C 
ENDBRANCH  19  22
BRANCH  20  24
HETATM   24  O   UNL     1      21.586  43.485  47.933  1.00  0.00    -0.353 OA
HETATM   25  C   UNL     1      22.176  42.644  46.953  1.00  0.00     0.210 C 
ENDBRANCH  20  24
ENDBRANCH  12  15
ENDBRANCH   1  11
BRANCH   9  26
HETATM   26  C   UNL     1      29.401  43.829  54.456  1.00  0.00    -0.007 A 
HETATM   27  C   UNL     1      30.422  43.049  55.037  1.00  0.00     0.014 A 
HETATM   28  C   UNL     1      31.099  43.454  56.191  1.00  0.00     0.001 A 
HETATM   29  C   UNL     1      30.770  44.659  56.801  1.00  0.00     0.000 A 
HETATM   30  C   UNL     1      29.762  45.450  56.258  1.00  0.00     0.001 A 
HETATM   31  C   UNL     1      29.085  45.039  55.103  1.00  0.00     0.014 A 
ENDBRANCH   9  26
TORSDOF 5
ENDMDL
MODEL 5
REMARK VINA RESULT:      -9.2      1.542      4.885
REMARK  5 active torsions:
REMARK  status: ('A' for Active; 'I' for Inactive)
REMARK    1  A    between atoms: C_3  and  N_4 
REMARK       I    between atoms: N_4  and  C_5 
REMARK    2  A    between atoms: C_5  and  C_6 
REMARK    3  A    between atoms: C_14  and  C_15 
REMARK    4  A    between atoms: C_24  and  O_25 
REMARK    5  A    between atoms: C_27  and  O_28 
ROOT
HETATM    1  C   UNL     1      26.741  43.349  51.840  1.00  0.00     0.047 A 
HETATM    2  C   UNL     1      27.550  43.740  52.937  1.00  0.00     0.008 A 
HETATM    3  C   UNL     1      28.715  42.980  53.136  1.00  0.00     0.068 A 
HETATM    4  C   UNL     1      29.579  43.321  54.168  1.00  0.00     0.032 A 
HETATM    5  C   UNL     1      29.315  44.380  55.038  1.00  0.00     0.002 A 
HETATM    6  C   UNL     1      28.149  45.112  54.887  1.00  0.00     0.001 A 
HETATM    7  C   UNL     1      27.270  44.792  53.854  1.00  0.00     0.015 A 
HETATM    8  N   UNL     1      29.029  41.914  52.385  1.00  0.00    -0.248 NA
HETATM    9  C   UNL     1      28.203  41.500  51.393  1.00  0.00     0.068 A 
HETATM   10  C   UNL     1      27.054  42.211  51.089  1.00  0.00     0.050 A 
ENDROOT
BRANCH   1  11
HETATM   11  C   UNL     1      25.498  44.077  51.454  1.00  0.00     0.257 C 
HETATM   12  N   UNL     1      25.527  44.638  50.196  1.00  0.00    -0.322 N 
HETATM   13  H   UNL     1      26.209  44.233  49.564  1.00  0.00     0.169 HD
HETATM   14  O   UNL     1      24.548  44.046  52.224  1.00  0.00    -0.267 OA
BRANCH  12  15
HETATM   15  C   UNL     1      24.749  45.688  49.648  1.00  0.00     0.043 A 
HETATM   16  C   UNL     1      23.429  45.593  49.173  1.00  0.00    -0.032 A 
HETATM   17  C   UNL     1      22.615  44.331  49.110  1.00  0.00     0.050 C 
HETATM   18  C   UNL     1      22.774  46.770  48.747  1.00  0.00     0.048 A 
HETATM   19  C   UNL     1      23.380  48.027  48.835  1.00  0.00     0.102 A 
HETATM   20  C   UNL     1      24.695  48.122  49.301  1.00  0.00     0.103 A 
HETATM   21  C   UNL     1      25.360  46.959  49.709  1.00  0.00     0.069 A 
BRANCH  19  22
HETATM   22  O   UNL     1      22.765  49.198  48.465  1.00  0.00    -0.353 OA
HETATM   23  C   UNL     1      21.707  49.646  49.305  1.00  0.00     0.210 C 
ENDBRANCH  19  22
BRANCH  20  24
HETATM   24  O   UNL     1      25.226  49.386  49.360  1.00  0.00    -0.353 OA
HETATM   25  C   UNL     1      26.281  49.702  48.463  1.00  0.00     0.210 C 
ENDBRANCH  20  24
ENDBRANCH  12  15
ENDBRANCH   1  11
BRANCH   9  26
HETATM   26  C   UNL     1      28.604  40.241  50.716  1.00  0.00    -0.007 A 
HETATM   27  C   UNL     1      29.362  39.271  51.404  1.00  0.00     0.014 A 
HETATM   28  C   UNL     1      29.738  38.063  50.809  1.00  0.00     0.001 A 
HETATM   29  C   UNL     1      29.365  37.791  49.498  1.00  0.00     0.000 A 
HETATM   30  C   UNL     1      28.623  38.729  48.787  1.00  0.00     0.001 A 
HETATM   31  C   UNL     1      28.251  39.939  49.387  1.00  0.00     0.014 A 
ENDBRANCH   9  26
TORSDOF 5
ENDMDL
MODEL 6
REMARK VINA RESULT:      -9.2      2.535      3.988
REMARK  5 active torsions:
REMARK  status: ('A' for Active; 'I' for Inactive)
REMARK    1  A    between atoms: C_3  and  N_4 
REMARK       I    between atoms: N_4  and  C_5 
REMARK    2  A    between atoms: C_5  and  C_6 
REMARK    3  A    between atoms: C_14  and  C_15 
REMARK    4  A    between atoms: C_24  and  O_25 
REMARK    5  A    between atoms: C_27  and  O_28 
ROOT
HETATM    1  C   UNL     1      24.499  46.620  50.404  1.00  0.00     0.047 A 
HETATM    2  C   UNL     1      24.215  45.271  50.073  1.00  0.00     0.008 A 
HETATM    3  C   UNL     1      24.693  44.308  50.978  1.00  0.00     0.068 A 
HETATM    4  C   UNL     1      24.427  42.966  50.744  1.00  0.00     0.032 A 
HETATM    5  C   UNL     1      23.722  42.534  49.620  1.00  0.00     0.002 A 
HETATM    6  C   UNL     1      23.283  43.463  48.692  1.00  0.00     0.001 A 
HETATM    7  C   UNL     1      23.533  44.817  48.909  1.00  0.00     0.015 A 
HETATM    8  N   UNL     1      25.423  44.621  52.060  1.00  0.00    -0.248 NA
HETATM    9  C   UNL     1      25.759  45.909  52.318  1.00  0.00     0.068 A 
HETATM   10  C   UNL     1      25.296  46.934  51.510  1.00  0.00     0.050 A 
ENDROOT
BRANCH   1  11
HETATM   11  C   UNL     1      24.022  47.770  49.583  1.00  0.00     0.257 C 
HETATM   12  N   UNL     1      22.717  48.141  49.815  1.00  0.00    -0.322 N 
HETATM   13  H   UNL     1      22.341  47.842  50.708  1.00  0.00     0.169 HD
HETATM   14  O   UNL     1      24.829  48.331  48.854  1.00  0.00    -0.267 OA
BRANCH  12  15
HETATM   15  C   UNL     1      21.820  48.880  49.003  1.00  0.00     0.043 A 
HETATM   16  C   UNL     1      21.900  50.250  48.698  1.00  0.00    -0.032 A 
HETATM   17  C   UNL     1      22.935  51.201  49.231  1.00  0.00     0.050 C 
HETATM   18  C   UNL     1      20.968  50.800  47.789  1.00  0.00     0.048 A 
HETATM   19  C   UNL     1      20.008  50.012  47.148  1.00  0.00     0.102 A 
HETATM   20  C   UNL     1      19.923  48.650  47.456  1.00  0.00     0.103 A 
HETATM   21  C   UNL     1      20.831  48.099  48.368  1.00  0.00     0.069 A 
BRANCH  19  22
HETATM   22  O   UNL     1      19.108  50.500  46.233  1.00  0.00    -0.353 OA
HETATM   23  C   UNL     1      18.109  51.378  46.739  1.00  0.00     0.210 C 
ENDBRANCH  19  22
BRANCH  20  24
HETATM   24  O   UNL     1      18.957  47.939  46.789  1.00  0.00    -0.353 OA
HETATM   25  C   UNL     1      18.884  46.541  47.026  1.00  0.00     0.210 C 
ENDBRANCH  20  24
ENDBRANCH  12  15
ENDBRANCH   1  11
BRANCH   9  26
HETATM   26  C   UNL     1      26.666  46.108  53.477  1.00  0.00    -0.007 A 
HETATM   27  C   UNL     1      27.438  45.037  53.970  1.00  0.00     0.014 A 
HETATM   28  C   UNL     1      28.322  45.192  55.043  1.00  0.00     0.001 A 
HETATM   29  C   UNL     1      28.456  46.431  55.656  1.00  0.00     0.000 A 
HETATM   30  C   UNL     1      27.703  47.509  55.199  1.00  0.00     0.001 A 
HETATM   31  C   UNL     1      26.817  47.348  54.126  1.00  0.00     0.014 A 
ENDBRANCH   9  26
TORSDOF 5
ENDMDL
MODEL 7
REMARK VINA RESULT:      -9.1      1.537      4.664
REMARK  5 active torsions:
REMARK  status: ('A' for Active; 'I' for Inactive)
REMARK    1  A    between atoms: C_3  and  N_4 
REMARK       I    between atoms: N_4  and  C_5 
REMARK    2  A    between atoms: C_5  and  C_6 
REMARK    3  A    between atoms: C_14  and  C_15 
REMARK    4  A    between atoms: C_24  and  O_25 
REMARK    5  A    between atoms: C_27  and  O_28 
ROOT
HETATM    1  C   UNL     1      26.860  43.208  52.074  1.00  0.00     0.047 A 
HETATM    2  C   UNL     1      27.772  43.544  53.106  1.00  0.00     0.008 A 
HETATM    3  C   UNL     1      28.935  42.757  53.172  1.00  0.00     0.068 A 
HETATM    4  C   UNL     1      29.895  43.045  54.132  1.00  0.00     0.032 A 
HETATM    5  C   UNL     1      29.733  44.076  55.058  1.00  0.00     0.002 A 
HETATM    6  C   UNL     1      28.573  44.833  55.040  1.00  0.00     0.001 A 
HETATM    7  C   UNL     1      27.598  44.567  54.080  1.00  0.00     0.015 A 
HETATM    8  N   UNL     1      29.158  41.714  52.358  1.00  0.00    -0.248 NA
HETATM    9  C   UNL     1      28.237  41.351  51.431  1.00  0.00     0.068 A 
HETATM   10  C   UNL     1      27.080  42.093  51.258  1.00  0.00     0.050 A 
ENDROOT
BRANCH   1  11
HETATM   11  C   UNL     1      25.603  43.971  51.828  1.00  0.00     0.257 C 
HETATM   12  N   UNL     1      25.512  44.544  50.579  1.00  0.00    -0.322 N 
HETATM   13  H   UNL     1      26.112  44.127  49.874  1.00  0.00     0.169 HD
HETATM   14  O   UNL     1      24.740  43.956  52.695  1.00  0.00    -0.267 OA
BRANCH  12  15
HETATM   15  C   UNL     1      24.708  45.618  50.124  1.00  0.00     0.043 A 
HETATM   16  C   UNL     1      24.982  46.990  50.266  1.00  0.00    -0.032 A 
HETATM   17  C   UNL     1      26.168  47.570  50.985  1.00  0.00     0.050 C 
HETATM   18  C   UNL     1      24.110  47.923  49.663  1.00  0.00     0.048 A 
HETATM   19  C   UNL     1      23.018  47.522  48.888  1.00  0.00     0.102 A 
HETATM   20  C   UNL     1      22.740  46.158  48.752  1.00  0.00     0.103 A 
HETATM   21  C   UNL     1      23.588  45.225  49.360  1.00  0.00     0.069 A 
BRANCH  19  22
HETATM   22  O   UNL     1      22.168  48.396  48.257  1.00  0.00    -0.353 OA
HETATM   23  C   UNL     1      22.056  49.692  48.833  1.00  0.00     0.210 C 
ENDBRANCH  19  22
BRANCH  20  24
HETATM   24  O   UNL     1      21.653  45.837  47.978  1.00  0.00    -0.353 OA
HETATM   25  C   UNL     1      20.551  45.207  48.615  1.00  0.00     0.210 C 
ENDBRANCH  20  24
ENDBRANCH  12  15
ENDBRANCH   1  11
BRANCH   9  26
HETATM   26  C   UNL     1      28.550  40.111  50.677  1.00  0.00    -0.007 A 
HETATM   27  C   UNL     1      29.374  39.119  51.247  1.00  0.00     0.014 A 
HETATM   28  C   UNL     1      29.670  37.927  50.578  1.00  0.00     0.001 A 
HETATM   29  C   UNL     1      29.149  37.696  49.311  1.00  0.00     0.000 A 
HETATM   30  C   UNL     1      28.339  38.658  48.715  1.00  0.00     0.001 A 
HETATM   31  C   UNL     1      28.047  39.851  49.388  1.00  0.00     0.014 A 
ENDBRANCH   9  26
TORSDOF 5
ENDMDL
MODEL 8
REMARK VINA RESULT:      -8.6      2.570      4.289
REMARK  5 active torsions:
REMARK  status: ('A' for Active; 'I' for Inactive)
REMARK    1  A    between atoms: C_3  and  N_4 
REMARK       I    between atoms: N_4  and  C_5 
REMARK    2  A    between atoms: C_5  and  C_6 
REMARK    3  A    between atoms: C_14  and  C_15 
REMARK    4  A    between atoms: C_24  and  O_25 
REMARK    5  A    between atoms: C_27  and  O_28 
ROOT
HETATM    1  C   UNL     1      24.378  46.422  50.190  1.00  0.00     0.047 A 
HETATM    2  C   UNL     1      24.452  45.066  49.787  1.00  0.00     0.008 A 
HETATM    3  C   UNL     1      25.100  44.197  50.682  1.00  0.00     0.068 A 
HETATM    4  C   UNL     1      25.182  42.846  50.377  1.00  0.00     0.032 A 
HETATM    5  C   UNL     1      24.668  42.320  49.191  1.00  0.00     0.002 A 
HETATM    6  C   UNL     1      24.067  43.166  48.273  1.00  0.00     0.001 A 
HETATM    7  C   UNL     1      23.967  44.526  48.562  1.00  0.00     0.015 A 
HETATM    8  N   UNL     1      25.669  44.616  51.822  1.00  0.00    -0.248 NA
HETATM    9  C   UNL     1      25.665  45.930  52.155  1.00  0.00     0.068 A 
HETATM   10  C   UNL     1      25.012  46.857  51.360  1.00  0.00     0.050 A 
ENDROOT
BRANCH   1  11
HETATM   11  C   UNL     1      23.682  47.468  49.387  1.00  0.00     0.257 C 
HETATM   12  N   UNL     1      22.307  47.426  49.456  1.00  0.00    -0.322 N 
HETATM   13  H   UNL     1      21.936  46.942  50.266  1.00  0.00     0.169 HD
HETATM   14  O   UNL     1      24.365  48.307  48.816  1.00  0.00    -0.267 OA
BRANCH  12  15
HETATM   15  C   UNL     1      21.333  47.959  48.575  1.00  0.00     0.043 A 
HETATM   16  C   UNL     1      20.915  47.404  47.353  1.00  0.00    -0.032 A 
HETATM   17  C   UNL     1      21.474  46.157  46.726  1.00  0.00     0.050 C 
HETATM   18  C   UNL     1      19.859  48.026  46.650  1.00  0.00     0.048 A 
HETATM   19  C   UNL     1      19.186  49.140  47.160  1.00  0.00     0.102 A 
HETATM   20  C   UNL     1      19.606  49.697  48.373  1.00  0.00     0.103 A 
HETATM   21  C   UNL     1      20.663  49.098  49.069  1.00  0.00     0.069 A 
BRANCH  19  22
HETATM   22  O   UNL     1      18.133  49.752  46.527  1.00  0.00    -0.353 OA
HETATM   23  C   UNL     1      18.452  50.513  45.368  1.00  0.00     0.210 C 
ENDBRANCH  19  22
BRANCH  20  24
HETATM   24  O   UNL     1      18.901  50.789  48.813  1.00  0.00    -0.353 OA
HETATM   25  C   UNL     1      19.549  52.052  48.778  1.00  0.00     0.210 C 
ENDBRANCH  20  24
ENDBRANCH  12  15
ENDBRANCH   1  11
BRANCH   9  26
HETATM   26  C   UNL     1      26.430  46.278  53.379  1.00  0.00    -0.007 A 
HETATM   27  C   UNL     1      26.172  47.484  54.063  1.00  0.00     0.014 A 
HETATM   28  C   UNL     1      26.853  47.834  55.232  1.00  0.00     0.001 A 
HETATM   29  C   UNL     1      27.820  46.983  55.752  1.00  0.00     0.000 A 
HETATM   30  C   UNL     1      28.106  45.788  55.099  1.00  0.00     0.001 A 
HETATM   31  C   UNL     1      27.423  45.442  53.926  1.00  0.00     0.014 A 
ENDBRANCH   9  26
TORSDOF 5
ENDMDL
MODEL 9
REMARK VINA RESULT:      -8.2      3.120      7.217
REMARK  5 active torsions:
REMARK  status: ('A' for Active; 'I' for Inactive)
REMARK    1  A    between atoms: C_3  and  N_4 
REMARK       I    between atoms: N_4  and  C_5 
REMARK    2  A    between atoms: C_5  and  C_6 
REMARK    3  A    between atoms: C_14  and  C_15 
REMARK    4  A    between atoms: C_24  and  O_25 
REMARK    5  A    between atoms: C_27  and  O_28 
ROOT
HETATM    1  C   UNL     1      24.635  44.508  50.892  1.00  0.00     0.047 A 
HETATM    2  C   UNL     1      24.095  45.573  50.130  1.00  0.00     0.008 A 
HETATM    3  C   UNL     1      24.463  46.866  50.542  1.00  0.00     0.068 A 
HETATM    4  C   UNL     1      24.005  47.962  49.826  1.00  0.00     0.032 A 
HETATM    5  C   UNL     1      23.162  47.828  48.722  1.00  0.00     0.002 A 
HETATM    6  C   UNL     1      22.750  46.567  48.328  1.00  0.00     0.001 A 
HETATM    7  C   UNL     1      23.204  45.450  49.027  1.00  0.00     0.015 A 
HETATM    8  N   UNL     1      25.227  47.098  51.620  1.00  0.00    -0.248 NA
HETATM    9  C   UNL     1      25.667  46.073  52.390  1.00  0.00     0.068 A 
HETATM   10  C   UNL     1      25.396  44.761  52.039  1.00  0.00     0.050 A 
ENDROOT
BRANCH   1  11
HETATM   11  C   UNL     1      24.391  43.074  50.563  1.00  0.00     0.257 C 
HETATM   12  N   UNL     1      25.487  42.401  50.071  1.00  0.00    -0.322 N 
HETATM   13  H   UNL     1      26.382  42.824  50.294  1.00  0.00     0.169 HD
HETATM   14  O   UNL     1      23.294  42.600  50.828  1.00  0.00    -0.267 OA
BRANCH  12  15
HETATM   15  C   UNL     1      25.559  41.209  49.309  1.00  0.00     0.043 A 
HETATM   16  C   UNL     1      24.977  40.982  48.049  1.00  0.00    -0.032 A 
HETATM   17  C   UNL     1      24.116  41.961  47.300  1.00  0.00     0.050 C 
HETATM   18  C   UNL     1      25.234  39.758  47.392  1.00  0.00     0.048 A 
HETATM   19  C   UNL     1      26.091  38.795  47.931  1.00  0.00     0.102 A 
HETATM   20  C   UNL     1      26.665  39.015  49.188  1.00  0.00     0.103 A 
HETATM   21  C   UNL     1      26.402  40.218  49.856  1.00  0.00     0.069 A 
BRANCH  19  22
HETATM   22  O   UNL     1      26.395  37.610  47.309  1.00  0.00    -0.353 OA
HETATM   23  C   UNL     1      27.208  37.700  46.145  1.00  0.00     0.210 C 
ENDBRANCH  19  22
BRANCH  20  24
HETATM   24  O   UNL     1      27.494  38.027  49.656  1.00  0.00    -0.353 OA
HETATM   25  C   UNL     1      28.869  38.341  49.822  1.00  0.00     0.210 C 
ENDBRANCH  20  24
ENDBRANCH  12  15
ENDBRANCH   1  11
BRANCH   9  26
HETATM   26  C   UNL     1      26.402  46.470  53.618  1.00  0.00    -0.007 A 
HETATM   27  C   UNL     1      26.104  47.687  54.265  1.00  0.00     0.014 A 
HETATM   28  C   UNL     1      26.756  48.083  55.437  1.00  0.00     0.001 A 
HETATM   29  C   UNL     1      27.733  47.268  55.995  1.00  0.00     0.000 A 
HETATM   30  C   UNL     1      28.058  46.064  55.378  1.00  0.00     0.001 A 
HETATM   31  C   UNL     1      27.403  45.672  54.204  1.00  0.00     0.014 A 
ENDBRANCH   9  26
TORSDOF 5
ENDMDL
MODEL 10
REMARK VINA RESULT:      -8.2      3.082      5.433
REMARK  5 active torsions:
REMARK  status: ('A' for Active; 'I' for Inactive)
REMARK    1  A    between atoms: C_3  and  N_4 
REMARK       I    between atoms: N_4  and  C_5 
REMARK    2  A    between atoms: C_5  and  C_6 
REMARK    3  A    between atoms: C_14  and  C_15 
REMARK    4  A    between atoms: C_24  and  O_25 
REMARK    5  A    between atoms: C_27  and  O_28 
ROOT
HETATM    1  C   UNL     1      23.211  46.388  48.921  1.00  0.00     0.047 A 
HETATM    2  C   UNL     1      22.839  45.232  48.191  1.00  0.00     0.008 A 
HETATM    3  C   UNL     1      23.419  44.026  48.622  1.00  0.00     0.068 A 
HETATM    4  C   UNL     1      23.078  42.843  47.982  1.00  0.00     0.032 A 
HETATM    5  C   UNL     1      22.198  42.811  46.899  1.00  0.00     0.002 A 
HETATM    6  C   UNL     1      21.653  43.994  46.429  1.00  0.00     0.001 A 
HETATM    7  C   UNL     1      21.974  45.194  47.061  1.00  0.00     0.015 A 
HETATM    8  N   UNL     1      24.313  43.961  49.621  1.00  0.00    -0.248 NA
HETATM    9  C   UNL     1      24.724  45.087  50.254  1.00  0.00     0.068 A 
HETATM   10  C   UNL     1      24.176  46.318  49.932  1.00  0.00     0.050 A 
ENDROOT
BRANCH   1  11
HETATM   11  C   UNL     1      22.652  47.740  48.632  1.00  0.00     0.257 C 
HETATM   12  N   UNL     1      21.704  48.175  49.532  1.00  0.00    -0.322 N 
HETATM   13  H   UNL     1      21.732  47.715  50.436  1.00  0.00     0.169 HD
HETATM   14  O   UNL     1      23.125  48.372  47.698  1.00  0.00    -0.267 OA
BRANCH  12  15
HETATM   15  C   UNL     1      20.704  49.169  49.394  1.00  0.00     0.043 A 
HETATM   16  C   UNL     1      20.903  50.560  49.351  1.00  0.00    -0.032 A 
HETATM   17  C   UNL     1      22.229  51.254  49.502  1.00  0.00     0.050 C 
HETATM   18  C   UNL     1      19.793  51.399  49.112  1.00  0.00     0.048 A 
HETATM   19  C   UNL     1      18.517  50.885  48.863  1.00  0.00     0.102 A 
HETATM   20  C   UNL     1      18.315  49.502  48.912  1.00  0.00     0.103 A 
HETATM   21  C   UNL     1      19.407  48.662  49.166  1.00  0.00     0.069 A 
BRANCH  19  22
HETATM   22  O   UNL     1      17.420  51.664  48.591  1.00  0.00    -0.353 OA
HETATM   23  C   UNL     1      17.089  52.648  49.564  1.00  0.00     0.210 C 
ENDBRANCH  19  22
BRANCH  20  24
HETATM   24  O   UNL     1      17.038  49.067  48.659  1.00  0.00    -0.353 OA
HETATM   25  C   UNL     1      16.792  47.670  48.716  1.00  0.00     0.210 C 
ENDBRANCH  20  24
ENDBRANCH  12  15
ENDBRANCH   1  11
BRANCH   9  26
HETATM   26  C   UNL     1      25.801  44.894  51.257  1.00  0.00    -0.007 A 
HETATM   27  C   UNL     1      25.757  45.576  52.491  1.00  0.00     0.014 A 
HETATM   28  C   UNL     1      26.740  45.401  53.470  1.00  0.00     0.001 A 
HETATM   29  C   UNL     1      27.802  44.535  53.240  1.00  0.00     0.000 A 
HETATM   30  C   UNL     1      27.880  43.852  52.030  1.00  0.00     0.001 A 
HETATM   31  C   UNL     1      26.895  44.032  51.051  1.00  0.00     0.014 A 
ENDBRANCH   9  26
TORSDOF 5
ENDMDL
