MODEL 1
REMARK VINA RESULT:      -9.3      0.000      0.000
REMARK  7 active torsions:
REMARK  status: ('A' for Active; 'I' for Inactive)
REMARK    1  A    between atoms: CG_4  and  CB_5 
REMARK    2  A    between atoms: CB_5  and  CA_6 
REMARK    3  A    between atoms: CA_6  and  N_7 
REMARK    4  A    between atoms: CA_6  and  C_8 
REMARK       I    between atoms: N_7  and  C_14 
REMARK    5  A    between atoms: C_8  and  O_9 
REMARK       I    between atoms: C_14  and  N_15 
REMARK    6  A    between atoms: N_15  and  C_16 
REMARK    7  A    between atoms: C_22  and  C_23 
ROOT
ATOM      1  N   PHE A   1      24.326  44.985  51.432  1.00  0.00    -0.336 N 
ATOM      2  H   PHE A   1      23.429  44.523  51.535  1.00  0.00     0.164 HD
HETATM    3  C   UNK A   0      25.110  44.794  52.531  1.00  0.00     0.321 C 
HETATM    4  N   UNK A   0      26.392  45.260  52.437  1.00  0.00    -0.309 N 
HETATM    5  O   UNK A   0      24.605  44.233  53.496  1.00  0.00    -0.247 OA
HETATM    6  H   UNK A   0      26.741  45.422  51.507  1.00  0.00     0.170 HD
ENDROOT
BRANCH   1   7
ATOM      7  CA  PHE A   1      24.621  45.633  50.155  1.00  0.00     0.113 C 
BRANCH   7   8
ATOM      8  CB  PHE A   1      24.190  47.119  50.143  1.00  0.00     0.065 C 
BRANCH   8   9
ATOM      9  CG  PHE A   1      25.186  48.094  49.555  1.00  0.00    -0.056 A 
ATOM     10  CD1 PHE A   1      26.557  47.941  49.806  1.00  0.00     0.007 A 
ATOM     11  CE1 PHE A   1      27.481  48.844  49.278  1.00  0.00     0.001 A 
ATOM     12  CZ  PHE A   1      27.045  49.904  48.486  1.00  0.00     0.000 A 
ATOM     13  CE2 PHE A   1      25.687  50.056  48.217  1.00  0.00     0.001 A 
ATOM     14  CD2 PHE A   1      24.762  49.155  48.745  1.00  0.00     0.007 A 
ENDBRANCH   8   9
ENDBRANCH   7   8
BRANCH   7  15
ATOM     15  C   PHE A   1      24.055  44.815  48.980  1.00  0.00     0.189 C 
BRANCH  15  16
ATOM     16  O   PHE A   1      25.025  43.901  48.480  1.00  0.00    -0.399 OA
ATOM     17  H   PHE A   1      24.690  43.547  47.638  1.00  0.00     0.209 HD
ENDBRANCH  15  16
ENDBRANCH   7  15
ENDBRANCH   1   7
BRANCH   4  18
HETATM   18  C   UNK A   0      27.339  45.372  53.478  1.00  0.00     0.038 A 
HETATM   19  C   UNK A   0      28.295  44.387  53.758  1.00  0.00     0.063 A 
HETATM   20  C   UNK A   0      29.162  44.569  54.847  1.00  0.00     0.087 A 
HETATM   21  C   UNK A   0      29.062  45.721  55.616  1.00  0.00     0.063 A 
HETATM   22  N   UNK A   0      30.155  43.747  55.327  1.00  0.00    -0.228 NA
HETATM   23  N   UNK A   0      30.032  45.577  56.574  1.00  0.00    -0.338 N 
HETATM   24  C   UNK A   0      28.131  46.727  55.367  1.00  0.00     0.034 A 
HETATM   25  H   UNK A   0      30.247  46.233  57.313  1.00  0.00     0.167 HD
HETATM   26  C   UNK A   0      30.663  44.373  56.373  1.00  0.00     0.170 A 
HETATM   27  C   UNK A   0      27.266  46.521  54.282  1.00  0.00     0.032 A 
BRANCH  26  28
HETATM   28  C   UNK A   0      31.755  43.924  57.273  1.00  0.00     0.422 C 
HETATM   29  F   UNK A   0      31.640  44.509  58.498  1.00  0.00    -0.206 F 
HETATM   30  F   UNK A   0      31.667  42.584  57.501  1.00  0.00    -0.206 F 
ENDBRANCH  26  28
ENDBRANCH   4  18
TORSDOF 7
ENDMDL
MODEL 2
REMARK VINA RESULT:      -8.9      4.647      8.601
REMARK  7 active torsions:
REMARK  status: ('A' for Active; 'I' for Inactive)
REMARK    1  A    between atoms: CG_4  and  CB_5 
REMARK    2  A    between atoms: CB_5  and  CA_6 
REMARK    3  A    between atoms: CA_6  and  N_7 
REMARK    4  A    between atoms: CA_6  and  C_8 
REMARK       I    between atoms: N_7  and  C_14 
REMARK    5  A    between atoms: C_8  and  O_9 
REMARK       I    between atoms: C_14  and  N_15 
REMARK    6  A    between atoms: N_15  and  C_16 
REMARK    7  A    between atoms: C_22  and  C_23 
ROOT
ATOM      1  N   PHE A   1      26.599  43.259  54.329  1.00  0.00    -0.336 N 
ATOM      2  H   PHE A   1      26.243  43.023  55.249  1.00  0.00     0.164 HD
HETATM    3  C   UNK A   0      25.734  44.071  53.656  1.00  0.00     0.321 C 
HETATM    4  N   UNK A   0      26.181  44.559  52.461  1.00  0.00    -0.309 N 
HETATM    5  O   UNK A   0      24.642  44.285  54.171  1.00  0.00    -0.247 OA
HETATM    6  H   UNK A   0      27.177  44.542  52.316  1.00  0.00     0.170 HD
ENDROOT
BRANCH   1   7
ATOM      7  CA  PHE A   1      27.941  42.799  53.973  1.00  0.00     0.113 C 
BRANCH   7   8
ATOM      8  CB  PHE A   1      28.970  43.954  53.974  1.00  0.00     0.065 C 
BRANCH   8   9
ATOM      9  CG  PHE A   1      29.766  44.132  55.248  1.00  0.00    -0.056 A 
ATOM     10  CD1 PHE A   1      29.575  45.268  56.048  1.00  0.00     0.007 A 
ATOM     11  CE1 PHE A   1      30.315  45.446  57.218  1.00  0.00     0.001 A 
ATOM     12  CZ  PHE A   1      31.246  44.486  57.606  1.00  0.00     0.000 A 
ATOM     13  CE2 PHE A   1      31.432  43.345  56.829  1.00  0.00     0.001 A 
ATOM     14  CD2 PHE A   1      30.695  43.167  55.657  1.00  0.00     0.007 A 
ENDBRANCH   8   9
ENDBRANCH   7   8
BRANCH   7  15
ATOM     15  C   PHE A   1      27.916  41.994  52.662  1.00  0.00     0.189 C 
BRANCH  15  16
ATOM     16  O   PHE A   1      27.252  40.747  52.841  1.00  0.00    -0.399 OA
ATOM     17  H   PHE A   1      27.804  40.057  52.435  1.00  0.00     0.209 HD
ENDBRANCH  15  16
ENDBRANCH   7  15
ENDBRANCH   1   7
BRANCH   4  18
HETATM   18  C   UNK A   0      25.429  45.247  51.483  1.00  0.00     0.038 A 
HETATM   19  C   UNK A   0      25.537  46.625  51.258  1.00  0.00     0.063 A 
HETATM   20  C   UNK A   0      24.710  47.225  50.294  1.00  0.00     0.087 A 
HETATM   21  C   UNK A   0      23.811  46.442  49.581  1.00  0.00     0.063 A 
HETATM   22  N   UNK A   0      24.617  48.543  49.913  1.00  0.00    -0.228 NA
HETATM   23  N   UNK A   0      23.176  47.325  48.747  1.00  0.00    -0.338 N 
HETATM   24  C   UNK A   0      23.678  45.068  49.770  1.00  0.00     0.034 A 
HETATM   25  H   UNK A   0      22.451  47.103  48.080  1.00  0.00     0.167 HD
HETATM   26  C   UNK A   0      23.681  48.581  48.982  1.00  0.00     0.170 A 
HETATM   27  C   UNK A   0      24.505  44.490  50.744  1.00  0.00     0.032 A 
BRANCH  26  28
HETATM   28  C   UNK A   0      23.169  49.761  48.240  1.00  0.00     0.422 C 
HETATM   29  F   UNK A   0      22.610  50.662  49.095  1.00  0.00    -0.206 F 
HETATM   30  F   UNK A   0      24.192  50.424  47.632  1.00  0.00    -0.206 F 
ENDBRANCH  26  28
ENDBRANCH   4  18
TORSDOF 7
ENDMDL
MODEL 3
REMARK VINA RESULT:      -8.5      4.893      7.722
REMARK  7 active torsions:
REMARK  status: ('A' for Active; 'I' for Inactive)
REMARK    1  A    between atoms: CG_4  and  CB_5 
REMARK    2  A    between atoms: CB_5  and  CA_6 
REMARK    3  A    between atoms: CA_6  and  N_7 
REMARK    4  A    between atoms: CA_6  and  C_8 
REMARK       I    between atoms: N_7  and  C_14 
REMARK    5  A    between atoms: C_8  and  O_9 
REMARK       I    between atoms: C_14  and  N_15 
REMARK    6  A    between atoms: N_15  and  C_16 
REMARK    7  A    between atoms: C_22  and  C_23 
ROOT
ATOM      1  N   PHE A   1      26.496  45.884  54.835  1.00  0.00    -0.336 N 
ATOM      2  H   PHE A   1      25.562  46.138  55.139  1.00  0.00     0.164 HD
HETATM    3  C   UNK A   0      26.482  44.743  54.089  1.00  0.00     0.321 C 
HETATM    4  N   UNK A   0      27.671  44.390  53.516  1.00  0.00    -0.309 N 
HETATM    5  O   UNK A   0      25.420  44.136  54.003  1.00  0.00    -0.247 OA
HETATM    6  H   UNK A   0      28.359  45.120  53.429  1.00  0.00     0.170 HD
ENDROOT
BRANCH   1   7
ATOM      7  CA  PHE A   1      27.592  46.801  55.146  1.00  0.00     0.113 C 
BRANCH   7   8
ATOM      8  CB  PHE A   1      28.085  46.643  56.604  1.00  0.00     0.065 C 
BRANCH   8   9
ATOM      9  CG  PHE A   1      29.289  45.749  56.803  1.00  0.00    -0.056 A 
ATOM     10  CD1 PHE A   1      29.791  44.991  55.735  1.00  0.00     0.007 A 
ATOM     11  CE1 PHE A   1      30.893  44.153  55.914  1.00  0.00     0.001 A 
ATOM     12  CZ  PHE A   1      31.511  44.072  57.160  1.00  0.00     0.000 A 
ATOM     13  CE2 PHE A   1      31.032  44.832  58.224  1.00  0.00     0.001 A 
ATOM     14  CD2 PHE A   1      29.929  45.669  58.047  1.00  0.00     0.007 A 
ENDBRANCH   8   9
ENDBRANCH   7   8
BRANCH   7  15
ATOM     15  C   PHE A   1      27.221  48.247  54.773  1.00  0.00     0.189 C 
BRANCH  15  16
ATOM     16  O   PHE A   1      25.901  48.563  55.202  1.00  0.00    -0.399 OA
ATOM     17  H   PHE A   1      25.563  47.802  55.704  1.00  0.00     0.209 HD
ENDBRANCH  15  16
ENDBRANCH   7  15
ENDBRANCH   1   7
BRANCH   4  18
HETATM   18  C   UNK A   0      27.981  43.172  52.872  1.00  0.00     0.038 A 
HETATM   19  C   UNK A   0      27.743  42.938  51.511  1.00  0.00     0.063 A 
HETATM   20  C   UNK A   0      28.041  41.676  50.973  1.00  0.00     0.087 A 
HETATM   21  C   UNK A   0      28.573  40.691  51.796  1.00  0.00     0.063 A 
HETATM   22  N   UNK A   0      27.879  41.205  49.691  1.00  0.00    -0.228 NA
HETATM   23  N   UNK A   0      28.737  39.609  50.970  1.00  0.00    -0.338 N 
HETATM   24  C   UNK A   0      28.831  40.884  53.151  1.00  0.00     0.034 A 
HETATM   25  H   UNK A   0      29.104  38.705  51.232  1.00  0.00     0.167 HD
HETATM   26  C   UNK A   0      28.301  39.954  49.713  1.00  0.00     0.170 A 
HETATM   27  C   UNK A   0      28.515  42.148  53.671  1.00  0.00     0.032 A 
BRANCH  26  28
HETATM   28  C   UNK A   0      28.333  38.975  48.598  1.00  0.00     0.422 C 
HETATM   29  F   UNK A   0      28.359  39.616  47.396  1.00  0.00    -0.206 F 
HETATM   30  F   UNK A   0      29.478  38.238  48.641  1.00  0.00    -0.206 F 
ENDBRANCH  26  28
ENDBRANCH   4  18
TORSDOF 7
ENDMDL
MODEL 4
REMARK VINA RESULT:      -8.3      4.889      8.694
REMARK  7 active torsions:
REMARK  status: ('A' for Active; 'I' for Inactive)
REMARK    1  A    between atoms: CG_4  and  CB_5 
REMARK    2  A    between atoms: CB_5  and  CA_6 
REMARK    3  A    between atoms: CA_6  and  N_7 
REMARK    4  A    between atoms: CA_6  and  C_8 
REMARK       I    between atoms: N_7  and  C_14 
REMARK    5  A    between atoms: C_8  and  O_9 
REMARK       I    between atoms: C_14  and  N_15 
REMARK    6  A    between atoms: N_15  and  C_16 
REMARK    7  A    between atoms: C_22  and  C_23 
ROOT
ATOM      1  N   PHE A   1      26.803  43.088  54.463  1.00  0.00    -0.336 N 
ATOM      2  H   PHE A   1      26.463  42.800  55.374  1.00  0.00     0.164 HD
HETATM    3  C   UNK A   0      25.936  43.950  53.860  1.00  0.00     0.321 C 
HETATM    4  N   UNK A   0      26.365  44.505  52.687  1.00  0.00    -0.309 N 
HETATM    5  O   UNK A   0      24.859  44.148  54.412  1.00  0.00    -0.247 OA
HETATM    6  H   UNK A   0      27.358  44.482  52.519  1.00  0.00     0.170 HD
ENDROOT
BRANCH   1   7
ATOM      7  CA  PHE A   1      28.130  42.631  54.050  1.00  0.00     0.113 C 
BRANCH   7   8
ATOM      8  CB  PHE A   1      29.158  43.787  54.019  1.00  0.00     0.065 C 
BRANCH   8   9
ATOM      9  CG  PHE A   1      29.873  44.073  55.321  1.00  0.00    -0.056 A 
ATOM     10  CD1 PHE A   1      30.809  43.159  55.829  1.00  0.00     0.007 A 
ATOM     11  CE1 PHE A   1      31.462  43.410  57.037  1.00  0.00     0.001 A 
ATOM     12  CZ  PHE A   1      31.195  44.580  57.743  1.00  0.00     0.000 A 
ATOM     13  CE2 PHE A   1      30.281  45.502  57.240  1.00  0.00     0.001 A 
ATOM     14  CD2 PHE A   1      29.625  45.252  56.034  1.00  0.00     0.007 A 
ENDBRANCH   8   9
ENDBRANCH   7   8
BRANCH   7  15
ATOM     15  C   PHE A   1      28.052  41.836  52.734  1.00  0.00     0.189 C 
BRANCH  15  16
ATOM     16  O   PHE A   1      27.204  40.701  52.872  1.00  0.00    -0.399 OA
ATOM     17  H   PHE A   1      27.083  40.537  53.823  1.00  0.00     0.209 HD
ENDBRANCH  15  16
ENDBRANCH   7  15
ENDBRANCH   1   7
BRANCH   4  18
HETATM   18  C   UNK A   0      25.603  45.261  51.769  1.00  0.00     0.038 A 
HETATM   19  C   UNK A   0      24.635  44.699  50.926  1.00  0.00     0.063 A 
HETATM   20  C   UNK A   0      23.963  45.527  50.014  1.00  0.00     0.087 A 
HETATM   21  C   UNK A   0      24.264  46.883  49.970  1.00  0.00     0.063 A 
HETATM   22  N   UNK A   0      23.001  45.212  49.082  1.00  0.00    -0.228 NA
HETATM   23  N   UNK A   0      23.448  47.382  48.988  1.00  0.00    -0.338 N 
HETATM   24  C   UNK A   0      25.214  47.481  50.795  1.00  0.00     0.034 A 
HETATM   25  H   UNK A   0      23.398  48.344  48.681  1.00  0.00     0.167 HD
HETATM   26  C   UNK A   0      22.709  46.345  48.471  1.00  0.00     0.170 A 
HETATM   27  C   UNK A   0      25.882  46.635  51.692  1.00  0.00     0.032 A 
BRANCH  26  28
HETATM   28  C   UNK A   0      21.742  46.573  47.367  1.00  0.00     0.422 C 
HETATM   29  F   UNK A   0      22.129  45.905  46.244  1.00  0.00    -0.206 F 
HETATM   30  F   UNK A   0      20.520  46.065  47.690  1.00  0.00    -0.206 F 
ENDBRANCH  26  28
ENDBRANCH   4  18
TORSDOF 7
ENDMDL
MODEL 5
REMARK VINA RESULT:      -8.0      4.130      5.340
REMARK  7 active torsions:
REMARK  status: ('A' for Active; 'I' for Inactive)
REMARK    1  A    between atoms: CG_4  and  CB_5 
REMARK    2  A    between atoms: CB_5  and  CA_6 
REMARK    3  A    between atoms: CA_6  and  N_7 
REMARK    4  A    between atoms: CA_6  and  C_8 
REMARK       I    between atoms: N_7  and  C_14 
REMARK    5  A    between atoms: C_8  and  O_9 
REMARK       I    between atoms: C_14  and  N_15 
REMARK    6  A    between atoms: N_15  and  C_16 
REMARK    7  A    between atoms: C_22  and  C_23 
ROOT
ATOM      1  N   PHE A   1      24.766  45.701  52.142  1.00  0.00    -0.336 N 
ATOM      2  H   PHE A   1      23.762  45.747  52.282  1.00  0.00     0.164 HD
HETATM    3  C   UNK A   0      25.193  44.412  52.031  1.00  0.00     0.321 C 
HETATM    4  N   UNK A   0      26.510  44.246  51.702  1.00  0.00    -0.309 N 
HETATM    5  O   UNK A   0      24.374  43.524  52.237  1.00  0.00    -0.247 OA
HETATM    6  H   UNK A   0      26.968  45.037  51.282  1.00  0.00     0.170 HD
ENDROOT
BRANCH   1   7
ATOM      7  CA  PHE A   1      25.494  46.960  51.985  1.00  0.00     0.113 C 
BRANCH   7   8
ATOM      8  CB  PHE A   1      26.364  46.974  50.706  1.00  0.00     0.065 C 
BRANCH   8   9
ATOM      9  CG  PHE A   1      26.091  48.097  49.731  1.00  0.00    -0.056 A 
ATOM     10  CD1 PHE A   1      24.782  48.354  49.296  1.00  0.00     0.007 A 
ATOM     11  CE1 PHE A   1      24.524  49.380  48.386  1.00  0.00     0.001 A 
ATOM     12  CZ  PHE A   1      25.569  50.166  47.908  1.00  0.00     0.000 A 
ATOM     13  CE2 PHE A   1      26.871  49.931  48.344  1.00  0.00     0.001 A 
ATOM     14  CD2 PHE A   1      27.131  48.904  49.253  1.00  0.00     0.007 A 
ENDBRANCH   8   9
ENDBRANCH   7   8
BRANCH   7  15
ATOM     15  C   PHE A   1      26.273  47.307  53.266  1.00  0.00     0.189 C 
BRANCH  15  16
ATOM     16  O   PHE A   1      25.485  48.105  54.144  1.00  0.00    -0.399 OA
ATOM     17  H   PHE A   1      24.811  48.557  53.607  1.00  0.00     0.209 HD
ENDBRANCH  15  16
ENDBRANCH   7  15
ENDBRANCH   1   7
BRANCH   4  18
HETATM   18  C   UNK A   0      27.250  43.043  51.719  1.00  0.00     0.038 A 
HETATM   19  C   UNK A   0      27.443  42.243  50.585  1.00  0.00     0.063 A 
HETATM   20  C   UNK A   0      28.154  41.039  50.713  1.00  0.00     0.087 A 
HETATM   21  C   UNK A   0      28.656  40.670  51.955  1.00  0.00     0.063 A 
HETATM   22  N   UNK A   0      28.452  40.088  49.765  1.00  0.00    -0.228 NA
HETATM   23  N   UNK A   0      29.277  39.469  51.729  1.00  0.00    -0.338 N 
HETATM   24  C   UNK A   0      28.491  41.440  53.104  1.00  0.00     0.034 A 
HETATM   25  H   UNK A   0      29.756  38.904  52.415  1.00  0.00     0.167 HD
HETATM   26  C   UNK A   0      29.126  39.147  50.402  1.00  0.00     0.170 A 
HETATM   27  C   UNK A   0      27.769  42.634  52.957  1.00  0.00     0.032 A 
BRANCH  26  28
HETATM   28  C   UNK A   0      29.677  37.882  49.855  1.00  0.00     0.422 C 
HETATM   29  F   UNK A   0      30.717  38.135  49.012  1.00  0.00    -0.206 F 
HETATM   30  F   UNK A   0      30.198  37.116  50.854  1.00  0.00    -0.206 F 
ENDBRANCH  26  28
ENDBRANCH   4  18
TORSDOF 7
ENDMDL
MODEL 6
REMARK VINA RESULT:      -7.9      1.570      2.527
REMARK  7 active torsions:
REMARK  status: ('A' for Active; 'I' for Inactive)
REMARK    1  A    between atoms: CG_4  and  CB_5 
REMARK    2  A    between atoms: CB_5  and  CA_6 
REMARK    3  A    between atoms: CA_6  and  N_7 
REMARK    4  A    between atoms: CA_6  and  C_8 
REMARK       I    between atoms: N_7  and  C_14 
REMARK    5  A    between atoms: C_8  and  O_9 
REMARK       I    between atoms: C_14  and  N_15 
REMARK    6  A    between atoms: N_15  and  C_16 
REMARK    7  A    between atoms: C_22  and  C_23 
ROOT
ATOM      1  N   PHE A   1      24.392  45.668  51.271  1.00  0.00    -0.336 N 
ATOM      2  H   PHE A   1      23.469  45.255  51.180  1.00  0.00     0.164 HD
HETATM    3  C   UNK A   0      25.241  44.840  51.943  1.00  0.00     0.321 C 
HETATM    4  N   UNK A   0      26.546  45.242  52.000  1.00  0.00    -0.309 N 
HETATM    5  O   UNK A   0      24.767  43.823  52.437  1.00  0.00    -0.247 OA
HETATM    6  H   UNK A   0      26.834  45.921  51.315  1.00  0.00     0.170 HD
ENDROOT
BRANCH   1   7
ATOM      7  CA  PHE A   1      24.640  46.946  50.604  1.00  0.00     0.113 C 
BRANCH   7   8
ATOM      8  CB  PHE A   1      23.857  47.070  49.276  1.00  0.00     0.065 C 
BRANCH   8   9
ATOM      9  CG  PHE A   1      23.327  48.448  48.945  1.00  0.00    -0.056 A 
ATOM     10  CD1 PHE A   1      24.168  49.407  48.362  1.00  0.00     0.007 A 
ATOM     11  CE1 PHE A   1      23.690  50.685  48.067  1.00  0.00     0.001 A 
ATOM     12  CZ  PHE A   1      22.365  51.013  48.341  1.00  0.00     0.000 A 
ATOM     13  CE2 PHE A   1      21.516  50.064  48.905  1.00  0.00     0.001 A 
ATOM     14  CD2 PHE A   1      21.993  48.787  49.203  1.00  0.00     0.007 A 
ENDBRANCH   8   9
ENDBRANCH   7   8
BRANCH   7  15
ATOM     15  C   PHE A   1      26.150  47.204  50.458  1.00  0.00     0.189 C 
BRANCH  15  16
ATOM     16  O   PHE A   1      26.668  46.569  49.294  1.00  0.00    -0.399 OA
ATOM     17  H   PHE A   1      27.421  46.018  49.568  1.00  0.00     0.209 HD
ENDBRANCH  15  16
ENDBRANCH   7  15
ENDBRANCH   1   7
BRANCH   4  18
HETATM   18  C   UNK A   0      27.578  44.687  52.789  1.00  0.00     0.038 A 
HETATM   19  C   UNK A   0      27.970  45.216  54.026  1.00  0.00     0.063 A 
HETATM   20  C   UNK A   0      29.040  44.621  54.712  1.00  0.00     0.087 A 
HETATM   21  C   UNK A   0      29.681  43.520  54.158  1.00  0.00     0.063 A 
HETATM   22  N   UNK A   0      29.614  44.965  55.914  1.00  0.00    -0.228 NA
HETATM   23  N   UNK A   0      30.658  43.201  55.066  1.00  0.00    -0.338 N 
HETATM   24  C   UNK A   0      29.318  42.961  52.935  1.00  0.00     0.034 A 
HETATM   25  H   UNK A   0      31.324  42.446  54.989  1.00  0.00     0.167 HD
HETATM   26  C   UNK A   0      30.592  44.098  56.105  1.00  0.00     0.170 A 
HETATM   27  C   UNK A   0      28.254  43.576  52.259  1.00  0.00     0.032 A 
BRANCH  26  28
HETATM   28  C   UNK A   0      31.545  44.022  57.241  1.00  0.00     0.422 C 
HETATM   29  F   UNK A   0      30.907  44.265  58.420  1.00  0.00    -0.206 F 
HETATM   30  F   UNK A   0      32.053  42.763  57.356  1.00  0.00    -0.206 F 
ENDBRANCH  26  28
ENDBRANCH   4  18
TORSDOF 7
ENDMDL
MODEL 7
REMARK VINA RESULT:      -7.9      3.424      4.535
REMARK  7 active torsions:
REMARK  status: ('A' for Active; 'I' for Inactive)
REMARK    1  A    between atoms: CG_4  and  CB_5 
REMARK    2  A    between atoms: CB_5  and  CA_6 
REMARK    3  A    between atoms: CA_6  and  N_7 
REMARK    4  A    between atoms: CA_6  and  C_8 
REMARK       I    between atoms: N_7  and  C_14 
REMARK    5  A    between atoms: C_8  and  O_9 
REMARK       I    between atoms: C_14  and  N_15 
REMARK    6  A    between atoms: N_15  and  C_16 
REMARK    7  A    between atoms: C_22  and  C_23 
ROOT
ATOM      1  N   PHE A   1      23.085  46.967  49.054  1.00  0.00    -0.336 N 
ATOM      2  H   PHE A   1      22.629  46.384  48.361  1.00  0.00     0.164 HD
HETATM    3  C   UNK A   0      23.972  46.249  49.800  1.00  0.00     0.321 C 
HETATM    4  N   UNK A   0      24.740  46.970  50.671  1.00  0.00    -0.309 N 
HETATM    5  O   UNK A   0      24.002  45.035  49.631  1.00  0.00    -0.247 OA
HETATM    6  H   UNK A   0      24.815  47.957  50.488  1.00  0.00     0.170 HD
ENDROOT
BRANCH   1   7
ATOM      7  CA  PHE A   1      22.796  48.401  49.042  1.00  0.00     0.113 C 
BRANCH   7   8
ATOM      8  CB  PHE A   1      21.558  48.736  48.176  1.00  0.00     0.065 C 
BRANCH   8   9
ATOM      9  CG  PHE A   1      20.635  49.802  48.724  1.00  0.00    -0.056 A 
ATOM     10  CD1 PHE A   1      19.813  49.527  49.827  1.00  0.00     0.007 A 
ATOM     11  CE1 PHE A   1      18.949  50.501  50.329  1.00  0.00     0.001 A 
ATOM     12  CZ  PHE A   1      18.905  51.763  49.743  1.00  0.00     0.000 A 
ATOM     13  CE2 PHE A   1      19.729  52.054  48.658  1.00  0.00     0.001 A 
ATOM     14  CD2 PHE A   1      20.592  51.080  48.152  1.00  0.00     0.007 A 
ENDBRANCH   8   9
ENDBRANCH   7   8
BRANCH   7  15
ATOM     15  C   PHE A   1      24.050  49.211  48.668  1.00  0.00     0.189 C 
BRANCH  15  16
ATOM     16  O   PHE A   1      23.900  49.826  47.392  1.00  0.00    -0.399 OA
ATOM     17  H   PHE A   1      22.976  50.119  47.313  1.00  0.00     0.209 HD
ENDBRANCH  15  16
ENDBRANCH   7  15
ENDBRANCH   1   7
BRANCH   4  18
HETATM   18  C   UNK A   0      25.582  46.466  51.687  1.00  0.00     0.038 A 
HETATM   19  C   UNK A   0      26.483  45.412  51.488  1.00  0.00     0.063 A 
HETATM   20  C   UNK A   0      27.242  44.950  52.574  1.00  0.00     0.087 A 
HETATM   21  C   UNK A   0      27.092  45.550  53.819  1.00  0.00     0.063 A 
HETATM   22  N   UNK A   0      28.164  43.931  52.634  1.00  0.00    -0.228 NA
HETATM   23  N   UNK A   0      27.958  44.869  54.633  1.00  0.00    -0.338 N 
HETATM   24  C   UNK A   0      26.212  46.604  54.056  1.00  0.00     0.034 A 
HETATM   25  H   UNK A   0      28.113  45.037  55.617  1.00  0.00     0.167 HD
HETATM   26  C   UNK A   0      28.579  43.896  53.887  1.00  0.00     0.170 A 
HETATM   27  C   UNK A   0      25.455  47.044  52.961  1.00  0.00     0.032 A 
BRANCH  26  28
HETATM   28  C   UNK A   0      29.566  42.974  54.504  1.00  0.00     0.422 C 
HETATM   29  F   UNK A   0      30.488  42.572  53.584  1.00  0.00    -0.206 F 
HETATM   30  F   UNK A   0      30.276  43.613  55.475  1.00  0.00    -0.206 F 
ENDBRANCH  26  28
ENDBRANCH   4  18
TORSDOF 7
ENDMDL
MODEL 8
REMARK VINA RESULT:      -7.9      3.164      4.953
REMARK  7 active torsions:
REMARK  status: ('A' for Active; 'I' for Inactive)
REMARK    1  A    between atoms: CG_4  and  CB_5 
REMARK    2  A    between atoms: CB_5  and  CA_6 
REMARK    3  A    between atoms: CA_6  and  N_7 
REMARK    4  A    between atoms: CA_6  and  C_8 
REMARK       I    between atoms: N_7  and  C_14 
REMARK    5  A    between atoms: C_8  and  O_9 
REMARK       I    between atoms: C_14  and  N_15 
REMARK    6  A    between atoms: N_15  and  C_16 
REMARK    7  A    between atoms: C_22  and  C_23 
ROOT
ATOM      1  N   PHE A   1      25.824  44.137  49.193  1.00  0.00    -0.336 N 
ATOM      2  H   PHE A   1      25.884  44.738  48.378  1.00  0.00     0.164 HD
HETATM    3  C   UNK A   0      26.790  44.440  50.105  1.00  0.00     0.321 C 
HETATM    4  N   UNK A   0      26.711  43.780  51.300  1.00  0.00    -0.309 N 
HETATM    5  O   UNK A   0      27.638  45.263  49.780  1.00  0.00    -0.247 OA
HETATM    6  H   UNK A   0      25.818  43.373  51.526  1.00  0.00     0.170 HD
ENDROOT
BRANCH   1   7
ATOM      7  CA  PHE A   1      24.708  43.194  49.268  1.00  0.00     0.113 C 
BRANCH   7   8
ATOM      8  CB  PHE A   1      24.956  41.931  48.410  1.00  0.00     0.065 C 
BRANCH   8   9
ATOM      9  CG  PHE A   1      26.233  41.174  48.699  1.00  0.00    -0.056 A 
ATOM     10  CD1 PHE A   1      27.274  41.158  47.758  1.00  0.00     0.007 A 
ATOM     11  CE1 PHE A   1      28.450  40.451  48.012  1.00  0.00     0.001 A 
ATOM     12  CZ  PHE A   1      28.602  39.760  49.211  1.00  0.00     0.000 A 
ATOM     13  CE2 PHE A   1      27.583  39.781  50.160  1.00  0.00     0.001 A 
ATOM     14  CD2 PHE A   1      26.405  40.487  49.907  1.00  0.00     0.007 A 
ENDBRANCH   8   9
ENDBRANCH   7   8
BRANCH   7  15
ATOM     15  C   PHE A   1      23.374  43.897  48.963  1.00  0.00     0.189 C 
BRANCH  15  16
ATOM     16  O   PHE A   1      23.061  44.858  49.966  1.00  0.00    -0.399 OA
ATOM     17  H   PHE A   1      22.886  44.376  50.792  1.00  0.00     0.209 HD
ENDBRANCH  15  16
ENDBRANCH   7  15
ENDBRANCH   1   7
BRANCH   4  18
HETATM   18  C   UNK A   0      27.679  43.754  52.328  1.00  0.00     0.038 A 
HETATM   19  C   UNK A   0      27.633  44.595  53.448  1.00  0.00     0.063 A 
HETATM   20  C   UNK A   0      28.669  44.527  54.393  1.00  0.00     0.087 A 
HETATM   21  C   UNK A   0      29.710  43.626  54.204  1.00  0.00     0.063 A 
HETATM   22  N   UNK A   0      28.857  45.252  55.547  1.00  0.00    -0.228 NA
HETATM   23  N   UNK A   0      30.531  43.821  55.284  1.00  0.00    -0.338 N 
HETATM   24  C   UNK A   0      29.789  42.770  53.108  1.00  0.00     0.034 A 
HETATM   25  H   UNK A   0      31.395  43.333  55.477  1.00  0.00     0.167 HD
HETATM   26  C   UNK A   0      29.989  44.813  56.066  1.00  0.00     0.170 A 
HETATM   27  C   UNK A   0      28.750  42.860  52.170  1.00  0.00     0.032 A 
BRANCH  26  28
HETATM   28  C   UNK A   0      30.668  45.264  57.307  1.00  0.00     0.422 C 
HETATM   29  F   UNK A   0      29.767  45.789  58.184  1.00  0.00    -0.206 F 
HETATM   30  F   UNK A   0      31.234  44.208  57.954  1.00  0.00    -0.206 F 
ENDBRANCH  26  28
ENDBRANCH   4  18
TORSDOF 7
ENDMDL
MODEL 9
REMARK VINA RESULT:      -7.8      5.281      8.075
REMARK  7 active torsions:
REMARK  status: ('A' for Active; 'I' for Inactive)
REMARK    1  A    between atoms: CG_4  and  CB_5 
REMARK    2  A    between atoms: CB_5  and  CA_6 
REMARK    3  A    between atoms: CA_6  and  N_7 
REMARK    4  A    between atoms: CA_6  and  C_8 
REMARK       I    between atoms: N_7  and  C_14 
REMARK    5  A    between atoms: C_8  and  O_9 
REMARK       I    between atoms: C_14  and  N_15 
REMARK    6  A    between atoms: N_15  and  C_16 
REMARK    7  A    between atoms: C_22  and  C_23 
ROOT
ATOM      1  N   PHE A   1      25.362  44.797  52.710  1.00  0.00    -0.336 N 
ATOM      2  H   PHE A   1      24.394  44.952  52.972  1.00  0.00     0.164 HD
HETATM    3  C   UNK A   0      25.476  43.773  51.818  1.00  0.00     0.321 C 
HETATM    4  N   UNK A   0      26.723  43.572  51.297  1.00  0.00    -0.309 N 
HETATM    5  O   UNK A   0      24.466  43.125  51.568  1.00  0.00    -0.247 OA
HETATM    6  H   UNK A   0      27.364  44.345  51.364  1.00  0.00     0.170 HD
ENDROOT
BRANCH   1   7
ATOM      7  CA  PHE A   1      26.369  45.723  53.228  1.00  0.00     0.113 C 
BRANCH   7   8
ATOM      8  CB  PHE A   1      26.765  45.393  54.687  1.00  0.00     0.065 C 
BRANCH   8   9
ATOM      9  CG  PHE A   1      28.113  44.733  54.875  1.00  0.00    -0.056 A 
ATOM     10  CD1 PHE A   1      28.388  43.500  54.264  1.00  0.00     0.007 A 
ATOM     11  CE1 PHE A   1      29.624  42.879  54.444  1.00  0.00     0.001 A 
ATOM     12  CZ  PHE A   1      30.602  43.485  55.228  1.00  0.00     0.000 A 
ATOM     13  CE2 PHE A   1      30.346  44.717  55.827  1.00  0.00     0.001 A 
ATOM     14  CD2 PHE A   1      29.110  45.339  55.650  1.00  0.00     0.007 A 
ENDBRANCH   8   9
ENDBRANCH   7   8
BRANCH   7  15
ATOM     15  C   PHE A   1      25.932  47.183  53.021  1.00  0.00     0.189 C 
BRANCH  15  16
ATOM     16  O   PHE A   1      26.087  47.575  51.661  1.00  0.00    -0.399 OA
ATOM     17  H   PHE A   1      26.761  46.998  51.263  1.00  0.00     0.209 HD
ENDBRANCH  15  16
ENDBRANCH   7  15
ENDBRANCH   1   7
BRANCH   4  18
HETATM   18  C   UNK A   0      27.158  42.476  50.519  1.00  0.00     0.038 A 
HETATM   19  C   UNK A   0      26.977  42.396  49.132  1.00  0.00     0.063 A 
HETATM   20  C   UNK A   0      27.402  41.243  48.455  1.00  0.00     0.087 A 
HETATM   21  C   UNK A   0      27.998  40.211  49.169  1.00  0.00     0.063 A 
HETATM   22  N   UNK A   0      27.317  40.925  47.119  1.00  0.00    -0.228 NA
HETATM   23  N   UNK A   0      28.281  39.260  48.223  1.00  0.00    -0.338 N 
HETATM   24  C   UNK A   0      28.202  40.254  50.546  1.00  0.00     0.034 A 
HETATM   25  H   UNK A   0      28.721  38.365  48.385  1.00  0.00     0.167 HD
HETATM   26  C   UNK A   0      27.849  39.721  47.003  1.00  0.00     0.170 A 
HETATM   27  C   UNK A   0      27.761  41.410  51.206  1.00  0.00     0.032 A 
BRANCH  26  28
HETATM   28  C   UNK A   0      27.999  38.897  45.777  1.00  0.00     0.422 C 
HETATM   29  F   UNK A   0      28.593  39.616  44.784  1.00  0.00    -0.206 F 
HETATM   30  F   UNK A   0      28.828  37.842  46.009  1.00  0.00    -0.206 F 
ENDBRANCH  26  28
ENDBRANCH   4  18
TORSDOF 7
ENDMDL
MODEL 10
REMARK VINA RESULT:      -7.7      5.345      9.379
REMARK  7 active torsions:
REMARK  status: ('A' for Active; 'I' for Inactive)
REMARK    1  A    between atoms: CG_4  and  CB_5 
REMARK    2  A    between atoms: CB_5  and  CA_6 
REMARK    3  A    between atoms: CA_6  and  N_7 
REMARK    4  A    between atoms: CA_6  and  C_8 
REMARK       I    between atoms: N_7  and  C_14 
REMARK    5  A    between atoms: C_8  and  O_9 
REMARK       I    between atoms: C_14  and  N_15 
REMARK    6  A    between atoms: N_15  and  C_16 
REMARK    7  A    between atoms: C_22  and  C_23 
ROOT
ATOM      1  N   PHE A   1      26.515  45.533  52.604  1.00  0.00    -0.336 N 
ATOM      2  H   PHE A   1      26.986  46.016  53.361  1.00  0.00     0.164 HD
HETATM    3  C   UNK A   0      25.745  46.387  51.873  1.00  0.00     0.321 C 
HETATM    4  N   UNK A   0      25.176  45.862  50.746  1.00  0.00    -0.309 N 
HETATM    5  O   UNK A   0      25.624  47.535  52.286  1.00  0.00    -0.247 OA
HETATM    6  H   UNK A   0      25.595  45.020  50.386  1.00  0.00     0.170 HD
ENDROOT
BRANCH   1   7
ATOM      7  CA  PHE A   1      26.828  44.119  52.394  1.00  0.00     0.113 C 
BRANCH   7   8
ATOM      8  CB  PHE A   1      27.086  43.377  53.727  1.00  0.00     0.065 C 
BRANCH   8   9
ATOM      9  CG  PHE A   1      28.343  43.769  54.472  1.00  0.00    -0.056 A 
ATOM     10  CD1 PHE A   1      28.407  44.993  55.155  1.00  0.00     0.007 A 
ATOM     11  CE1 PHE A   1      29.568  45.367  55.832  1.00  0.00     0.001 A 
ATOM     12  CZ  PHE A   1      30.673  44.520  55.843  1.00  0.00     0.000 A 
ATOM     13  CE2 PHE A   1      30.615  43.295  55.183  1.00  0.00     0.001 A 
ATOM     14  CD2 PHE A   1      29.456  42.920  54.503  1.00  0.00     0.007 A 
ENDBRANCH   8   9
ENDBRANCH   7   8
BRANCH   7  15
ATOM     15  C   PHE A   1      27.960  43.954  51.366  1.00  0.00     0.189 C 
BRANCH  15  16
ATOM     16  O   PHE A   1      27.461  44.050  50.036  1.00  0.00    -0.399 OA
ATOM     17  H   PHE A   1      27.502  43.163  49.640  1.00  0.00     0.209 HD
ENDBRANCH  15  16
ENDBRANCH   7  15
ENDBRANCH   1   7
BRANCH   4  18
HETATM   18  C   UNK A   0      24.189  46.457  49.930  1.00  0.00     0.038 A 
HETATM   19  C   UNK A   0      23.946  47.837  49.899  1.00  0.00     0.063 A 
HETATM   20  C   UNK A   0      22.909  48.327  49.090  1.00  0.00     0.087 A 
HETATM   21  C   UNK A   0      22.153  47.440  48.333  1.00  0.00     0.063 A 
HETATM   22  N   UNK A   0      22.469  49.618  48.909  1.00  0.00    -0.228 NA
HETATM   23  N   UNK A   0      21.246  48.234  47.680  1.00  0.00    -0.338 N 
HETATM   24  C   UNK A   0      22.367  46.063  48.332  1.00  0.00     0.034 A 
HETATM   25  H   UNK A   0      20.531  47.924  47.038  1.00  0.00     0.167 HD
HETATM   26  C   UNK A   0      21.462  49.537  48.058  1.00  0.00     0.170 A 
HETATM   27  C   UNK A   0      23.400  45.592  49.155  1.00  0.00     0.032 A 
BRANCH  26  28
HETATM   28  C   UNK A   0      20.615  50.636  47.529  1.00  0.00     0.422 C 
HETATM   29  F   UNK A   0      19.295  50.314  47.625  1.00  0.00    -0.206 F 
HETATM   30  F   UNK A   0      20.770  51.763  48.279  1.00  0.00    -0.206 F 
ENDBRANCH  26  28
ENDBRANCH   4  18
TORSDOF 7
ENDMDL
