MODEL 1
REMARK VINA RESULT:      -9.3      0.000      0.000
REMARK  6 active torsions:
REMARK  status: ('A' for Active; 'I' for Inactive)
REMARK    1  A    between atoms: C_2  and  C_3 
REMARK    2  A    between atoms: C_3  and  C_4 
REMARK    3  A    between atoms: C_3  and  C_10 
REMARK    4  A    between atoms: C_10  and  C_11 
REMARK       I    between atoms: C_11  and  N_12 
REMARK    5  A    between atoms: N_12  and  C_13 
REMARK    6  A    between atoms: C_20  and  C_21 
REMARK       I    between atoms: C_21  and  N_22 
ROOT
HETATM    1  C   UNL     1      25.806  47.477  50.470  1.00  0.00     0.035 A 
HETATM    2  C   UNL     1      24.502  47.668  49.992  1.00  0.00     0.046 A 
HETATM    3  C   UNL     1      24.259  48.641  48.997  1.00  0.00     0.030 A 
HETATM    4  C   UNL     1      25.325  49.393  48.522  1.00  0.00     0.063 A 
HETATM    5  N   UNL     1      24.784  50.243  47.598  1.00  0.00    -0.277 N 
HETATM    6  H   UNL     1      25.270  50.947  47.053  1.00  0.00     0.189 HD
HETATM    7  N   UNL     1      23.462  50.100  47.415  1.00  0.00    -0.168 NA
HETATM    8  C   UNL     1      23.122  49.108  48.270  1.00  0.00     0.156 A 
HETATM    9  C   UNL     1      26.637  49.226  48.970  1.00  0.00     0.034 A 
HETATM   10  C   UNL     1      26.854  48.246  49.947  1.00  0.00     0.032 A 
ENDROOT
BRANCH   1  11
HETATM   11  N   UNL     1      26.145  46.521  51.453  1.00  0.00    -0.327 N 
HETATM   12  C   UNL     1      26.008  46.653  52.820  1.00  0.00     0.222 C 
HETATM   13  O   UNL     1      25.590  47.652  53.403  1.00  0.00    -0.273 OA
HETATM   14  H   UNL     1      26.685  45.736  51.120  1.00  0.00     0.169 HD
BRANCH  12  15
HETATM   15  C   UNL     1      26.338  45.413  53.646  1.00  0.00     0.112 C 
BRANCH  15  16
HETATM   16  C   UNL     1      27.558  44.555  53.262  1.00  0.00     0.027 C 
BRANCH  16  17
HETATM   17  C   UNL     1      27.154  43.094  52.952  1.00  0.00     0.005 C 
HETATM   18  C   UNL     1      27.200  42.741  51.471  1.00  0.00     0.006 C 
ENDBRANCH  16  17
BRANCH  16  19
HETATM   19  C   UNL     1      28.678  44.537  54.293  1.00  0.00    -0.054 A 
HETATM   20  C   UNL     1      28.888  45.595  55.189  1.00  0.00     0.007 A 
HETATM   21  C   UNL     1      29.938  45.549  56.109  1.00  0.00     0.001 A 
HETATM   22  C   UNL     1      30.779  44.441  56.157  1.00  0.00     0.000 A 
HETATM   23  C   UNL     1      30.571  43.373  55.288  1.00  0.00     0.001 A 
HETATM   24  C   UNL     1      29.526  43.418  54.365  1.00  0.00     0.007 A 
ENDBRANCH  16  19
ENDBRANCH  15  16
ENDBRANCH  12  15
ENDBRANCH   1  11
BRANCH   8  25
HETATM   25  C   UNL     1      21.736  48.628  48.368  1.00  0.00     0.270 C 
HETATM   26  N   UNL     1      21.171  48.807  49.601  1.00  0.00    -0.365 N 
HETATM   27  H   UNL     1      21.720  49.250  50.328  1.00  0.00     0.159 HD
HETATM   28  H   UNL     1      20.218  48.521  49.758  1.00  0.00     0.159 HD
HETATM   29  O   UNL     1      21.105  48.116  47.450  1.00  0.00    -0.266 OA
ENDBRANCH   8  25
TORSDOF 6
ENDMDL
MODEL 2
REMARK VINA RESULT:      -8.8      1.697      2.585
REMARK  6 active torsions:
REMARK  status: ('A' for Active; 'I' for Inactive)
REMARK    1  A    between atoms: C_2  and  C_3 
REMARK    2  A    between atoms: C_3  and  C_4 
REMARK    3  A    between atoms: C_3  and  C_10 
REMARK    4  A    between atoms: C_10  and  C_11 
REMARK       I    between atoms: C_11  and  N_12 
REMARK    5  A    between atoms: N_12  and  C_13 
REMARK    6  A    between atoms: C_20  and  C_21 
REMARK       I    between atoms: C_21  and  N_22 
ROOT
HETATM    1  C   UNL     1      25.747  46.332  51.534  1.00  0.00     0.035 A 
HETATM    2  C   UNL     1      25.386  47.483  50.820  1.00  0.00     0.046 A 
HETATM    3  C   UNL     1      24.388  47.403  49.825  1.00  0.00     0.030 A 
HETATM    4  C   UNL     1      23.792  46.174  49.571  1.00  0.00     0.063 A 
HETATM    5  N   UNL     1      22.896  46.406  48.566  1.00  0.00    -0.277 N 
HETATM    6  H   UNL     1      22.286  45.731  48.119  1.00  0.00     0.189 HD
HETATM    7  N   UNL     1      22.840  47.682  48.153  1.00  0.00    -0.168 NA
HETATM    8  C   UNL     1      23.754  48.313  48.926  1.00  0.00     0.156 A 
HETATM    9  C   UNL     1      24.123  45.008  50.266  1.00  0.00     0.034 A 
HETATM   10  C   UNL     1      25.106  45.118  51.258  1.00  0.00     0.032 A 
ENDROOT
BRANCH   1  11
HETATM   11  N   UNL     1      26.725  46.320  52.553  1.00  0.00    -0.327 N 
HETATM   12  C   UNL     1      26.505  46.243  53.914  1.00  0.00     0.222 C 
HETATM   13  O   UNL     1      25.403  46.203  54.457  1.00  0.00    -0.273 OA
HETATM   14  H   UNL     1      27.661  46.550  52.253  1.00  0.00     0.169 HD
BRANCH  12  15
HETATM   15  C   UNL     1      27.752  46.122  54.785  1.00  0.00     0.112 C 
BRANCH  15  16
HETATM   16  C   UNL     1      28.702  44.926  54.579  1.00  0.00     0.027 C 
BRANCH  16  17
HETATM   17  C   UNL     1      27.922  43.616  54.319  1.00  0.00     0.005 C 
HETATM   18  C   UNL     1      28.145  43.028  52.932  1.00  0.00     0.006 C 
ENDBRANCH  16  17
BRANCH  16  19
HETATM   19  C   UNL     1      29.684  44.685  55.717  1.00  0.00    -0.054 A 
HETATM   20  C   UNL     1      29.748  45.522  56.840  1.00  0.00     0.007 A 
HETATM   21  C   UNL     1      30.675  45.278  57.856  1.00  0.00     0.001 A 
HETATM   22  C   UNL     1      31.537  44.187  57.770  1.00  0.00     0.000 A 
HETATM   23  C   UNL     1      31.471  43.335  56.671  1.00  0.00     0.001 A 
HETATM   24  C   UNL     1      30.549  43.580  55.653  1.00  0.00     0.007 A 
ENDBRANCH  16  19
ENDBRANCH  15  16
ENDBRANCH  12  15
ENDBRANCH   1  11
BRANCH   8  25
HETATM   25  C   UNL     1      23.995  49.758  48.796  1.00  0.00     0.270 C 
HETATM   26  N   UNL     1      24.939  50.083  47.860  1.00  0.00    -0.365 N 
HETATM   27  H   UNL     1      25.379  49.337  47.335  1.00  0.00     0.159 HD
HETATM   28  H   UNL     1      25.160  51.051  47.691  1.00  0.00     0.159 HD
HETATM   29  O   UNL     1      23.419  50.626  49.441  1.00  0.00    -0.266 OA
ENDBRANCH   8  25
TORSDOF 6
ENDMDL
MODEL 3
REMARK VINA RESULT:      -8.8      1.178      1.966
REMARK  6 active torsions:
REMARK  status: ('A' for Active; 'I' for Inactive)
REMARK    1  A    between atoms: C_2  and  C_3 
REMARK    2  A    between atoms: C_3  and  C_4 
REMARK    3  A    between atoms: C_3  and  C_10 
REMARK    4  A    between atoms: C_10  and  C_11 
REMARK       I    between atoms: C_11  and  N_12 
REMARK    5  A    between atoms: N_12  and  C_13 
REMARK    6  A    between atoms: C_20  and  C_21 
REMARK       I    between atoms: C_21  and  N_22 
ROOT
HETATM    1  C   UNL     1      25.616  47.782  50.185  1.00  0.00     0.035 A 
HETATM    2  C   UNL     1      24.228  47.851  50.010  1.00  0.00     0.046 A 
HETATM    3  C   UNL     1      23.686  48.764  49.079  1.00  0.00     0.030 A 
HETATM    4  C   UNL     1      24.551  49.581  48.361  1.00  0.00     0.063 A 
HETATM    5  N   UNL     1      23.747  50.351  47.568  1.00  0.00    -0.277 N 
HETATM    6  H   UNL     1      24.037  51.070  46.915  1.00  0.00     0.189 HD
HETATM    7  N   UNL     1      22.434  50.097  47.690  1.00  0.00    -0.168 NA
HETATM    8  C   UNL     1      22.380  49.113  48.618  1.00  0.00     0.156 A 
HETATM    9  C   UNL     1      25.939  49.536  48.506  1.00  0.00     0.034 A 
HETATM   10  C   UNL     1      26.451  48.612  49.426  1.00  0.00     0.032 A 
ENDROOT
BRANCH   1  11
HETATM   11  N   UNL     1      26.247  46.893  51.084  1.00  0.00    -0.327 N 
HETATM   12  C   UNL     1      26.013  46.779  52.440  1.00  0.00     0.222 C 
HETATM   13  O   UNL     1      25.227  47.468  53.089  1.00  0.00    -0.273 OA
HETATM   14  H   UNL     1      27.055  46.413  50.716  1.00  0.00     0.169 HD
BRANCH  12  15
HETATM   15  C   UNL     1      26.748  45.647  53.150  1.00  0.00     0.112 C 
BRANCH  15  16
HETATM   16  C   UNL     1      27.369  45.904  54.536  1.00  0.00     0.027 C 
BRANCH  16  17
HETATM   17  C   UNL     1      27.776  47.387  54.712  1.00  0.00     0.005 C 
HETATM   18  C   UNL     1      26.968  48.128  55.768  1.00  0.00     0.006 C 
ENDBRANCH  16  17
BRANCH  16  19
HETATM   19  C   UNL     1      28.571  45.032  54.872  1.00  0.00    -0.054 A 
HETATM   20  C   UNL     1      29.524  45.406  55.830  1.00  0.00     0.007 A 
HETATM   21  C   UNL     1      30.623  44.587  56.097  1.00  0.00     0.001 A 
HETATM   22  C   UNL     1      30.775  43.377  55.424  1.00  0.00     0.000 A 
HETATM   23  C   UNL     1      29.826  42.982  54.485  1.00  0.00     0.001 A 
HETATM   24  C   UNL     1      28.730  43.801  54.212  1.00  0.00     0.007 A 
ENDBRANCH  16  19
ENDBRANCH  15  16
ENDBRANCH  12  15
ENDBRANCH   1  11
BRANCH   8  25
HETATM   25  C   UNL     1      21.097  48.528  49.034  1.00  0.00     0.270 C 
HETATM   26  N   UNL     1      21.025  47.171  48.872  1.00  0.00    -0.365 N 
HETATM   27  H   UNL     1      21.831  46.683  48.502  1.00  0.00     0.159 HD
HETATM   28  H   UNL     1      20.187  46.682  49.144  1.00  0.00     0.159 HD
HETATM   29  O   UNL     1      20.156  49.162  49.498  1.00  0.00    -0.266 OA
ENDBRANCH   8  25
TORSDOF 6
ENDMDL
MODEL 4
REMARK VINA RESULT:      -8.7      2.639      3.391
REMARK  6 active torsions:
REMARK  status: ('A' for Active; 'I' for Inactive)
REMARK    1  A    between atoms: C_2  and  C_3 
REMARK    2  A    between atoms: C_3  and  C_4 
REMARK    3  A    between atoms: C_3  and  C_10 
REMARK    4  A    between atoms: C_10  and  C_11 
REMARK       I    between atoms: C_11  and  N_12 
REMARK    5  A    between atoms: N_12  and  C_13 
REMARK    6  A    between atoms: C_20  and  C_21 
REMARK       I    between atoms: C_21  and  N_22 
ROOT
HETATM    1  C   UNL     1      26.024  45.328  51.624  1.00  0.00     0.035 A 
HETATM    2  C   UNL     1      25.134  44.660  50.772  1.00  0.00     0.046 A 
HETATM    3  C   UNL     1      24.261  45.406  49.950  1.00  0.00     0.030 A 
HETATM    4  C   UNL     1      24.303  46.793  50.013  1.00  0.00     0.063 A 
HETATM    5  N   UNL     1      23.352  47.224  49.133  1.00  0.00    -0.277 N 
HETATM    6  H   UNL     1      23.099  48.184  48.924  1.00  0.00     0.189 HD
HETATM    7  N   UNL     1      22.705  46.243  48.484  1.00  0.00    -0.168 NA
HETATM    8  C   UNL     1      23.260  45.110  48.976  1.00  0.00     0.156 A 
HETATM    9  C   UNL     1      25.180  47.491  50.845  1.00  0.00     0.034 A 
HETATM   10  C   UNL     1      26.044  46.728  51.641  1.00  0.00     0.032 A 
ENDROOT
BRANCH   1  11
HETATM   11  N   UNL     1      26.939  44.666  52.472  1.00  0.00    -0.327 N 
HETATM   12  C   UNL     1      26.668  44.088  53.696  1.00  0.00     0.222 C 
HETATM   13  O   UNL     1      25.574  44.088  54.259  1.00  0.00    -0.273 OA
HETATM   14  H   UNL     1      27.911  44.772  52.221  1.00  0.00     0.169 HD
BRANCH  12  15
HETATM   15  C   UNL     1      27.821  43.328  54.345  1.00  0.00     0.112 C 
BRANCH  15  16
HETATM   16  C   UNL     1      29.258  43.858  54.183  1.00  0.00     0.027 C 
BRANCH  16  17
HETATM   17  C   UNL     1      30.115  42.923  53.296  1.00  0.00     0.005 C 
HETATM   18  C   UNL     1      29.361  41.709  52.770  1.00  0.00     0.006 C 
ENDBRANCH  16  17
BRANCH  16  19
HETATM   19  C   UNL     1      30.002  44.100  55.488  1.00  0.00    -0.054 A 
HETATM   20  C   UNL     1      30.955  43.198  55.986  1.00  0.00     0.007 A 
HETATM   21  C   UNL     1      31.604  43.446  57.197  1.00  0.00     0.001 A 
HETATM   22  C   UNL     1      31.322  44.604  57.918  1.00  0.00     0.000 A 
HETATM   23  C   UNL     1      30.394  45.519  57.428  1.00  0.00     0.001 A 
HETATM   24  C   UNL     1      29.741  45.271  56.220  1.00  0.00     0.007 A 
ENDBRANCH  16  19
ENDBRANCH  15  16
ENDBRANCH  12  15
ENDBRANCH   1  11
BRANCH   8  25
HETATM   25  C   UNL     1      22.831  43.785  48.504  1.00  0.00     0.270 C 
HETATM   26  N   UNL     1      22.981  43.599  47.157  1.00  0.00    -0.365 N 
HETATM   27  H   UNL     1      23.372  44.351  46.603  1.00  0.00     0.159 HD
HETATM   28  H   UNL     1      22.726  42.715  46.746  1.00  0.00     0.159 HD
HETATM   29  O   UNL     1      22.383  42.897  49.221  1.00  0.00    -0.266 OA
ENDBRANCH   8  25
TORSDOF 6
ENDMDL
MODEL 5
REMARK VINA RESULT:      -8.7      1.986      2.867
REMARK  6 active torsions:
REMARK  status: ('A' for Active; 'I' for Inactive)
REMARK    1  A    between atoms: C_2  and  C_3 
REMARK    2  A    between atoms: C_3  and  C_4 
REMARK    3  A    between atoms: C_3  and  C_10 
REMARK    4  A    between atoms: C_10  and  C_11 
REMARK       I    between atoms: C_11  and  N_12 
REMARK    5  A    between atoms: N_12  and  C_13 
REMARK    6  A    between atoms: C_20  and  C_21 
REMARK       I    between atoms: C_21  and  N_22 
ROOT
HETATM    1  C   UNL     1      24.796  46.178  50.235  1.00  0.00     0.035 A 
HETATM    2  C   UNL     1      24.251  47.468  50.185  1.00  0.00     0.046 A 
HETATM    3  C   UNL     1      23.192  47.745  49.294  1.00  0.00     0.030 A 
HETATM    4  C   UNL     1      22.720  46.725  48.477  1.00  0.00     0.063 A 
HETATM    5  N   UNL     1      21.726  47.290  47.730  1.00  0.00    -0.277 N 
HETATM    6  H   UNL     1      21.162  46.840  47.017  1.00  0.00     0.189 HD
HETATM    7  N   UNL     1      21.493  48.585  47.998  1.00  0.00    -0.168 NA
HETATM    8  C   UNL     1      22.389  48.880  48.968  1.00  0.00     0.156 A 
HETATM    9  C   UNL     1      23.235  45.427  48.504  1.00  0.00     0.034 A 
HETATM   10  C   UNL     1      24.276  45.175  49.407  1.00  0.00     0.032 A 
ENDROOT
BRANCH   1  11
HETATM   11  N   UNL     1      25.848  45.808  51.102  1.00  0.00    -0.327 N 
HETATM   12  C   UNL     1      25.741  45.094  52.279  1.00  0.00     0.222 C 
HETATM   13  O   UNL     1      24.692  44.691  52.777  1.00  0.00    -0.273 OA
HETATM   14  H   UNL     1      26.736  46.250  50.913  1.00  0.00     0.169 HD
BRANCH  12  15
HETATM   15  C   UNL     1      27.058  44.724  52.956  1.00  0.00     0.112 C 
BRANCH  15  16
HETATM   16  C   UNL     1      27.411  45.361  54.314  1.00  0.00     0.027 C 
BRANCH  16  17
HETATM   17  C   UNL     1      27.475  46.904  54.222  1.00  0.00     0.005 C 
HETATM   18  C   UNL     1      26.257  47.608  54.806  1.00  0.00     0.006 C 
ENDBRANCH  16  17
BRANCH  16  19
HETATM   19  C   UNL     1      28.707  44.861  54.937  1.00  0.00    -0.054 A 
HETATM   20  C   UNL     1      29.328  43.674  54.524  1.00  0.00     0.007 A 
HETATM   21  C   UNL     1      30.508  43.239  55.132  1.00  0.00     0.001 A 
HETATM   22  C   UNL     1      31.090  43.993  56.149  1.00  0.00     0.000 A 
HETATM   23  C   UNL     1      30.497  45.185  56.556  1.00  0.00     0.001 A 
HETATM   24  C   UNL     1      29.316  45.618  55.953  1.00  0.00     0.007 A 
ENDBRANCH  16  19
ENDBRANCH  15  16
ENDBRANCH  12  15
ENDBRANCH   1  11
BRANCH   8  25
HETATM   25  C   UNL     1      22.454  50.224  49.562  1.00  0.00     0.270 C 
HETATM   26  N   UNL     1      21.350  50.562  50.296  1.00  0.00    -0.365 N 
HETATM   27  H   UNL     1      20.601  49.886  50.386  1.00  0.00     0.159 HD
HETATM   28  H   UNL     1      21.312  51.459  50.753  1.00  0.00     0.159 HD
HETATM   29  O   UNL     1      23.396  50.999  49.442  1.00  0.00    -0.266 OA
ENDBRANCH   8  25
TORSDOF 6
ENDMDL
MODEL 6
REMARK VINA RESULT:      -8.6      4.821      8.100
REMARK  6 active torsions:
REMARK  status: ('A' for Active; 'I' for Inactive)
REMARK    1  A    between atoms: C_2  and  C_3 
REMARK    2  A    between atoms: C_3  and  C_4 
REMARK    3  A    between atoms: C_3  and  C_10 
REMARK    4  A    between atoms: C_10  and  C_11 
REMARK       I    between atoms: C_11  and  N_12 
REMARK    5  A    between atoms: N_12  and  C_13 
REMARK    6  A    between atoms: C_20  and  C_21 
REMARK       I    between atoms: C_21  and  N_22 
ROOT
HETATM    1  C   UNL     1      27.273  41.674  50.336  1.00  0.00     0.035 A 
HETATM    2  C   UNL     1      28.065  40.530  50.504  1.00  0.00     0.046 A 
HETATM    3  C   UNL     1      27.691  39.323  49.874  1.00  0.00     0.030 A 
HETATM    4  C   UNL     1      26.536  39.300  49.103  1.00  0.00     0.063 A 
HETATM    5  N   UNL     1      26.432  38.016  48.645  1.00  0.00    -0.277 N 
HETATM    6  H   UNL     1      25.701  37.632  48.057  1.00  0.00     0.189 HD
HETATM    7  N   UNL     1      27.427  37.203  49.033  1.00  0.00    -0.168 NA
HETATM    8  C   UNL     1      28.218  37.999  49.790  1.00  0.00     0.156 A 
HETATM    9  C   UNL     1      25.726  40.421  48.908  1.00  0.00     0.034 A 
HETATM   10  C   UNL     1      26.126  41.609  49.534  1.00  0.00     0.032 A 
ENDROOT
BRANCH   1  11
HETATM   11  N   UNL     1      27.574  42.925  50.918  1.00  0.00    -0.327 N 
HETATM   12  C   UNL     1      26.846  43.586  51.887  1.00  0.00     0.222 C 
HETATM   13  O   UNL     1      25.789  43.193  52.378  1.00  0.00    -0.273 OA
HETATM   14  H   UNL     1      28.306  43.447  50.459  1.00  0.00     0.169 HD
BRANCH  12  15
HETATM   15  C   UNL     1      27.468  44.870  52.429  1.00  0.00     0.112 C 
BRANCH  15  16
HETATM   16  C   UNL     1      27.443  45.137  53.946  1.00  0.00     0.027 C 
BRANCH  16  17
HETATM   17  C   UNL     1      27.115  46.617  54.258  1.00  0.00     0.005 C 
HETATM   18  C   UNL     1      25.810  47.104  53.643  1.00  0.00     0.006 C 
ENDBRANCH  16  17
BRANCH  16  19
HETATM   19  C   UNL     1      28.719  44.760  54.684  1.00  0.00    -0.054 A 
HETATM   20  C   UNL     1      29.395  43.555  54.445  1.00  0.00     0.007 A 
HETATM   21  C   UNL     1      30.554  43.236  55.155  1.00  0.00     0.001 A 
HETATM   22  C   UNL     1      31.061  44.123  56.102  1.00  0.00     0.000 A 
HETATM   23  C   UNL     1      30.414  45.333  56.336  1.00  0.00     0.001 A 
HETATM   24  C   UNL     1      29.253  45.651  55.631  1.00  0.00     0.007 A 
ENDBRANCH  16  19
ENDBRANCH  15  16
ENDBRANCH  12  15
ENDBRANCH   1  11
BRANCH   8  25
HETATM   25  C   UNL     1      29.451  37.484  50.405  1.00  0.00     0.270 C 
HETATM   26  N   UNL     1      29.251  36.428  51.253  1.00  0.00    -0.365 N 
HETATM   27  H   UNL     1      28.309  36.082  51.383  1.00  0.00     0.159 HD
HETATM   28  H   UNL     1      30.041  36.001  51.709  1.00  0.00     0.159 HD
HETATM   29  O   UNL     1      30.575  37.926  50.198  1.00  0.00    -0.266 OA
ENDBRANCH   8  25
TORSDOF 6
ENDMDL
MODEL 7
REMARK VINA RESULT:      -8.1      4.030      9.298
REMARK  6 active torsions:
REMARK  status: ('A' for Active; 'I' for Inactive)
REMARK    1  A    between atoms: C_2  and  C_3 
REMARK    2  A    between atoms: C_3  and  C_4 
REMARK    3  A    between atoms: C_3  and  C_10 
REMARK    4  A    between atoms: C_10  and  C_11 
REMARK       I    between atoms: C_11  and  N_12 
REMARK    5  A    between atoms: N_12  and  C_13 
REMARK    6  A    between atoms: C_20  and  C_21 
REMARK       I    between atoms: C_21  and  N_22 
ROOT
HETATM    1  C   UNL     1      22.428  48.874  49.124  1.00  0.00     0.035 A 
HETATM    2  C   UNL     1      23.565  48.115  49.432  1.00  0.00     0.046 A 
HETATM    3  C   UNL     1      24.845  48.606  49.096  1.00  0.00     0.030 A 
HETATM    4  C   UNL     1      24.944  49.836  48.456  1.00  0.00     0.063 A 
HETATM    5  N   UNL     1      26.280  50.031  48.251  1.00  0.00    -0.277 N 
HETATM    6  H   UNL     1      26.723  50.823  47.800  1.00  0.00     0.189 HD
HETATM    7  N   UNL     1      27.066  49.046  48.717  1.00  0.00    -0.168 NA
HETATM    8  C   UNL     1      26.192  48.159  49.247  1.00  0.00     0.156 A 
HETATM    9  C   UNL     1      23.834  50.621  48.139  1.00  0.00     0.034 A 
HETATM   10  C   UNL     1      22.576  50.117  48.495  1.00  0.00     0.032 A 
ENDROOT
BRANCH   1  11
HETATM   11  N   UNL     1      21.110  48.468  49.432  1.00  0.00    -0.327 N 
HETATM   12  C   UNL     1      20.208  47.863  48.580  1.00  0.00     0.222 C 
HETATM   13  O   UNL     1      20.406  47.609  47.394  1.00  0.00    -0.273 OA
HETATM   14  H   UNL     1      20.754  48.802  50.315  1.00  0.00     0.169 HD
BRANCH  12  15
HETATM   15  C   UNL     1      18.892  47.417  49.211  1.00  0.00     0.112 C 
BRANCH  15  16
HETATM   16  C   UNL     1      17.715  48.408  49.281  1.00  0.00     0.027 C 
BRANCH  16  17
HETATM   17  C   UNL     1      16.559  47.988  48.344  1.00  0.00     0.005 C 
HETATM   18  C   UNL     1      16.933  46.894  47.352  1.00  0.00     0.006 C 
ENDBRANCH  16  17
BRANCH  16  19
HETATM   19  C   UNL     1      18.078  49.855  48.980  1.00  0.00    -0.054 A 
HETATM   20  C   UNL     1      18.042  50.382  47.680  1.00  0.00     0.007 A 
HETATM   21  C   UNL     1      18.400  51.710  47.441  1.00  0.00     0.001 A 
HETATM   22  C   UNL     1      18.783  52.533  48.497  1.00  0.00     0.000 A 
HETATM   23  C   UNL     1      18.804  52.032  49.796  1.00  0.00     0.001 A 
HETATM   24  C   UNL     1      18.451  50.704  50.036  1.00  0.00     0.007 A 
ENDBRANCH  16  19
ENDBRANCH  15  16
ENDBRANCH  12  15
ENDBRANCH   1  11
BRANCH   8  25
HETATM   25  C   UNL     1      26.659  46.920  49.887  1.00  0.00     0.270 C 
HETATM   26  N   UNL     1      26.298  46.803  51.202  1.00  0.00    -0.365 N 
HETATM   27  H   UNL     1      25.747  47.541  51.622  1.00  0.00     0.159 HD
HETATM   28  H   UNL     1      26.562  45.979  51.718  1.00  0.00     0.159 HD
HETATM   29  O   UNL     1      27.307  46.043  49.327  1.00  0.00    -0.266 OA
ENDBRANCH   8  25
TORSDOF 6
ENDMDL
MODEL 8
REMARK VINA RESULT:      -8.0      5.098      8.262
REMARK  6 active torsions:
REMARK  status: ('A' for Active; 'I' for Inactive)
REMARK    1  A    between atoms: C_2  and  C_3 
REMARK    2  A    between atoms: C_3  and  C_4 
REMARK    3  A    between atoms: C_3  and  C_10 
REMARK    4  A    between atoms: C_10  and  C_11 
REMARK       I    between atoms: C_11  and  N_12 
REMARK    5  A    between atoms: N_12  and  C_13 
REMARK    6  A    between atoms: C_20  and  C_21 
REMARK       I    between atoms: C_21  and  N_22 
ROOT
HETATM    1  C   UNL     1      27.366  41.623  49.760  1.00  0.00     0.035 A 
HETATM    2  C   UNL     1      28.031  40.451  50.144  1.00  0.00     0.046 A 
HETATM    3  C   UNL     1      28.305  39.455  49.181  1.00  0.00     0.030 A 
HETATM    4  C   UNL     1      27.896  39.662  47.870  1.00  0.00     0.063 A 
HETATM    5  N   UNL     1      28.280  38.540  47.190  1.00  0.00    -0.277 N 
HETATM    6  H   UNL     1      28.136  38.340  46.207  1.00  0.00     0.189 HD
HETATM    7  N   UNL     1      28.920  37.627  47.937  1.00  0.00    -0.168 NA
HETATM    8  C   UNL     1      28.948  38.180  49.172  1.00  0.00     0.156 A 
HETATM    9  C   UNL     1      27.236  40.819  47.450  1.00  0.00     0.034 A 
HETATM   10  C   UNL     1      26.989  41.797  48.422  1.00  0.00     0.032 A 
ENDROOT
BRANCH   1  11
HETATM   11  N   UNL     1      27.060  42.676  50.651  1.00  0.00    -0.327 N 
HETATM   12  C   UNL     1      25.826  42.973  51.193  1.00  0.00     0.222 C 
HETATM   13  O   UNL     1      24.779  42.373  50.956  1.00  0.00    -0.273 OA
HETATM   14  H   UNL     1      27.790  43.364  50.768  1.00  0.00     0.169 HD
BRANCH  12  15
HETATM   15  C   UNL     1      25.805  44.094  52.228  1.00  0.00     0.112 C 
BRANCH  15  16
HETATM   16  C   UNL     1      27.032  44.304  53.137  1.00  0.00     0.027 C 
BRANCH  16  17
HETATM   17  C   UNL     1      27.201  43.140  54.143  1.00  0.00     0.005 C 
HETATM   18  C   UNL     1      28.465  42.318  53.929  1.00  0.00     0.006 C 
ENDBRANCH  16  17
BRANCH  16  19
HETATM   19  C   UNL     1      27.039  45.615  53.910  1.00  0.00    -0.054 A 
HETATM   20  C   UNL     1      28.040  45.930  54.841  1.00  0.00     0.007 A 
HETATM   21  C   UNL     1      28.002  47.136  55.544  1.00  0.00     0.001 A 
HETATM   22  C   UNL     1      26.975  48.048  55.315  1.00  0.00     0.000 A 
HETATM   23  C   UNL     1      25.985  47.759  54.379  1.00  0.00     0.001 A 
HETATM   24  C   UNL     1      26.018  46.553  53.679  1.00  0.00     0.007 A 
ENDBRANCH  16  19
ENDBRANCH  15  16
ENDBRANCH  12  15
ENDBRANCH   1  11
BRANCH   8  25
HETATM   25  C   UNL     1      29.587  37.491  50.302  1.00  0.00     0.270 C 
HETATM   26  N   UNL     1      28.822  36.501  50.856  1.00  0.00    -0.365 N 
HETATM   27  H   UNL     1      27.910  36.312  50.458  1.00  0.00     0.159 HD
HETATM   28  H   UNL     1      29.185  35.964  51.627  1.00  0.00     0.159 HD
HETATM   29  O   UNL     1      30.706  37.743  50.734  1.00  0.00    -0.266 OA
ENDBRANCH   8  25
TORSDOF 6
ENDMDL
MODEL 9
REMARK VINA RESULT:      -7.8      3.786      8.635
REMARK  6 active torsions:
REMARK  status: ('A' for Active; 'I' for Inactive)
REMARK    1  A    between atoms: C_2  and  C_3 
REMARK    2  A    between atoms: C_3  and  C_4 
REMARK    3  A    between atoms: C_3  and  C_10 
REMARK    4  A    between atoms: C_10  and  C_11 
REMARK       I    between atoms: C_11  and  N_12 
REMARK    5  A    between atoms: N_12  and  C_13 
REMARK    6  A    between atoms: C_20  and  C_21 
REMARK       I    between atoms: C_21  and  N_22 
ROOT
HETATM    1  C   UNL     1      28.298  44.385  53.614  1.00  0.00     0.035 A 
HETATM    2  C   UNL     1      28.588  44.962  54.858  1.00  0.00     0.046 A 
HETATM    3  C   UNL     1      29.706  44.510  55.593  1.00  0.00     0.030 A 
HETATM    4  C   UNL     1      30.489  43.493  55.063  1.00  0.00     0.063 A 
HETATM    5  N   UNL     1      31.466  43.267  55.991  1.00  0.00    -0.277 N 
HETATM    6  H   UNL     1      32.213  42.584  55.942  1.00  0.00     0.189 HD
HETATM    7  N   UNL     1      31.402  44.060  57.073  1.00  0.00    -0.168 NA
HETATM    8  C   UNL     1      30.320  44.839  56.839  1.00  0.00     0.156 A 
HETATM    9  C   UNL     1      30.233  42.899  53.825  1.00  0.00     0.034 A 
HETATM   10  C   UNL     1      29.126  43.374  53.110  1.00  0.00     0.032 A 
ENDROOT
BRANCH   1  11
HETATM   11  N   UNL     1      27.209  44.779  52.805  1.00  0.00    -0.327 N 
HETATM   12  C   UNL     1      25.867  44.591  53.070  1.00  0.00     0.222 C 
HETATM   13  O   UNL     1      25.408  44.014  54.054  1.00  0.00    -0.273 OA
HETATM   14  H   UNL     1      27.454  45.084  51.874  1.00  0.00     0.169 HD
BRANCH  12  15
HETATM   15  C   UNL     1      24.896  45.230  52.081  1.00  0.00     0.112 C 
BRANCH  15  16
HETATM   16  C   UNL     1      25.243  45.231  50.579  1.00  0.00     0.027 C 
BRANCH  16  17
HETATM   17  C   UNL     1      24.237  46.078  49.763  1.00  0.00     0.005 C 
HETATM   18  C   UNL     1      24.327  47.574  50.033  1.00  0.00     0.006 C 
ENDBRANCH  16  17
BRANCH  16  19
HETATM   19  C   UNL     1      25.339  43.851  49.944  1.00  0.00    -0.054 A 
HETATM   20  C   UNL     1      24.210  43.050  49.717  1.00  0.00     0.007 A 
HETATM   21  C   UNL     1      24.341  41.782  49.148  1.00  0.00     0.001 A 
HETATM   22  C   UNL     1      25.598  41.305  48.783  1.00  0.00     0.000 A 
HETATM   23  C   UNL     1      26.726  42.096  48.982  1.00  0.00     0.001 A 
HETATM   24  C   UNL     1      26.598  43.361  49.555  1.00  0.00     0.007 A 
ENDBRANCH  16  19
ENDBRANCH  15  16
ENDBRANCH  12  15
ENDBRANCH   1  11
BRANCH   8  25
HETATM   25  C   UNL     1      29.905  45.873  57.798  1.00  0.00     0.270 C 
HETATM   26  N   UNL     1      30.937  46.413  58.516  1.00  0.00    -0.365 N 
HETATM   27  H   UNL     1      31.878  46.083  58.337  1.00  0.00     0.159 HD
HETATM   28  H   UNL     1      30.749  47.140  59.188  1.00  0.00     0.159 HD
HETATM   29  O   UNL     1      28.751  46.254  57.963  1.00  0.00    -0.266 OA
ENDBRANCH   8  25
TORSDOF 6
ENDMDL
MODEL 10
REMARK VINA RESULT:      -7.7      4.024      5.285
REMARK  6 active torsions:
REMARK  status: ('A' for Active; 'I' for Inactive)
REMARK    1  A    between atoms: C_2  and  C_3 
REMARK    2  A    between atoms: C_3  and  C_4 
REMARK    3  A    between atoms: C_3  and  C_10 
REMARK    4  A    between atoms: C_10  and  C_11 
REMARK       I    between atoms: C_11  and  N_12 
REMARK    5  A    between atoms: N_12  and  C_13 
REMARK    6  A    between atoms: C_20  and  C_21 
REMARK       I    between atoms: C_21  and  N_22 
ROOT
HETATM    1  C   UNL     1      26.012  42.200  51.318  1.00  0.00     0.035 A 
HETATM    2  C   UNL     1      24.968  42.808  50.608  1.00  0.00     0.046 A 
HETATM    3  C   UNL     1      24.437  42.170  49.466  1.00  0.00     0.030 A 
HETATM    4  C   UNL     1      24.974  40.952  49.068  1.00  0.00     0.063 A 
HETATM    5  N   UNL     1      24.279  40.599  47.946  1.00  0.00    -0.277 N 
HETATM    6  H   UNL     1      24.408  39.767  47.380  1.00  0.00     0.189 HD
HETATM    7  N   UNL     1      23.322  41.469  47.585  1.00  0.00    -0.168 NA
HETATM    8  C   UNL     1      23.404  42.445  48.519  1.00  0.00     0.156 A 
HETATM    9  C   UNL     1      26.010  40.315  49.755  1.00  0.00     0.034 A 
HETATM   10  C   UNL     1      26.510  40.962  50.892  1.00  0.00     0.032 A 
ENDROOT
BRANCH   1  11
HETATM   11  N   UNL     1      26.597  42.758  52.477  1.00  0.00    -0.327 N 
HETATM   12  C   UNL     1      27.118  44.029  52.614  1.00  0.00     0.222 C 
HETATM   13  O   UNL     1      27.181  44.875  51.723  1.00  0.00    -0.273 OA
HETATM   14  H   UNL     1      26.790  42.101  53.219  1.00  0.00     0.169 HD
BRANCH  12  15
HETATM   15  C   UNL     1      27.576  44.414  54.018  1.00  0.00     0.112 C 
BRANCH  15  16
HETATM   16  C   UNL     1      29.069  44.300  54.381  1.00  0.00     0.027 C 
BRANCH  16  17
HETATM   17  C   UNL     1      29.568  42.838  54.288  1.00  0.00     0.005 C 
HETATM   18  C   UNL     1      30.360  42.534  53.023  1.00  0.00     0.006 C 
ENDBRANCH  16  17
BRANCH  16  19
HETATM   19  C   UNL     1      29.438  44.849  55.751  1.00  0.00    -0.054 A 
HETATM   20  C   UNL     1      30.611  44.468  56.420  1.00  0.00     0.007 A 
HETATM   21  C   UNL     1      30.907  44.981  57.684  1.00  0.00     0.001 A 
HETATM   22  C   UNL     1      30.044  45.892  58.290  1.00  0.00     0.000 A 
HETATM   23  C   UNL     1      28.887  46.297  57.630  1.00  0.00     0.001 A 
HETATM   24  C   UNL     1      28.587  45.782  56.369  1.00  0.00     0.007 A 
ENDBRANCH  16  19
ENDBRANCH  15  16
ENDBRANCH  12  15
ENDBRANCH   1  11
BRANCH   8  25
HETATM   25  C   UNL     1      22.499  43.603  48.491  1.00  0.00     0.270 C 
HETATM   26  N   UNL     1      22.529  44.305  47.317  1.00  0.00    -0.365 N 
HETATM   27  H   UNL     1      23.138  43.984  46.574  1.00  0.00     0.159 HD
HETATM   28  H   UNL     1      21.930  45.108  47.201  1.00  0.00     0.159 HD
HETATM   29  O   UNL     1      21.762  43.940  49.411  1.00  0.00    -0.266 OA
ENDBRANCH   8  25
TORSDOF 6
ENDMDL
