MODEL 1
REMARK VINA RESULT:      -8.9      0.000      0.000
REMARK  5 active torsions:
REMARK  status: ('A' for Active; 'I' for Inactive)
REMARK    1  A    between atoms: C_8  and  C_9 
REMARK    2  A    between atoms: C_9  and  C_10 
REMARK       I    between atoms: C_10  and  N_11 
REMARK    3  A    between atoms: N_11  and  C_12 
REMARK    4  A    between atoms: C_12  and  C_13 
REMARK    5  A    between atoms: C_13  and  C_14 
ROOT
HETATM    1  C   UNL     1      24.818  46.910  51.368  1.00  0.00     0.226 C 
HETATM    2  N   UNL     1      24.826  45.542  51.536  1.00  0.00    -0.360 N 
HETATM    3  O   UNL     1      25.242  47.669  52.240  1.00  0.00    -0.273 OA
HETATM    4  H   UNL     1      24.501  44.931  50.800  1.00  0.00     0.162 HD
ENDROOT
BRANCH   2   5
HETATM    5  C   UNL     1      25.370  44.930  52.736  1.00  0.00     0.127 C 
BRANCH   5   6
HETATM    6  C   UNL     1      26.878  44.676  52.642  1.00  0.00     0.060 C 
BRANCH   6   7
HETATM    7  C   UNL     1      27.611  45.198  53.838  1.00  0.00    -0.029 A 
HETATM    8  C   UNL     1      28.732  44.583  54.483  1.00  0.00    -0.002 A 
HETATM    9  C   UNL     1      29.094  45.398  55.555  1.00  0.00     0.044 A 
HETATM   10  C   UNL     1      29.467  43.402  54.251  1.00  0.00     0.016 A 
HETATM   11  C   UNL     1      30.158  45.091  56.414  1.00  0.00     0.054 A 
HETATM   12  N   UNL     1      28.234  46.471  55.559  1.00  0.00    -0.365 N 
HETATM   13  C   UNL     1      30.868  43.913  56.161  1.00  0.00     0.036 A 
HETATM   14 CL   UNL     1      32.184  43.489  57.190  1.00  0.00    -0.084 Cl
HETATM   15  C   UNL     1      30.534  43.078  55.099  1.00  0.00     0.025 A 
HETATM   16  H   UNL     1      28.266  47.229  56.226  1.00  0.00     0.165 HD
HETATM   17  C   UNL     1      27.336  46.361  54.531  1.00  0.00     0.096 A 
ENDBRANCH   6   7
ENDBRANCH   5   6
ENDBRANCH   2   5
BRANCH   1  18
HETATM   18  C   UNL     1      24.291  47.444  50.028  1.00  0.00     0.111 C 
HETATM   19  C   UNL     1      23.676  46.392  49.105  1.00  0.00     0.025 C 
BRANCH  18  20
HETATM   20  C   UNL     1      25.315  48.290  49.320  1.00  0.00     0.004 A 
HETATM   21  C   UNL     1      26.661  47.997  49.162  1.00  0.00     0.033 A 
HETATM   22  C   UNL     1      27.476  46.834  49.586  1.00  0.00     0.070 C 
HETATM   23  N   UNL     1      27.197  49.038  48.459  1.00  0.00    -0.282 N 
HETATM   24  H   UNL     1      28.155  49.158  48.148  1.00  0.00     0.189 HD
HETATM   25  N   UNL     1      26.316  50.000  48.170  1.00  0.00    -0.179 NA
HETATM   26  C   UNL     1      25.159  49.552  48.671  1.00  0.00     0.060 A 
HETATM   27  C   UNL     1      23.935  50.374  48.496  1.00  0.00     0.073 C 
ENDBRANCH  18  20
ENDBRANCH   1  18
TORSDOF 5
ENDMDL
MODEL 2
REMARK VINA RESULT:      -8.6      1.286      2.469
REMARK  5 active torsions:
REMARK  status: ('A' for Active; 'I' for Inactive)
REMARK    1  A    between atoms: C_8  and  C_9 
REMARK    2  A    between atoms: C_9  and  C_10 
REMARK       I    between atoms: C_10  and  N_11 
REMARK    3  A    between atoms: N_11  and  C_12 
REMARK    4  A    between atoms: C_12  and  C_13 
REMARK    5  A    between atoms: C_13  and  C_14 
ROOT
HETATM    1  C   UNL     1      24.769  46.172  51.631  1.00  0.00     0.226 C 
HETATM    2  N   UNL     1      25.408  46.986  52.542  1.00  0.00    -0.360 N 
HETATM    3  O   UNL     1      24.397  45.037  51.930  1.00  0.00    -0.273 OA
HETATM    4  H   UNL     1      25.683  47.924  52.290  1.00  0.00     0.162 HD
ENDROOT
BRANCH   2   5
HETATM    5  C   UNL     1      25.639  46.554  53.910  1.00  0.00     0.127 C 
BRANCH   5   6
HETATM    6  C   UNL     1      27.087  46.764  54.363  1.00  0.00     0.060 C 
BRANCH   6   7
HETATM    7  C   UNL     1      27.884  45.499  54.302  1.00  0.00    -0.029 A 
HETATM    8  C   UNL     1      28.959  45.128  55.173  1.00  0.00    -0.002 A 
HETATM    9  C   UNL     1      29.421  43.880  54.757  1.00  0.00     0.044 A 
HETATM   10  C   UNL     1      29.581  45.748  56.277  1.00  0.00     0.016 A 
HETATM   11  C   UNL     1      30.481  43.216  55.389  1.00  0.00     0.054 A 
HETATM   12  N   UNL     1      28.654  43.501  53.680  1.00  0.00    -0.365 N 
HETATM   13  C   UNL     1      31.080  43.855  56.479  1.00  0.00     0.036 A 
HETATM   14 CL   UNL     1      32.390  43.081  57.289  1.00  0.00    -0.084 Cl
HETATM   15  C   UNL     1      30.642  45.100  56.921  1.00  0.00     0.025 A 
HETATM   16  H   UNL     1      28.763  42.632  53.176  1.00  0.00     0.165 HD
HETATM   17  C   UNL     1      27.727  44.468  53.397  1.00  0.00     0.096 A 
ENDBRANCH   6   7
ENDBRANCH   5   6
ENDBRANCH   2   5
BRANCH   1  18
HETATM   18  C   UNL     1      24.508  46.760  50.236  1.00  0.00     0.111 C 
HETATM   19  C   UNL     1      23.759  45.840  49.272  1.00  0.00     0.025 C 
BRANCH  18  20
HETATM   20  C   UNL     1      25.762  47.324  49.622  1.00  0.00     0.004 A 
HETATM   21  C   UNL     1      25.912  48.584  49.062  1.00  0.00     0.033 A 
HETATM   22  C   UNL     1      24.969  49.716  48.908  1.00  0.00     0.070 C 
HETATM   23  N   UNL     1      27.208  48.660  48.639  1.00  0.00    -0.282 N 
HETATM   24  H   UNL     1      27.678  49.440  48.194  1.00  0.00     0.189 HD
HETATM   25  N   UNL     1      27.908  47.541  48.852  1.00  0.00    -0.179 NA
HETATM   26  C   UNL     1      27.048  46.723  49.468  1.00  0.00     0.060 A 
HETATM   27  C   UNL     1      27.513  45.378  49.889  1.00  0.00     0.073 C 
ENDBRANCH  18  20
ENDBRANCH   1  18
TORSDOF 5
ENDMDL
MODEL 3
REMARK VINA RESULT:      -8.4      3.603      5.104
REMARK  5 active torsions:
REMARK  status: ('A' for Active; 'I' for Inactive)
REMARK    1  A    between atoms: C_8  and  C_9 
REMARK    2  A    between atoms: C_9  and  C_10 
REMARK       I    between atoms: C_10  and  N_11 
REMARK    3  A    between atoms: N_11  and  C_12 
REMARK    4  A    between atoms: C_12  and  C_13 
REMARK    5  A    between atoms: C_13  and  C_14 
ROOT
HETATM    1  C   UNL     1      26.602  43.753  50.035  1.00  0.00     0.226 C 
HETATM    2  N   UNL     1      26.004  44.014  51.250  1.00  0.00    -0.360 N 
HETATM    3  O   UNL     1      27.432  44.520  49.546  1.00  0.00    -0.273 OA
HETATM    4  H   UNL     1      25.346  43.361  51.650  1.00  0.00     0.162 HD
ENDROOT
BRANCH   2   5
HETATM    5  C   UNL     1      26.355  45.190  52.027  1.00  0.00     0.127 C 
BRANCH   5   6
HETATM    6  C   UNL     1      26.009  45.045  53.512  1.00  0.00     0.060 C 
BRANCH   6   7
HETATM    7  C   UNL     1      27.106  45.548  54.396  1.00  0.00    -0.029 A 
HETATM    8  C   UNL     1      28.269  44.820  54.808  1.00  0.00    -0.002 A 
HETATM    9  C   UNL     1      29.018  45.660  55.630  1.00  0.00     0.044 A 
HETATM   10  C   UNL     1      28.747  43.517  54.554  1.00  0.00     0.016 A 
HETATM   11  C   UNL     1      30.227  45.263  56.218  1.00  0.00     0.054 A 
HETATM   12  N   UNL     1      28.344  46.855  55.711  1.00  0.00    -0.365 N 
HETATM   13  C   UNL     1      30.674  43.966  55.951  1.00  0.00     0.036 A 
HETATM   14 CL   UNL     1      32.154  43.429  56.653  1.00  0.00    -0.084 Cl
HETATM   15  C   UNL     1      29.953  43.102  55.133  1.00  0.00     0.025 A 
HETATM   16  H   UNL     1      28.659  47.657  56.239  1.00  0.00     0.165 HD
HETATM   17  C   UNL     1      27.191  46.800  54.974  1.00  0.00     0.096 A 
ENDBRANCH   6   7
ENDBRANCH   5   6
ENDBRANCH   2   5
BRANCH   1  18
HETATM   18  C   UNL     1      26.212  42.441  49.336  1.00  0.00     0.111 C 
HETATM   19  C   UNL     1      24.894  41.823  49.800  1.00  0.00     0.025 C 
BRANCH  18  20
HETATM   20  C   UNL     1      27.342  41.445  49.346  1.00  0.00     0.004 A 
HETATM   21  C   UNL     1      27.974  40.926  50.465  1.00  0.00     0.033 A 
HETATM   22  C   UNL     1      27.757  41.145  51.914  1.00  0.00     0.070 C 
HETATM   23  N   UNL     1      28.926  40.065  49.999  1.00  0.00    -0.282 N 
HETATM   24  H   UNL     1      29.571  39.494  50.532  1.00  0.00     0.189 HD
HETATM   25  N   UNL     1      28.984  40.001  48.664  1.00  0.00    -0.179 NA
HETATM   26  C   UNL     1      28.012  40.822  48.250  1.00  0.00     0.060 A 
HETATM   27  C   UNL     1      27.770  40.968  46.793  1.00  0.00     0.073 C 
ENDBRANCH  18  20
ENDBRANCH   1  18
TORSDOF 5
ENDMDL
MODEL 4
REMARK VINA RESULT:      -8.3     11.878     13.361
REMARK  5 active torsions:
REMARK  status: ('A' for Active; 'I' for Inactive)
REMARK    1  A    between atoms: C_8  and  C_9 
REMARK    2  A    between atoms: C_9  and  C_10 
REMARK       I    between atoms: C_10  and  N_11 
REMARK    3  A    between atoms: N_11  and  C_12 
REMARK    4  A    between atoms: C_12  and  C_13 
REMARK    5  A    between atoms: C_13  and  C_14 
ROOT
HETATM    1  C   UNL     1      29.689  49.763  39.039  1.00  0.00     0.226 C 
HETATM    2  N   UNL     1      30.934  49.218  39.271  1.00  0.00    -0.360 N 
HETATM    3  O   UNL     1      28.667  49.076  39.072  1.00  0.00    -0.273 OA
HETATM    4  H   UNL     1      31.759  49.800  39.267  1.00  0.00     0.162 HD
ENDROOT
BRANCH   2   5
HETATM    5  C   UNL     1      31.094  47.813  39.603  1.00  0.00     0.127 C 
BRANCH   5   6
HETATM    6  C   UNL     1      32.100  47.580  40.735  1.00  0.00     0.060 C 
BRANCH   6   7
HETATM    7  C   UNL     1      32.172  48.745  41.670  1.00  0.00    -0.029 A 
HETATM    8  C   UNL     1      33.312  49.581  41.903  1.00  0.00    -0.002 A 
HETATM    9  C   UNL     1      32.944  50.534  42.852  1.00  0.00     0.044 A 
HETATM   10  C   UNL     1      34.625  49.607  41.390  1.00  0.00     0.016 A 
HETATM   11  C   UNL     1      33.828  51.515  43.321  1.00  0.00     0.054 A 
HETATM   12  N   UNL     1      31.631  50.293  43.181  1.00  0.00    -0.365 N 
HETATM   13  C   UNL     1      35.124  51.515  42.796  1.00  0.00     0.036 A 
HETATM   14 CL   UNL     1      36.249  52.702  43.342  1.00  0.00    -0.084 Cl
HETATM   15  C   UNL     1      35.523  50.580  41.846  1.00  0.00     0.025 A 
HETATM   16  H   UNL     1      31.098  50.837  43.846  1.00  0.00     0.165 HD
HETATM   17  C   UNL     1      31.156  49.219  42.477  1.00  0.00     0.096 A 
ENDBRANCH   6   7
ENDBRANCH   5   6
ENDBRANCH   2   5
BRANCH   1  18
HETATM   18  C   UNL     1      29.630  51.275  38.773  1.00  0.00     0.111 C 
HETATM   19  C   UNL     1      30.303  51.735  37.481  1.00  0.00     0.025 C 
BRANCH  18  20
HETATM   20  C   UNL     1      30.088  52.071  39.967  1.00  0.00     0.004 A 
HETATM   21  C   UNL     1      29.296  52.519  41.013  1.00  0.00     0.033 A 
HETATM   22  C   UNL     1      27.850  52.360  41.298  1.00  0.00     0.070 C 
HETATM   23  N   UNL     1      30.130  53.189  41.861  1.00  0.00    -0.282 N 
HETATM   24  H   UNL     1      29.902  53.638  42.741  1.00  0.00     0.189 HD
HETATM   25  N   UNL     1      31.398  53.238  41.439  1.00  0.00    -0.179 NA
HETATM   26  C   UNL     1      31.394  52.546  40.294  1.00  0.00     0.060 A 
HETATM   27  C   UNL     1      32.670  52.369  39.558  1.00  0.00     0.073 C 
ENDBRANCH  18  20
ENDBRANCH   1  18
TORSDOF 5
ENDMDL
MODEL 5
REMARK VINA RESULT:      -8.3     11.580     13.765
REMARK  5 active torsions:
REMARK  status: ('A' for Active; 'I' for Inactive)
REMARK    1  A    between atoms: C_8  and  C_9 
REMARK    2  A    between atoms: C_9  and  C_10 
REMARK       I    between atoms: C_10  and  N_11 
REMARK    3  A    between atoms: N_11  and  C_12 
REMARK    4  A    between atoms: C_12  and  C_13 
REMARK    5  A    between atoms: C_13  and  C_14 
ROOT
HETATM    1  C   UNL     1      31.442  52.380  42.840  1.00  0.00     0.226 C 
HETATM    2  N   UNL     1      31.691  52.711  41.525  1.00  0.00    -0.360 N 
HETATM    3  O   UNL     1      30.497  52.868  43.460  1.00  0.00    -0.273 OA
HETATM    4  H   UNL     1      32.453  52.281  41.021  1.00  0.00     0.162 HD
ENDROOT
BRANCH   2   5
HETATM    5  C   UNL     1      30.828  53.627  40.799  1.00  0.00     0.127 C 
BRANCH   5   6
HETATM    6  C   UNL     1      30.021  52.934  39.697  1.00  0.00     0.060 C 
BRANCH   6   7
HETATM    7  C   UNL     1      29.013  51.979  40.253  1.00  0.00    -0.029 A 
HETATM    8  C   UNL     1      28.956  50.568  40.014  1.00  0.00    -0.002 A 
HETATM    9  C   UNL     1      27.859  50.070  40.716  1.00  0.00     0.044 A 
HETATM   10  C   UNL     1      29.740  49.672  39.258  1.00  0.00     0.016 A 
HETATM   11  C   UNL     1      27.501  48.715  40.700  1.00  0.00     0.054 A 
HETATM   12  N   UNL     1      27.276  51.133  41.364  1.00  0.00    -0.365 N 
HETATM   13  C   UNL     1      28.295  47.851  39.940  1.00  0.00     0.036 A 
HETATM   14 CL   UNL     1      27.896  46.175  39.886  1.00  0.00    -0.084 Cl
HETATM   15  C   UNL     1      29.398  48.314  39.229  1.00  0.00     0.025 A 
HETATM   16  H   UNL     1      26.459  51.065  41.956  1.00  0.00     0.165 HD
HETATM   17  C   UNL     1      27.960  52.287  41.092  1.00  0.00     0.096 A 
ENDBRANCH   6   7
ENDBRANCH   5   6
ENDBRANCH   2   5
BRANCH   1  18
HETATM   18  C   UNL     1      32.374  51.342  43.485  1.00  0.00     0.111 C 
HETATM   19  C   UNL     1      33.601  51.920  44.189  1.00  0.00     0.025 C 
BRANCH  18  20
HETATM   20  C   UNL     1      32.737  50.241  42.523  1.00  0.00     0.004 A 
HETATM   21  C   UNL     1      33.886  50.166  41.751  1.00  0.00     0.033 A 
HETATM   22  C   UNL     1      35.060  51.064  41.635  1.00  0.00     0.070 C 
HETATM   23  N   UNL     1      33.791  49.004  41.041  1.00  0.00    -0.282 N 
HETATM   24  H   UNL     1      34.457  48.614  40.383  1.00  0.00     0.189 HD
HETATM   25  N   UNL     1      32.660  48.328  41.267  1.00  0.00    -0.179 NA
HETATM   26  C   UNL     1      32.014  49.059  42.182  1.00  0.00     0.060 A 
HETATM   27  C   UNL     1      30.709  48.574  42.696  1.00  0.00     0.073 C 
ENDBRANCH  18  20
ENDBRANCH   1  18
TORSDOF 5
ENDMDL
MODEL 6
REMARK VINA RESULT:      -8.2     11.823     14.216
REMARK  5 active torsions:
REMARK  status: ('A' for Active; 'I' for Inactive)
REMARK    1  A    between atoms: C_8  and  C_9 
REMARK    2  A    between atoms: C_9  and  C_10 
REMARK       I    between atoms: C_10  and  N_11 
REMARK    3  A    between atoms: N_11  and  C_12 
REMARK    4  A    between atoms: C_12  and  C_13 
REMARK    5  A    between atoms: C_13  and  C_14 
ROOT
HETATM    1  C   UNL     1      31.335  52.439  42.827  1.00  0.00     0.226 C 
HETATM    2  N   UNL     1      31.788  52.815  41.580  1.00  0.00    -0.360 N 
HETATM    3  O   UNL     1      30.270  52.859  43.280  1.00  0.00    -0.273 OA
HETATM    4  H   UNL     1      32.650  52.441  41.211  1.00  0.00     0.162 HD
ENDROOT
BRANCH   2   5
HETATM    5  C   UNL     1      31.010  53.698  40.727  1.00  0.00     0.127 C 
BRANCH   5   6
HETATM    6  C   UNL     1      30.068  52.938  39.788  1.00  0.00     0.060 C 
BRANCH   6   7
HETATM    7  C   UNL     1      30.655  51.639  39.334  1.00  0.00    -0.029 A 
HETATM    8  C   UNL     1      30.066  50.342  39.482  1.00  0.00    -0.002 A 
HETATM    9  C   UNL     1      30.951  49.416  38.930  1.00  0.00     0.044 A 
HETATM   10  C   UNL     1      28.859  49.874  40.041  1.00  0.00     0.016 A 
HETATM   11  C   UNL     1      30.692  48.039  38.910  1.00  0.00     0.054 A 
HETATM   12  N   UNL     1      32.033  50.121  38.458  1.00  0.00    -0.365 N 
HETATM   13  C   UNL     1      29.488  47.605  39.474  1.00  0.00     0.036 A 
HETATM   14 CL   UNL     1      29.123  45.920  39.476  1.00  0.00    -0.084 Cl
HETATM   15  C   UNL     1      28.581  48.501  40.031  1.00  0.00     0.025 A 
HETATM   16  H   UNL     1      32.832  49.706  37.999  1.00  0.00     0.165 HD
HETATM   17  C   UNL     1      31.867  51.459  38.696  1.00  0.00     0.096 A 
ENDBRANCH   6   7
ENDBRANCH   5   6
ENDBRANCH   2   5
BRANCH   1  18
HETATM   18  C   UNL     1      32.202  51.441  43.609  1.00  0.00     0.111 C 
HETATM   19  C   UNL     1      33.229  52.070  44.550  1.00  0.00     0.025 C 
BRANCH  18  20
HETATM   20  C   UNL     1      32.818  50.405  42.706  1.00  0.00     0.004 A 
HETATM   21  C   UNL     1      32.274  49.175  42.370  1.00  0.00     0.033 A 
HETATM   22  C   UNL     1      30.996  48.524  42.742  1.00  0.00     0.070 C 
HETATM   23  N   UNL     1      33.173  48.579  41.533  1.00  0.00    -0.282 N 
HETATM   24  H   UNL     1      33.103  47.676  41.077  1.00  0.00     0.189 HD
HETATM   25  N   UNL     1      34.272  49.310  41.316  1.00  0.00    -0.179 NA
HETATM   26  C   UNL     1      34.064  50.435  42.009  1.00  0.00     0.060 A 
HETATM   27  C   UNL     1      35.092  51.504  41.965  1.00  0.00     0.073 C 
ENDBRANCH  18  20
ENDBRANCH   1  18
TORSDOF 5
ENDMDL
MODEL 7
REMARK VINA RESULT:      -8.1     11.826     13.786
REMARK  5 active torsions:
REMARK  status: ('A' for Active; 'I' for Inactive)
REMARK    1  A    between atoms: C_8  and  C_9 
REMARK    2  A    between atoms: C_9  and  C_10 
REMARK       I    between atoms: C_10  and  N_11 
REMARK    3  A    between atoms: N_11  and  C_12 
REMARK    4  A    between atoms: C_12  and  C_13 
REMARK    5  A    between atoms: C_13  and  C_14 
ROOT
HETATM    1  C   UNL     1      31.127  52.089  41.861  1.00  0.00     0.226 C 
HETATM    2  N   UNL     1      31.676  50.828  41.772  1.00  0.00    -0.360 N 
HETATM    3  O   UNL     1      30.822  52.584  42.947  1.00  0.00    -0.273 OA
HETATM    4  H   UNL     1      31.947  50.447  40.876  1.00  0.00     0.162 HD
ENDROOT
BRANCH   2   5
HETATM    5  C   UNL     1      31.955  50.038  42.959  1.00  0.00     0.127 C 
BRANCH   5   6
HETATM    6  C   UNL     1      31.437  48.601  42.852  1.00  0.00     0.060 C 
BRANCH   6   7
HETATM    7  C   UNL     1      30.968  48.274  41.470  1.00  0.00    -0.029 A 
HETATM    8  C   UNL     1      29.622  48.358  40.986  1.00  0.00    -0.002 A 
HETATM    9  C   UNL     1      29.632  47.955  39.651  1.00  0.00     0.044 A 
HETATM   10  C   UNL     1      28.395  48.739  41.570  1.00  0.00     0.016 A 
HETATM   11  C   UNL     1      28.473  47.910  38.865  1.00  0.00     0.054 A 
HETATM   12  N   UNL     1      30.933  47.645  39.331  1.00  0.00    -0.365 N 
HETATM   13  C   UNL     1      27.272  48.291  39.471  1.00  0.00     0.036 A 
HETATM   14 CL   UNL     1      25.817  48.250  38.547  1.00  0.00    -0.084 Cl
HETATM   15  C   UNL     1      27.226  48.700  40.800  1.00  0.00     0.025 A 
HETATM   16  H   UNL     1      31.239  47.327  38.422  1.00  0.00     0.165 HD
HETATM   17  C   UNL     1      31.745  47.832  40.418  1.00  0.00     0.096 A 
ENDBRANCH   6   7
ENDBRANCH   5   6
ENDBRANCH   2   5
BRANCH   1  18
HETATM   18  C   UNL     1      30.947  52.865  40.548  1.00  0.00     0.111 C 
HETATM   19  C   UNL     1      30.877  54.385  40.694  1.00  0.00     0.025 C 
BRANCH  18  20
HETATM   20  C   UNL     1      29.808  52.321  39.727  1.00  0.00     0.004 A 
HETATM   21  C   UNL     1      28.472  52.279  40.095  1.00  0.00     0.033 A 
HETATM   22  C   UNL     1      27.768  52.737  41.316  1.00  0.00     0.070 C 
HETATM   23  N   UNL     1      27.807  51.709  39.048  1.00  0.00    -0.282 N 
HETATM   24  H   UNL     1      26.813  51.532  38.957  1.00  0.00     0.189 HD
HETATM   25  N   UNL     1      28.605  51.351  38.036  1.00  0.00    -0.179 NA
HETATM   26  C   UNL     1      29.826  51.734  38.425  1.00  0.00     0.060 A 
HETATM   27  C   UNL     1      30.973  51.514  37.509  1.00  0.00     0.073 C 
ENDBRANCH  18  20
ENDBRANCH   1  18
TORSDOF 5
ENDMDL
MODEL 8
REMARK VINA RESULT:      -8.0      4.002      8.618
REMARK  5 active torsions:
REMARK  status: ('A' for Active; 'I' for Inactive)
REMARK    1  A    between atoms: C_8  and  C_9 
REMARK    2  A    between atoms: C_9  and  C_10 
REMARK       I    between atoms: C_10  and  N_11 
REMARK    3  A    between atoms: N_11  and  C_12 
REMARK    4  A    between atoms: C_12  and  C_13 
REMARK    5  A    between atoms: C_13  and  C_14 
ROOT
HETATM    1  C   UNL     1      26.912  44.830  51.760  1.00  0.00     0.226 C 
HETATM    2  N   UNL     1      26.195  45.904  51.279  1.00  0.00    -0.360 N 
HETATM    3  O   UNL     1      27.720  44.225  51.055  1.00  0.00    -0.273 OA
HETATM    4  H   UNL     1      25.557  46.407  51.878  1.00  0.00     0.162 HD
ENDROOT
BRANCH   2   5
HETATM    5  C   UNL     1      26.387  46.395  49.925  1.00  0.00     0.127 C 
BRANCH   5   6
HETATM    6  C   UNL     1      25.825  47.805  49.719  1.00  0.00     0.060 C 
BRANCH   6   7
HETATM    7  C   UNL     1      24.355  47.788  49.440  1.00  0.00    -0.029 A 
HETATM    8  C   UNL     1      23.527  48.926  49.172  1.00  0.00    -0.002 A 
HETATM    9  C   UNL     1      22.227  48.460  48.979  1.00  0.00     0.044 A 
HETATM   10  C   UNL     1      23.770  50.312  49.080  1.00  0.00     0.016 A 
HETATM   11  C   UNL     1      21.150  49.312  48.700  1.00  0.00     0.054 A 
HETATM   12  N   UNL     1      22.262  47.092  49.116  1.00  0.00    -0.365 N 
HETATM   13  C   UNL     1      21.421  50.682  48.617  1.00  0.00     0.036 A 
HETATM   14 CL   UNL     1      20.130  51.772  48.278  1.00  0.00    -0.084 Cl
HETATM   15  C   UNL     1      22.707  51.181  48.802  1.00  0.00     0.025 A 
HETATM   16  H   UNL     1      21.459  46.486  49.022  1.00  0.00     0.165 HD
HETATM   17  C   UNL     1      23.536  46.677  49.395  1.00  0.00     0.096 A 
ENDBRANCH   6   7
ENDBRANCH   5   6
ENDBRANCH   2   5
BRANCH   1  18
HETATM   18  C   UNL     1      26.686  44.445  53.231  1.00  0.00     0.111 C 
HETATM   19  C   UNL     1      25.234  44.508  53.703  1.00  0.00     0.025 C 
BRANCH  18  20
HETATM   20  C   UNL     1      27.616  45.188  54.153  1.00  0.00     0.004 A 
HETATM   21  C   UNL     1      27.454  46.484  54.620  1.00  0.00     0.033 A 
HETATM   22  C   UNL     1      26.386  47.488  54.402  1.00  0.00     0.070 C 
HETATM   23  N   UNL     1      28.529  46.735  55.423  1.00  0.00    -0.282 N 
HETATM   24  H   UNL     1      28.738  47.578  55.947  1.00  0.00     0.189 HD
HETATM   25  N   UNL     1      29.394  45.718  55.496  1.00  0.00    -0.179 NA
HETATM   26  C   UNL     1      28.844  44.760  54.743  1.00  0.00     0.060 A 
HETATM   27  C   UNL     1      29.537  43.453  54.626  1.00  0.00     0.073 C 
ENDBRANCH  18  20
ENDBRANCH   1  18
TORSDOF 5
ENDMDL
MODEL 9
REMARK VINA RESULT:      -7.9     12.130     13.867
REMARK  5 active torsions:
REMARK  status: ('A' for Active; 'I' for Inactive)
REMARK    1  A    between atoms: C_8  and  C_9 
REMARK    2  A    between atoms: C_9  and  C_10 
REMARK       I    between atoms: C_10  and  N_11 
REMARK    3  A    between atoms: N_11  and  C_12 
REMARK    4  A    between atoms: C_12  and  C_13 
REMARK    5  A    between atoms: C_13  and  C_14 
ROOT
HETATM    1  C   UNL     1      30.413  51.507  38.253  1.00  0.00     0.226 C 
HETATM    2  N   UNL     1      31.085  51.450  39.455  1.00  0.00    -0.360 N 
HETATM    3  O   UNL     1      30.939  51.145  37.201  1.00  0.00    -0.273 OA
HETATM    4  H   UNL     1      30.630  51.725  40.314  1.00  0.00     0.162 HD
ENDROOT
BRANCH   2   5
HETATM    5  C   UNL     1      32.437  50.924  39.541  1.00  0.00     0.127 C 
BRANCH   5   6
HETATM    6  C   UNL     1      32.639  50.001  40.746  1.00  0.00     0.060 C 
BRANCH   6   7
HETATM    7  C   UNL     1      31.374  49.311  41.145  1.00  0.00    -0.029 A 
HETATM    8  C   UNL     1      30.615  48.396  40.346  1.00  0.00    -0.002 A 
HETATM    9  C   UNL     1      29.510  48.000  41.099  1.00  0.00     0.044 A 
HETATM   10  C   UNL     1      30.771  47.872  39.045  1.00  0.00     0.016 A 
HETATM   11  C   UNL     1      28.545  47.106  40.616  1.00  0.00     0.054 A 
HETATM   12  N   UNL     1      29.595  48.643  42.311  1.00  0.00    -0.365 N 
HETATM   13  C   UNL     1      28.725  46.605  39.323  1.00  0.00     0.036 A 
HETATM   14 CL   UNL     1      27.564  45.504  38.682  1.00  0.00    -0.084 Cl
HETATM   15  C   UNL     1      29.817  46.977  38.545  1.00  0.00     0.025 A 
HETATM   16  H   UNL     1      28.927  48.539  43.063  1.00  0.00     0.165 HD
HETATM   17  C   UNL     1      30.711  49.435  42.351  1.00  0.00     0.096 A 
ENDBRANCH   6   7
ENDBRANCH   5   6
ENDBRANCH   2   5
BRANCH   1  18
HETATM   18  C   UNL     1      28.961  52.008  38.292  1.00  0.00     0.111 C 
HETATM   19  C   UNL     1      28.795  53.527  38.244  1.00  0.00     0.025 C 
BRANCH  18  20
HETATM   20  C   UNL     1      28.184  51.389  39.424  1.00  0.00     0.004 A 
HETATM   21  C   UNL     1      27.251  50.367  39.322  1.00  0.00     0.033 A 
HETATM   22  C   UNL     1      26.758  49.590  38.161  1.00  0.00     0.070 C 
HETATM   23  N   UNL     1      26.809  50.130  40.592  1.00  0.00    -0.282 N 
HETATM   24  H   UNL     1      26.134  49.440  40.902  1.00  0.00     0.189 HD
HETATM   25  N   UNL     1      27.358  50.932  41.510  1.00  0.00    -0.179 NA
HETATM   26  C   UNL     1      28.212  51.693  40.818  1.00  0.00     0.060 A 
HETATM   27  C   UNL     1      29.032  52.694  41.545  1.00  0.00     0.073 C 
ENDBRANCH  18  20
ENDBRANCH   1  18
TORSDOF 5
ENDMDL
MODEL 10
REMARK VINA RESULT:      -7.9      2.168      3.105
REMARK  5 active torsions:
REMARK  status: ('A' for Active; 'I' for Inactive)
REMARK    1  A    between atoms: C_8  and  C_9 
REMARK    2  A    between atoms: C_9  and  C_10 
REMARK       I    between atoms: C_10  and  N_11 
REMARK    3  A    between atoms: N_11  and  C_12 
REMARK    4  A    between atoms: C_12  and  C_13 
REMARK    5  A    between atoms: C_13  and  C_14 
ROOT
HETATM    1  C   UNL     1      24.976  43.522  51.251  1.00  0.00     0.226 C 
HETATM    2  N   UNL     1      26.165  42.825  51.243  1.00  0.00    -0.360 N 
HETATM    3  O   UNL     1      24.520  44.009  52.285  1.00  0.00    -0.273 OA
HETATM    4  H   UNL     1      26.540  42.455  50.381  1.00  0.00     0.162 HD
ENDROOT
BRANCH   2   5
HETATM    5  C   UNL     1      26.955  42.664  52.452  1.00  0.00     0.127 C 
BRANCH   5   6
HETATM    6  C   UNL     1      28.210  43.541  52.464  1.00  0.00     0.060 C 
BRANCH   6   7
HETATM    7  C   UNL     1      28.254  44.442  53.657  1.00  0.00    -0.029 A 
HETATM    8  C   UNL     1      29.194  44.378  54.736  1.00  0.00    -0.002 A 
HETATM    9  C   UNL     1      28.867  45.394  55.635  1.00  0.00     0.044 A 
HETATM   10  C   UNL     1      30.291  43.542  55.029  1.00  0.00     0.016 A 
HETATM   11  C   UNL     1      29.584  45.617  56.818  1.00  0.00     0.054 A 
HETATM   12  N   UNL     1      27.777  46.055  55.120  1.00  0.00    -0.365 N 
HETATM   13  C   UNL     1      30.665  44.771  57.083  1.00  0.00     0.036 A 
HETATM   14 CL   UNL     1      31.577  45.003  58.527  1.00  0.00    -0.084 Cl
HETATM   15  C   UNL     1      31.020  43.749  56.208  1.00  0.00     0.025 A 
HETATM   16  H   UNL     1      27.326  46.845  55.560  1.00  0.00     0.165 HD
HETATM   17  C   UNL     1      27.399  45.491  53.932  1.00  0.00     0.096 A 
ENDBRANCH   6   7
ENDBRANCH   5   6
ENDBRANCH   2   5
BRANCH   1  18
HETATM   18  C   UNL     1      24.264  43.697  49.901  1.00  0.00     0.111 C 
HETATM   19  C   UNL     1      24.954  43.033  48.710  1.00  0.00     0.025 C 
BRANCH  18  20
HETATM   20  C   UNL     1      23.927  45.140  49.628  1.00  0.00     0.004 A 
HETATM   21  C   UNL     1      22.725  45.627  49.136  1.00  0.00     0.033 A 
HETATM   22  C   UNL     1      21.462  44.949  48.760  1.00  0.00     0.070 C 
HETATM   23  N   UNL     1      22.871  46.982  49.053  1.00  0.00    -0.282 N 
HETATM   24  H   UNL     1      22.191  47.669  48.749  1.00  0.00     0.189 HD
HETATM   25  N   UNL     1      24.080  47.416  49.426  1.00  0.00    -0.179 NA
HETATM   26  C   UNL     1      24.730  46.308  49.797  1.00  0.00     0.060 A 
HETATM   27  C   UNL     1      26.119  46.428  50.308  1.00  0.00     0.073 C 
ENDBRANCH  18  20
ENDBRANCH   1  18
TORSDOF 5
ENDMDL
