MODEL 1
REMARK VINA RESULT:      -7.9      0.000      0.000
REMARK  7 active torsions:
REMARK  status: ('A' for Active; 'I' for Inactive)
REMARK    1  A    between atoms: C_2  and  N_3 
REMARK    2  A    between atoms: N_3  and  C_5 
REMARK    3  A    between atoms: N_3  and  C_17 
REMARK    4  A    between atoms: C_5  and  C_6 
REMARK       I    between atoms: C_6  and  N_7 
REMARK    5  A    between atoms: N_7  and  C_8 
REMARK    6  A    between atoms: C_17  and  C_18 
REMARK    7  A    between atoms: C_19  and  C_20 
ROOT
HETATM    1  N   UNL     1      27.166  43.523  51.108  1.00  0.00    -0.059 N 
HETATM    2  H   UNL     1      28.115  43.328  51.444  1.00  0.00     0.280 HD
ENDROOT
BRANCH   1   3
HETATM    3  C   UNL     1      27.265  44.644  50.098  1.00  0.00     0.231 C 
HETATM    4  C   UNL     1      26.353  45.797  50.478  1.00  0.00     0.034 C 
ENDBRANCH   1   3
BRANCH   1   5
HETATM    5  C   UNL     1      26.317  43.856  52.342  1.00  0.00     0.337 C 
BRANCH   5   6
HETATM    6  C   UNL     1      27.070  43.778  53.676  1.00  0.00     0.248 C 
HETATM    7  N   UNL     1      28.158  44.628  53.760  1.00  0.00    -0.325 N 
HETATM    8  H   UNL     1      28.151  45.449  53.169  1.00  0.00     0.169 HD
HETATM    9  O   UNL     1      26.656  43.039  54.565  1.00  0.00    -0.271 OA
BRANCH   7  10
HETATM   10  C   UNL     1      29.051  44.702  54.864  1.00  0.00     0.046 A 
HETATM   11  C   UNL     1      30.117  43.796  55.056  1.00  0.00    -0.035 A 
HETATM   12  C   UNL     1      30.504  42.705  54.093  1.00  0.00     0.050 C 
HETATM   13  C   UNL     1      30.930  43.929  56.198  1.00  0.00     0.009 A 
HETATM   14  C   UNL     1      30.742  44.969  57.100  1.00  0.00     0.001 A 
HETATM   15  C   UNL     1      29.736  45.899  56.876  1.00  0.00     0.009 A 
HETATM   16  C   UNL     1      28.885  45.784  55.765  1.00  0.00    -0.035 A 
HETATM   17  C   UNL     1      27.797  46.816  55.610  1.00  0.00     0.050 C 
ENDBRANCH   7  10
ENDBRANCH   5   6
ENDBRANCH   1   5
BRANCH   1  18
HETATM   18  C   UNL     1      26.708  42.222  50.448  1.00  0.00     0.277 C 
BRANCH  18  19
HETATM   19  C   UNL     1      27.666  41.107  50.692  1.00  0.00     0.012 A 
HETATM   20  C   UNL     1      28.085  40.058  49.805  1.00  0.00     0.071 A 
HETATM   21  N   UNL     1      28.987  39.274  50.406  1.00  0.00    -0.178 NA
HETATM   22  N   UNL     1      29.095  39.735  51.652  1.00  0.00    -0.288 N 
HETATM   23  H   UNL     1      29.708  39.240  52.295  1.00  0.00     0.188 HD
HETATM   24  C   UNL     1      28.337  40.845  51.875  1.00  0.00     0.120 A 
BRANCH  20  25
HETATM   25  C   UNL     1      27.663  39.740  48.365  1.00  0.00    -0.004 C 
HETATM   26  C   UNL     1      26.134  39.576  48.261  1.00  0.00     0.021 C 
HETATM   27  C   UNL     1      28.060  40.875  47.385  1.00  0.00     0.021 C 
HETATM   28  C   UNL     1      28.360  38.457  47.870  1.00  0.00     0.021 C 
ENDBRANCH  20  25
ENDBRANCH  18  19
ENDBRANCH   1  18
TORSDOF 7
ENDMDL
MODEL 2
REMARK VINA RESULT:      -7.6      4.006      8.087
REMARK  7 active torsions:
REMARK  status: ('A' for Active; 'I' for Inactive)
REMARK    1  A    between atoms: C_2  and  N_3 
REMARK    2  A    between atoms: N_3  and  C_5 
REMARK    3  A    between atoms: N_3  and  C_17 
REMARK    4  A    between atoms: C_5  and  C_6 
REMARK       I    between atoms: C_6  and  N_7 
REMARK    5  A    between atoms: N_7  and  C_8 
REMARK    6  A    between atoms: C_17  and  C_18 
REMARK    7  A    between atoms: C_19  and  C_20 
ROOT
HETATM    1  N   UNL     1      26.194  45.390  50.819  1.00  0.00    -0.059 N 
HETATM    2  H   UNL     1      26.565  46.318  51.052  1.00  0.00     0.280 HD
ENDROOT
BRANCH   1   3
HETATM    3  C   UNL     1      27.215  44.704  49.938  1.00  0.00     0.231 C 
HETATM    4  C   UNL     1      26.893  43.229  49.786  1.00  0.00     0.034 C 
ENDBRANCH   1   3
BRANCH   1   5
HETATM    5  C   UNL     1      24.830  45.610  50.153  1.00  0.00     0.337 C 
BRANCH   5   6
HETATM    6  C   UNL     1      24.343  47.066  50.156  1.00  0.00     0.248 C 
HETATM    7  N   UNL     1      23.580  47.406  49.054  1.00  0.00    -0.325 N 
HETATM    8  H   UNL     1      23.098  46.657  48.575  1.00  0.00     0.169 HD
HETATM    9  O   UNL     1      24.608  47.793  51.110  1.00  0.00    -0.271 OA
BRANCH   7  10
HETATM   10  C   UNL     1      23.062  48.704  48.791  1.00  0.00     0.046 A 
HETATM   11  C   UNL     1      23.882  49.820  48.513  1.00  0.00    -0.035 A 
HETATM   12  C   UNL     1      25.380  49.773  48.369  1.00  0.00     0.050 C 
HETATM   13  C   UNL     1      23.280  51.074  48.297  1.00  0.00     0.009 A 
HETATM   14  C   UNL     1      21.897  51.219  48.290  1.00  0.00     0.001 A 
HETATM   15  C   UNL     1      21.089  50.109  48.498  1.00  0.00     0.009 A 
HETATM   16  C   UNL     1      21.652  48.847  48.747  1.00  0.00    -0.035 A 
HETATM   17  C   UNL     1      20.707  47.699  48.994  1.00  0.00     0.050 C 
ENDBRANCH   7  10
ENDBRANCH   5   6
ENDBRANCH   1   5
BRANCH   1  18
HETATM   18  C   UNL     1      26.053  44.675  52.163  1.00  0.00     0.277 C 
BRANCH  18  19
HETATM   19  C   UNL     1      26.869  45.324  53.228  1.00  0.00     0.012 A 
HETATM   20  C   UNL     1      28.016  44.818  53.929  1.00  0.00     0.071 A 
HETATM   21  N   UNL     1      28.474  45.735  54.790  1.00  0.00    -0.178 NA
HETATM   22  N   UNL     1      27.625  46.758  54.717  1.00  0.00    -0.288 N 
HETATM   23  H   UNL     1      27.774  47.552  55.336  1.00  0.00     0.188 HD
HETATM   24  C   UNL     1      26.650  46.574  53.782  1.00  0.00     0.120 A 
BRANCH  20  25
HETATM   25  C   UNL     1      28.729  43.465  53.831  1.00  0.00    -0.004 C 
HETATM   26  C   UNL     1      29.427  43.305  52.466  1.00  0.00     0.021 C 
HETATM   27  C   UNL     1      29.827  43.313  54.916  1.00  0.00     0.021 C 
HETATM   28  C   UNL     1      27.728  42.311  54.043  1.00  0.00     0.021 C 
ENDBRANCH  20  25
ENDBRANCH  18  19
ENDBRANCH   1  18
TORSDOF 7
ENDMDL
MODEL 3
REMARK VINA RESULT:      -7.5      2.203      4.691
REMARK  7 active torsions:
REMARK  status: ('A' for Active; 'I' for Inactive)
REMARK    1  A    between atoms: C_2  and  N_3 
REMARK    2  A    between atoms: N_3  and  C_5 
REMARK    3  A    between atoms: N_3  and  C_17 
REMARK    4  A    between atoms: C_5  and  C_6 
REMARK       I    between atoms: C_6  and  N_7 
REMARK    5  A    between atoms: N_7  and  C_8 
REMARK    6  A    between atoms: C_17  and  C_18 
REMARK    7  A    between atoms: C_19  and  C_20 
ROOT
HETATM    1  N   UNL     1      26.916  43.306  51.436  1.00  0.00    -0.059 N 
HETATM    2  H   UNL     1      26.227  42.595  51.168  1.00  0.00     0.280 HD
ENDROOT
BRANCH   1   3
HETATM    3  C   UNL     1      28.225  42.593  51.696  1.00  0.00     0.231 C 
HETATM    4  C   UNL     1      28.050  41.089  51.595  1.00  0.00     0.034 C 
ENDBRANCH   1   3
BRANCH   1   5
HETATM    5  C   UNL     1      26.344  44.042  52.654  1.00  0.00     0.337 C 
BRANCH   5   6
HETATM    6  C   UNL     1      27.153  43.866  53.946  1.00  0.00     0.248 C 
HETATM    7  N   UNL     1      28.198  44.761  54.083  1.00  0.00    -0.325 N 
HETATM    8  H   UNL     1      28.125  45.639  53.585  1.00  0.00     0.169 HD
HETATM    9  O   UNL     1      26.813  43.015  54.764  1.00  0.00    -0.271 OA
BRANCH   7  10
HETATM   10  C   UNL     1      29.130  44.768  55.157  1.00  0.00     0.046 A 
HETATM   11  C   UNL     1      30.196  43.848  55.259  1.00  0.00    -0.035 A 
HETATM   12  C   UNL     1      30.542  42.813  54.222  1.00  0.00     0.050 C 
HETATM   13  C   UNL     1      31.049  43.912  56.377  1.00  0.00     0.009 A 
HETATM   14  C   UNL     1      30.899  44.898  57.344  1.00  0.00     0.001 A 
HETATM   15  C   UNL     1      29.891  45.844  57.210  1.00  0.00     0.009 A 
HETATM   16  C   UNL     1      29.001  45.796  56.125  1.00  0.00    -0.035 A 
HETATM   17  C   UNL     1      27.915  46.839  56.068  1.00  0.00     0.050 C 
ENDBRANCH   7  10
ENDBRANCH   5   6
ENDBRANCH   1   5
BRANCH   1  18
HETATM   18  C   UNL     1      27.020  44.228  50.221  1.00  0.00     0.277 C 
BRANCH  18  19
HETATM   19  C   UNL     1      25.689  44.488  49.603  1.00  0.00     0.012 A 
HETATM   20  C   UNL     1      24.938  45.710  49.542  1.00  0.00     0.071 A 
HETATM   21  N   UNL     1      23.799  45.522  48.866  1.00  0.00    -0.178 NA
HETATM   22  N   UNL     1      23.763  44.223  48.569  1.00  0.00    -0.288 N 
HETATM   23  H   UNL     1      22.943  43.863  48.087  1.00  0.00     0.188 HD
HETATM   24  C   UNL     1      24.881  43.556  48.972  1.00  0.00     0.120 A 
BRANCH  20  25
HETATM   25  C   UNL     1      25.246  47.101  50.110  1.00  0.00    -0.004 C 
HETATM   26  C   UNL     1      25.302  47.070  51.649  1.00  0.00     0.021 C 
HETATM   27  C   UNL     1      26.621  47.629  49.622  1.00  0.00     0.021 C 
HETATM   28  C   UNL     1      24.185  48.119  49.647  1.00  0.00     0.021 C 
ENDBRANCH  20  25
ENDBRANCH  18  19
ENDBRANCH   1  18
TORSDOF 7
ENDMDL
MODEL 4
REMARK VINA RESULT:      -7.5      2.568      4.704
REMARK  7 active torsions:
REMARK  status: ('A' for Active; 'I' for Inactive)
REMARK    1  A    between atoms: C_2  and  N_3 
REMARK    2  A    between atoms: N_3  and  C_5 
REMARK    3  A    between atoms: N_3  and  C_17 
REMARK    4  A    between atoms: C_5  and  C_6 
REMARK       I    between atoms: C_6  and  N_7 
REMARK    5  A    between atoms: N_7  and  C_8 
REMARK    6  A    between atoms: C_17  and  C_18 
REMARK    7  A    between atoms: C_19  and  C_20 
ROOT
HETATM    1  N   UNL     1      25.641  43.880  51.352  1.00  0.00    -0.059 N 
HETATM    2  H   UNL     1      24.681  43.595  51.131  1.00  0.00     0.280 HD
ENDROOT
BRANCH   1   3
HETATM    3  C   UNL     1      26.467  42.620  51.486  1.00  0.00     0.231 C 
HETATM    4  C   UNL     1      26.058  41.592  50.448  1.00  0.00     0.034 C 
ENDBRANCH   1   3
BRANCH   1   5
HETATM    5  C   UNL     1      25.569  44.729  52.628  1.00  0.00     0.337 C 
BRANCH   5   6
HETATM    6  C   UNL     1      26.532  44.294  53.741  1.00  0.00     0.248 C 
HETATM    7  N   UNL     1      27.798  44.840  53.637  1.00  0.00    -0.325 N 
HETATM    8  H   UNL     1      27.886  45.712  53.131  1.00  0.00     0.169 HD
HETATM    9  O   UNL     1      26.129  43.559  54.640  1.00  0.00    -0.271 OA
BRANCH   7  10
HETATM   10  C   UNL     1      28.885  44.549  54.505  1.00  0.00     0.046 A 
HETATM   11  C   UNL     1      29.745  43.444  54.321  1.00  0.00    -0.035 A 
HETATM   12  C   UNL     1      29.688  42.494  53.154  1.00  0.00     0.050 C 
HETATM   13  C   UNL     1      30.777  43.218  55.252  1.00  0.00     0.009 A 
HETATM   14  C   UNL     1      31.000  44.094  56.308  1.00  0.00     0.001 A 
HETATM   15  C   UNL     1      30.196  45.216  56.451  1.00  0.00     0.009 A 
HETATM   16  C   UNL     1      29.138  45.461  55.561  1.00  0.00    -0.035 A 
HETATM   17  C   UNL     1      28.292  46.684  55.804  1.00  0.00     0.050 C 
ENDBRANCH   7  10
ENDBRANCH   5   6
ENDBRANCH   1   5
BRANCH   1  18
HETATM   18  C   UNL     1      26.090  44.711  50.150  1.00  0.00     0.277 C 
BRANCH  18  19
HETATM   19  C   UNL     1      25.163  45.846  49.880  1.00  0.00     0.012 A 
HETATM   20  C   UNL     1      23.827  45.822  49.351  1.00  0.00     0.071 A 
HETATM   21  N   UNL     1      23.329  47.063  49.294  1.00  0.00    -0.178 NA
HETATM   22  N   UNL     1      24.315  47.868  49.688  1.00  0.00    -0.288 N 
HETATM   23  H   UNL     1      24.149  48.872  49.672  1.00  0.00     0.188 HD
HETATM   24  C   UNL     1      25.434  47.191  50.068  1.00  0.00     0.120 A 
BRANCH  20  25
HETATM   25  C   UNL     1      22.963  44.648  48.876  1.00  0.00    -0.004 C 
HETATM   26  C   UNL     1      21.644  45.149  48.255  1.00  0.00     0.021 C 
HETATM   27  C   UNL     1      23.680  43.809  47.786  1.00  0.00     0.021 C 
HETATM   28  C   UNL     1      22.658  43.694  50.048  1.00  0.00     0.021 C 
ENDBRANCH  20  25
ENDBRANCH  18  19
ENDBRANCH   1  18
TORSDOF 7
ENDMDL
MODEL 5
REMARK VINA RESULT:      -7.4      3.241      7.295
REMARK  7 active torsions:
REMARK  status: ('A' for Active; 'I' for Inactive)
REMARK    1  A    between atoms: C_2  and  N_3 
REMARK    2  A    between atoms: N_3  and  C_5 
REMARK    3  A    between atoms: N_3  and  C_17 
REMARK    4  A    between atoms: C_5  and  C_6 
REMARK       I    between atoms: C_6  and  N_7 
REMARK    5  A    between atoms: N_7  and  C_8 
REMARK    6  A    between atoms: C_17  and  C_18 
REMARK    7  A    between atoms: C_19  and  C_20 
ROOT
HETATM    1  N   UNL     1      25.847  44.181  51.788  1.00  0.00    -0.059 N 
HETATM    2  H   UNL     1      26.632  44.810  51.590  1.00  0.00     0.280 HD
ENDROOT
BRANCH   1   3
HETATM    3  C   UNL     1      26.209  42.819  51.237  1.00  0.00     0.231 C 
HETATM    4  C   UNL     1      25.046  42.221  50.468  1.00  0.00     0.034 C 
ENDBRANCH   1   3
BRANCH   1   5
HETATM    5  C   UNL     1      24.601  44.810  51.151  1.00  0.00     0.337 C 
BRANCH   5   6
HETATM    6  C   UNL     1      24.893  45.798  50.014  1.00  0.00     0.248 C 
HETATM    7  N   UNL     1      24.667  47.122  50.346  1.00  0.00    -0.325 N 
HETATM    8  H   UNL     1      24.713  47.368  51.326  1.00  0.00     0.169 HD
HETATM    9  O   UNL     1      25.333  45.382  48.945  1.00  0.00    -0.271 OA
BRANCH   7  10
HETATM   10  C   UNL     1      24.803  48.221  49.454  1.00  0.00     0.046 A 
HETATM   11  C   UNL     1      26.045  48.825  49.158  1.00  0.00    -0.035 A 
HETATM   12  C   UNL     1      27.379  48.341  49.662  1.00  0.00     0.050 C 
HETATM   13  C   UNL     1      26.077  49.930  48.287  1.00  0.00     0.009 A 
HETATM   14  C   UNL     1      24.923  50.395  47.669  1.00  0.00     0.001 A 
HETATM   15  C   UNL     1      23.712  49.760  47.909  1.00  0.00     0.009 A 
HETATM   16  C   UNL     1      23.633  48.674  48.794  1.00  0.00    -0.035 A 
HETATM   17  C   UNL     1      22.276  48.060  49.025  1.00  0.00     0.050 C 
ENDBRANCH   7  10
ENDBRANCH   5   6
ENDBRANCH   1   5
BRANCH   1  18
HETATM   18  C   UNL     1      25.742  44.152  53.312  1.00  0.00     0.277 C 
BRANCH  18  19
HETATM   19  C   UNL     1      26.806  44.971  53.959  1.00  0.00     0.012 A 
HETATM   20  C   UNL     1      28.177  44.634  54.224  1.00  0.00     0.071 A 
HETATM   21  N   UNL     1      28.807  45.668  54.794  1.00  0.00    -0.178 NA
HETATM   22  N   UNL     1      27.877  46.607  54.971  1.00  0.00    -0.288 N 
HETATM   23  H   UNL     1      28.148  47.468  55.439  1.00  0.00     0.188 HD
HETATM   24  C   UNL     1      26.661  46.249  54.472  1.00  0.00     0.120 A 
BRANCH  20  25
HETATM   25  C   UNL     1      28.957  43.340  53.960  1.00  0.00    -0.004 C 
HETATM   26  C   UNL     1      29.518  43.316  52.525  1.00  0.00     0.021 C 
HETATM   27  C   UNL     1      30.168  43.194  54.918  1.00  0.00     0.021 C 
HETATM   28  C   UNL     1      28.054  42.112  54.188  1.00  0.00     0.021 C 
ENDBRANCH  20  25
ENDBRANCH  18  19
ENDBRANCH   1  18
TORSDOF 7
ENDMDL
MODEL 6
REMARK VINA RESULT:      -7.4      5.454      9.109
REMARK  7 active torsions:
REMARK  status: ('A' for Active; 'I' for Inactive)
REMARK    1  A    between atoms: C_2  and  N_3 
REMARK    2  A    between atoms: N_3  and  C_5 
REMARK    3  A    between atoms: N_3  and  C_17 
REMARK    4  A    between atoms: C_5  and  C_6 
REMARK       I    between atoms: C_6  and  N_7 
REMARK    5  A    between atoms: N_7  and  C_8 
REMARK    6  A    between atoms: C_17  and  C_18 
REMARK    7  A    between atoms: C_19  and  C_20 
ROOT
HETATM    1  N   UNL     1      24.794  47.362  50.066  1.00  0.00    -0.059 N 
HETATM    2  H   UNL     1      24.413  47.774  50.925  1.00  0.00     0.280 HD
ENDROOT
BRANCH   1   3
HETATM    3  C   UNL     1      25.459  48.476  49.287  1.00  0.00     0.231 C 
HETATM    4  C   UNL     1      26.969  48.321  49.304  1.00  0.00     0.034 C 
ENDBRANCH   1   3
BRANCH   1   5
HETATM    5  C   UNL     1      23.623  46.692  49.336  1.00  0.00     0.337 C 
BRANCH   5   6
HETATM    6  C   UNL     1      22.634  47.666  48.682  1.00  0.00     0.248 C 
HETATM    7  N   UNL     1      22.029  48.536  49.571  1.00  0.00    -0.325 N 
HETATM    8  H   UNL     1      22.519  48.733  50.433  1.00  0.00     0.169 HD
HETATM    9  O   UNL     1      22.481  47.649  47.463  1.00  0.00    -0.271 OA
BRANCH   7  10
HETATM   10  C   UNL     1      21.034  49.491  49.226  1.00  0.00     0.046 A 
HETATM   11  C   UNL     1      19.649  49.219  49.285  1.00  0.00    -0.035 A 
HETATM   12  C   UNL     1      19.045  47.938  49.797  1.00  0.00     0.050 C 
HETATM   13  C   UNL     1      18.739  50.218  48.893  1.00  0.00     0.009 A 
HETATM   14  C   UNL     1      19.174  51.481  48.511  1.00  0.00     0.001 A 
HETATM   15  C   UNL     1      20.532  51.770  48.516  1.00  0.00     0.009 A 
HETATM   16  C   UNL     1      21.474  50.792  48.872  1.00  0.00    -0.035 A 
HETATM   17  C   UNL     1      22.930  51.175  48.821  1.00  0.00     0.050 C 
ENDBRANCH   7  10
ENDBRANCH   5   6
ENDBRANCH   1   5
BRANCH   1  18
HETATM   18  C   UNL     1      25.819  46.334  50.545  1.00  0.00     0.277 C 
BRANCH  18  19
HETATM   19  C   UNL     1      25.949  46.327  52.029  1.00  0.00     0.012 A 
HETATM   20  C   UNL     1      26.430  45.286  52.894  1.00  0.00     0.071 A 
HETATM   21  N   UNL     1      26.414  45.697  54.168  1.00  0.00    -0.178 NA
HETATM   22  N   UNL     1      25.873  46.915  54.149  1.00  0.00    -0.288 N 
HETATM   23  H   UNL     1      25.729  47.390  55.037  1.00  0.00     0.188 HD
HETATM   24  C   UNL     1      25.590  47.351  52.890  1.00  0.00     0.120 A 
BRANCH  20  25
HETATM   25  C   UNL     1      26.922  43.869  52.574  1.00  0.00    -0.004 C 
HETATM   26  C   UNL     1      25.906  43.118  51.692  1.00  0.00     0.021 C 
HETATM   27  C   UNL     1      28.264  43.888  51.797  1.00  0.00     0.021 C 
HETATM   28  C   UNL     1      27.169  43.078  53.875  1.00  0.00     0.021 C 
ENDBRANCH  20  25
ENDBRANCH  18  19
ENDBRANCH   1  18
TORSDOF 7
ENDMDL
MODEL 7
REMARK VINA RESULT:      -7.3      1.859      4.647
REMARK  7 active torsions:
REMARK  status: ('A' for Active; 'I' for Inactive)
REMARK    1  A    between atoms: C_2  and  N_3 
REMARK    2  A    between atoms: N_3  and  C_5 
REMARK    3  A    between atoms: N_3  and  C_17 
REMARK    4  A    between atoms: C_5  and  C_6 
REMARK       I    between atoms: C_6  and  N_7 
REMARK    5  A    between atoms: N_7  and  C_8 
REMARK    6  A    between atoms: C_17  and  C_18 
REMARK    7  A    between atoms: C_19  and  C_20 
ROOT
HETATM    1  N   UNL     1      27.499  42.497  51.782  1.00  0.00    -0.059 N 
HETATM    2  H   UNL     1      26.682  42.649  52.383  1.00  0.00     0.280 HD
ENDROOT
BRANCH   1   3
HETATM    3  C   UNL     1      27.791  41.012  51.783  1.00  0.00     0.231 C 
HETATM    4  C   UNL     1      28.176  40.536  50.395  1.00  0.00     0.034 C 
ENDBRANCH   1   3
BRANCH   1   5
HETATM    5  C   UNL     1      28.632  43.365  52.344  1.00  0.00     0.337 C 
BRANCH   5   6
HETATM    6  C   UNL     1      28.520  43.672  53.843  1.00  0.00     0.248 C 
HETATM    7  N   UNL     1      29.447  44.591  54.300  1.00  0.00    -0.325 N 
HETATM    8  H   UNL     1      29.830  45.239  53.624  1.00  0.00     0.169 HD
HETATM    9  O   UNL     1      27.630  43.147  54.506  1.00  0.00    -0.271 OA
BRANCH   7  10
HETATM   10  C   UNL     1      29.591  44.999  55.654  1.00  0.00     0.046 A 
HETATM   11  C   UNL     1      28.785  45.992  56.252  1.00  0.00    -0.035 A 
HETATM   12  C   UNL     1      27.624  46.677  55.580  1.00  0.00     0.050 C 
HETATM   13  C   UNL     1      29.023  46.352  57.592  1.00  0.00     0.009 A 
HETATM   14  C   UNL     1      29.993  45.707  58.350  1.00  0.00     0.001 A 
HETATM   15  C   UNL     1      30.742  44.685  57.783  1.00  0.00     0.009 A 
HETATM   16  C   UNL     1      30.554  44.317  56.441  1.00  0.00    -0.035 A 
HETATM   17  C   UNL     1      31.429  43.220  55.890  1.00  0.00     0.050 C 
ENDBRANCH   7  10
ENDBRANCH   5   6
ENDBRANCH   1   5
BRANCH   1  18
HETATM   18  C   UNL     1      27.061  42.974  50.397  1.00  0.00     0.277 C 
BRANCH  18  19
HETATM   19  C   UNL     1      25.615  43.331  50.363  1.00  0.00     0.012 A 
HETATM   20  C   UNL     1      24.994  44.621  50.473  1.00  0.00     0.071 A 
HETATM   21  N   UNL     1      23.666  44.509  50.359  1.00  0.00    -0.178 NA
HETATM   22  N   UNL     1      23.419  43.203  50.262  1.00  0.00    -0.288 N 
HETATM   23  H   UNL     1      22.449  42.900  50.212  1.00  0.00     0.188 HD
HETATM   24  C   UNL     1      24.554  42.449  50.242  1.00  0.00     0.120 A 
BRANCH  20  25
HETATM   25  C   UNL     1      25.609  46.009  50.689  1.00  0.00    -0.004 C 
HETATM   26  C   UNL     1      24.552  47.116  50.512  1.00  0.00     0.021 C 
HETATM   27  C   UNL     1      26.186  46.165  52.121  1.00  0.00     0.021 C 
HETATM   28  C   UNL     1      26.776  46.241  49.708  1.00  0.00     0.021 C 
ENDBRANCH  20  25
ENDBRANCH  18  19
ENDBRANCH   1  18
TORSDOF 7
ENDMDL
MODEL 8
REMARK VINA RESULT:      -7.3      1.770      3.137
REMARK  7 active torsions:
REMARK  status: ('A' for Active; 'I' for Inactive)
REMARK    1  A    between atoms: C_2  and  N_3 
REMARK    2  A    between atoms: N_3  and  C_5 
REMARK    3  A    between atoms: N_3  and  C_17 
REMARK    4  A    between atoms: C_5  and  C_6 
REMARK       I    between atoms: C_6  and  N_7 
REMARK    5  A    between atoms: N_7  and  C_8 
REMARK    6  A    between atoms: C_17  and  C_18 
REMARK    7  A    between atoms: C_19  and  C_20 
ROOT
HETATM    1  N   UNL     1      26.377  44.881  50.989  1.00  0.00    -0.059 N 
HETATM    2  H   UNL     1      27.289  45.218  51.315  1.00  0.00     0.280 HD
ENDROOT
BRANCH   1   3
HETATM    3  C   UNL     1      25.515  46.096  50.724  1.00  0.00     0.231 C 
HETATM    4  C   UNL     1      25.521  47.034  51.918  1.00  0.00     0.034 C 
ENDBRANCH   1   3
BRANCH   1   5
HETATM    5  C   UNL     1      25.834  43.944  52.075  1.00  0.00     0.337 C 
BRANCH   5   6
HETATM    6  C   UNL     1      26.638  43.945  53.382  1.00  0.00     0.248 C 
HETATM    7  N   UNL     1      27.924  44.436  53.252  1.00  0.00    -0.325 N 
HETATM    8  H   UNL     1      28.102  45.073  52.486  1.00  0.00     0.169 HD
HETATM    9  O   UNL     1      26.104  43.572  54.423  1.00  0.00    -0.271 OA
BRANCH   7  10
HETATM   10  C   UNL     1      28.887  44.486  54.296  1.00  0.00     0.046 A 
HETATM   11  C   UNL     1      28.920  45.510  55.268  1.00  0.00    -0.035 A 
HETATM   12  C   UNL     1      27.906  46.617  55.386  1.00  0.00     0.050 C 
HETATM   13  C   UNL     1      29.932  45.493  56.246  1.00  0.00     0.009 A 
HETATM   14  C   UNL     1      30.857  44.457  56.309  1.00  0.00     0.001 A 
HETATM   15  C   UNL     1      30.785  43.416  55.394  1.00  0.00     0.009 A 
HETATM   16  C   UNL     1      29.809  43.412  54.385  1.00  0.00    -0.035 A 
HETATM   17  C   UNL     1      29.817  42.261  53.411  1.00  0.00     0.050 C 
ENDBRANCH   7  10
ENDBRANCH   5   6
ENDBRANCH   1   5
BRANCH   1  18
HETATM   18  C   UNL     1      26.678  44.125  49.695  1.00  0.00     0.277 C 
BRANCH  18  19
HETATM   19  C   UNL     1      25.616  43.132  49.370  1.00  0.00     0.012 A 
HETATM   20  C   UNL     1      25.708  41.702  49.273  1.00  0.00     0.071 A 
HETATM   21  N   UNL     1      24.509  41.178  48.989  1.00  0.00    -0.178 NA
HETATM   22  N   UNL     1      23.689  42.216  48.828  1.00  0.00    -0.288 N 
HETATM   23  H   UNL     1      22.726  42.029  48.560  1.00  0.00     0.188 HD
HETATM   24  C   UNL     1      24.295  43.413  49.062  1.00  0.00     0.120 A 
BRANCH  20  25
HETATM   25  C   UNL     1      26.911  40.765  49.436  1.00  0.00    -0.004 C 
HETATM   26  C   UNL     1      27.583  40.962  50.808  1.00  0.00     0.021 C 
HETATM   27  C   UNL     1      26.494  39.273  49.350  1.00  0.00     0.021 C 
HETATM   28  C   UNL     1      27.939  41.008  48.312  1.00  0.00     0.021 C 
ENDBRANCH  20  25
ENDBRANCH  18  19
ENDBRANCH   1  18
TORSDOF 7
ENDMDL
MODEL 9
REMARK VINA RESULT:      -7.2      5.419      9.101
REMARK  7 active torsions:
REMARK  status: ('A' for Active; 'I' for Inactive)
REMARK    1  A    between atoms: C_2  and  N_3 
REMARK    2  A    between atoms: N_3  and  C_5 
REMARK    3  A    between atoms: N_3  and  C_17 
REMARK    4  A    between atoms: C_5  and  C_6 
REMARK       I    between atoms: C_6  and  N_7 
REMARK    5  A    between atoms: N_7  and  C_8 
REMARK    6  A    between atoms: C_17  and  C_18 
REMARK    7  A    between atoms: C_19  and  C_20 
ROOT
HETATM    1  N   UNL     1      24.817  47.290  50.156  1.00  0.00    -0.059 N 
HETATM    2  H   UNL     1      24.443  47.698  51.020  1.00  0.00     0.280 HD
ENDROOT
BRANCH   1   3
HETATM    3  C   UNL     1      25.516  48.399  49.400  1.00  0.00     0.231 C 
HETATM    4  C   UNL     1      27.013  48.153  49.340  1.00  0.00     0.034 C 
ENDBRANCH   1   3
BRANCH   1   5
HETATM    5  C   UNL     1      23.634  46.663  49.410  1.00  0.00     0.337 C 
BRANCH   5   6
HETATM    6  C   UNL     1      22.701  47.672  48.725  1.00  0.00     0.248 C 
HETATM    7  N   UNL     1      22.060  48.531  49.600  1.00  0.00    -0.325 N 
HETATM    8  H   UNL     1      22.503  48.696  50.495  1.00  0.00     0.169 HD
HETATM    9  O   UNL     1      22.618  47.689  47.500  1.00  0.00    -0.271 OA
BRANCH   7  10
HETATM   10  C   UNL     1      21.104  49.512  49.225  1.00  0.00     0.046 A 
HETATM   11  C   UNL     1      21.457  50.813  48.803  1.00  0.00    -0.035 A 
HETATM   12  C   UNL     1      22.868  51.301  48.608  1.00  0.00     0.050 C 
HETATM   13  C   UNL     1      20.437  51.728  48.481  1.00  0.00     0.009 A 
HETATM   14  C   UNL     1      19.098  51.357  48.512  1.00  0.00     0.001 A 
HETATM   15  C   UNL     1      18.754  50.059  48.863  1.00  0.00     0.009 A 
HETATM   16  C   UNL     1      19.740  49.125  49.219  1.00  0.00    -0.035 A 
HETATM   17  C   UNL     1      19.281  47.746  49.619  1.00  0.00     0.050 C 
ENDBRANCH   7  10
ENDBRANCH   5   6
ENDBRANCH   1   5
BRANCH   1  18
HETATM   18  C   UNL     1      25.812  46.227  50.623  1.00  0.00     0.277 C 
BRANCH  18  19
HETATM   19  C   UNL     1      25.977  46.232  52.105  1.00  0.00     0.012 A 
HETATM   20  C   UNL     1      26.506  45.209  52.963  1.00  0.00     0.071 A 
HETATM   21  N   UNL     1      26.508  45.626  54.234  1.00  0.00    -0.178 NA
HETATM   22  N   UNL     1      25.935  46.829  54.223  1.00  0.00    -0.288 N 
HETATM   23  H   UNL     1      25.799  47.304  55.112  1.00  0.00     0.188 HD
HETATM   24  C   UNL     1      25.611  47.250  52.969  1.00  0.00     0.120 A 
BRANCH  20  25
HETATM   25  C   UNL     1      27.027  43.804  52.638  1.00  0.00    -0.004 C 
HETATM   26  C   UNL     1      26.031  43.037  51.746  1.00  0.00     0.021 C 
HETATM   27  C   UNL     1      28.372  43.853  51.868  1.00  0.00     0.021 C 
HETATM   28  C   UNL     1      27.283  43.011  53.935  1.00  0.00     0.021 C 
ENDBRANCH  20  25
ENDBRANCH  18  19
ENDBRANCH   1  18
TORSDOF 7
ENDMDL
MODEL 10
REMARK VINA RESULT:      -7.2      8.494     11.907
REMARK  7 active torsions:
REMARK  status: ('A' for Active; 'I' for Inactive)
REMARK    1  A    between atoms: C_2  and  N_3 
REMARK    2  A    between atoms: N_3  and  C_5 
REMARK    3  A    between atoms: N_3  and  C_17 
REMARK    4  A    between atoms: C_5  and  C_6 
REMARK       I    between atoms: C_6  and  N_7 
REMARK    5  A    between atoms: N_7  and  C_8 
REMARK    6  A    between atoms: C_17  and  C_18 
REMARK    7  A    between atoms: C_19  and  C_20 
ROOT
HETATM    1  N   UNL     1      19.739  48.581  49.076  1.00  0.00    -0.059 N 
HETATM    2  H   UNL     1      20.317  49.248  49.599  1.00  0.00     0.280 HD
ENDROOT
BRANCH   1   3
HETATM    3  C   UNL     1      18.455  48.390  49.853  1.00  0.00     0.231 C 
HETATM    4  C   UNL     1      18.652  48.741  51.317  1.00  0.00     0.034 C 
ENDBRANCH   1   3
BRANCH   1   5
HETATM    5  C   UNL     1      20.573  47.304  48.909  1.00  0.00     0.337 C 
BRANCH   5   6
HETATM    6  C   UNL     1      22.019  47.539  48.454  1.00  0.00     0.248 C 
HETATM    7  N   UNL     1      22.826  48.120  49.415  1.00  0.00    -0.325 N 
HETATM    8  H   UNL     1      22.559  47.992  50.383  1.00  0.00     0.169 HD
HETATM    9  O   UNL     1      22.370  47.174  47.334  1.00  0.00    -0.271 OA
BRANCH   7  10
HETATM   10  C   UNL     1      24.184  48.494  49.223  1.00  0.00     0.046 A 
HETATM   11  C   UNL     1      24.573  49.634  48.486  1.00  0.00    -0.035 A 
HETATM   12  C   UNL     1      23.624  50.642  47.894  1.00  0.00     0.050 C 
HETATM   13  C   UNL     1      25.945  49.906  48.322  1.00  0.00     0.009 A 
HETATM   14  C   UNL     1      26.915  49.112  48.920  1.00  0.00     0.001 A 
HETATM   15  C   UNL     1      26.531  48.028  49.699  1.00  0.00     0.009 A 
HETATM   16  C   UNL     1      25.174  47.706  49.863  1.00  0.00    -0.035 A 
HETATM   17  C   UNL     1      24.841  46.496  50.697  1.00  0.00     0.050 C 
ENDBRANCH   7  10
ENDBRANCH   5   6
ENDBRANCH   1   5
BRANCH   1  18
HETATM   18  C   UNL     1      19.476  49.259  47.732  1.00  0.00     0.277 C 
BRANCH  18  19
HETATM   19  C   UNL     1      18.894  50.620  47.899  1.00  0.00     0.012 A 
HETATM   20  C   UNL     1      17.609  51.115  47.491  1.00  0.00     0.071 A 
HETATM   21  N   UNL     1      17.465  52.393  47.861  1.00  0.00    -0.178 NA
HETATM   22  N   UNL     1      18.627  52.745  48.410  1.00  0.00    -0.288 N 
HETATM   23  H   UNL     1      18.740  53.707  48.720  1.00  0.00     0.188 HD
HETATM   24  C   UNL     1      19.517  51.715  48.475  1.00  0.00     0.120 A 
BRANCH  20  25
HETATM   25  C   UNL     1      16.464  50.423  46.741  1.00  0.00    -0.004 C 
HETATM   26  C   UNL     1      16.966  49.789  45.430  1.00  0.00     0.021 C 
HETATM   27  C   UNL     1      15.836  49.279  47.580  1.00  0.00     0.021 C 
HETATM   28  C   UNL     1      15.335  51.427  46.436  1.00  0.00     0.021 C 
ENDBRANCH  20  25
ENDBRANCH  18  19
ENDBRANCH   1  18
TORSDOF 7
ENDMDL
