MODEL 1
REMARK VINA RESULT:      -8.0      0.000      0.000
REMARK  3 active torsions:
REMARK  status: ('A' for Active; 'I' for Inactive)
REMARK    1  A    between atoms: C_2  and  C_3 
REMARK    2  A    between atoms: C_3  and  C_4 
REMARK    3  A    between atoms: C_24  and  N_25 
ROOT
HETATM    1  C   UNL     1      31.796  51.499  38.692  1.00  0.00     0.067 A 
HETATM    2  N   UNL     1      32.816  51.326  37.833  1.00  0.00    -0.177 NA
HETATM    3  N   UNL     1      33.893  51.136  38.617  1.00  0.00    -0.256 N 
HETATM    4  H   UNL     1      34.799  51.000  38.181  1.00  0.00     0.191 HD
HETATM    5  C   UNL     1      33.595  51.196  39.937  1.00  0.00     0.176 A 
HETATM    6  C   UNL     1      32.241  51.397  40.037  1.00  0.00     0.049 A 
HETATM    7  C   UNL     1      31.624  51.530  41.387  1.00  0.00     0.144 A 
HETATM    8  C   UNL     1      30.776  52.827  41.494  1.00  0.00     0.246 A 
HETATM    9  O   UNL     1      31.165  53.982  41.429  1.00  0.00    -0.271 OA
HETATM   10  N   UNL     1      29.457  52.439  41.705  1.00  0.00    -0.325 N 
HETATM   11  C   UNL     1      29.330  51.058  41.728  1.00  0.00     0.043 A 
HETATM   12  C   UNL     1      30.575  50.440  41.531  1.00  0.00     0.003 A 
HETATM   13  C   UNL     1      28.158  50.354  41.907  1.00  0.00     0.030 A 
HETATM   14  C   UNL     1      28.238  48.965  41.886  1.00  0.00     0.003 A 
HETATM   15  C   UNL     1      29.474  48.321  41.693  1.00  0.00     0.007 A 
HETATM   16  C   UNL     1      30.666  49.047  41.521  1.00  0.00    -0.051 A 
HETATM   17  C   UNL     1      31.956  48.310  41.315  1.00  0.00     0.049 C 
HETATM   18  C   UNL     1      32.690  51.529  42.476  1.00  0.00     0.081 A 
HETATM   19  C   UNL     1      32.240  51.860  43.890  1.00  0.00     0.021 C 
HETATM   20  N   UNL     1      31.868  52.135  45.062  1.00  0.00    -0.096 N 
HETATM   21  C   UNL     1      34.011  51.331  42.221  1.00  0.00     0.140 A 
HETATM   22  O   UNL     1      34.487  51.105  40.916  1.00  0.00    -0.279 OA
HETATM   23  H   UNL     1      28.705  53.102  41.827  1.00  0.00     0.169 HD
ENDROOT
BRANCH  21  24
HETATM   24  N   UNL     1      35.018  51.340  43.160  1.00  0.00    -0.282 NA
HETATM   25  H   UNL     1      34.720  51.224  44.126  1.00  0.00     0.126 HD
HETATM   26  H   UNL     1      35.642  52.134  43.038  1.00  0.00     0.126 HD
ENDBRANCH  21  24
BRANCH   1  27
HETATM   27  C   UNL     1      30.423  51.822  38.185  1.00  0.00     0.061 C 
BRANCH  27  28
HETATM   28  C   UNL     1      29.436  50.653  38.230  1.00  0.00     0.002 C 
HETATM   29  C   UNL     1      28.001  51.146  38.345  1.00  0.00     0.005 C 
ENDBRANCH  27  28
ENDBRANCH   1  27
TORSDOF 3
ENDMDL
MODEL 2
REMARK VINA RESULT:      -7.9      2.410      4.512
REMARK  3 active torsions:
REMARK  status: ('A' for Active; 'I' for Inactive)
REMARK    1  A    between atoms: C_2  and  C_3 
REMARK    2  A    between atoms: C_3  and  C_4 
REMARK    3  A    between atoms: C_24  and  N_25 
ROOT
HETATM    1  C   UNL     1      32.554  52.526  39.625  1.00  0.00     0.067 A 
HETATM    2  N   UNL     1      32.854  53.807  39.901  1.00  0.00    -0.177 NA
HETATM    3  N   UNL     1      31.766  54.282  40.534  1.00  0.00    -0.256 N 
HETATM    4  H   UNL     1      31.754  55.254  40.828  1.00  0.00     0.191 HD
HETATM    5  C   UNL     1      30.786  53.355  40.656  1.00  0.00     0.176 A 
HETATM    6  C   UNL     1      31.263  52.189  40.110  1.00  0.00     0.049 A 
HETATM    7  C   UNL     1      30.382  50.987  40.081  1.00  0.00     0.144 A 
HETATM    8  C   UNL     1      30.279  50.399  38.646  1.00  0.00     0.246 A 
HETATM    9  O   UNL     1      29.796  50.923  37.656  1.00  0.00    -0.271 OA
HETATM   10  N   UNL     1      30.831  49.123  38.686  1.00  0.00    -0.325 N 
HETATM   11  C   UNL     1      31.299  48.809  39.954  1.00  0.00     0.043 A 
HETATM   12  C   UNL     1      31.083  49.875  40.842  1.00  0.00     0.003 A 
HETATM   13  C   UNL     1      31.909  47.630  40.325  1.00  0.00     0.030 A 
HETATM   14  C   UNL     1      32.321  47.513  41.649  1.00  0.00     0.003 A 
HETATM   15  C   UNL     1      32.113  48.564  42.559  1.00  0.00     0.007 A 
HETATM   16  C   UNL     1      31.483  49.761  42.175  1.00  0.00    -0.051 A 
HETATM   17  C   UNL     1      31.290  50.853  43.185  1.00  0.00     0.049 C 
HETATM   18  C   UNL     1      28.986  51.322  40.594  1.00  0.00     0.081 A 
HETATM   19  C   UNL     1      27.914  50.256  40.437  1.00  0.00     0.021 C 
HETATM   20  N   UNL     1      27.024  49.372  40.306  1.00  0.00    -0.096 N 
HETATM   21  C   UNL     1      28.653  52.541  41.096  1.00  0.00     0.140 A 
HETATM   22  O   UNL     1      29.589  53.587  41.183  1.00  0.00    -0.279 OA
HETATM   23  H   UNL     1      30.869  48.518  37.878  1.00  0.00     0.169 HD
ENDROOT
BRANCH  21  24
HETATM   24  N   UNL     1      27.406  52.904  41.553  1.00  0.00    -0.282 NA
HETATM   25  H   UNL     1      26.618  52.511  41.044  1.00  0.00     0.126 HD
HETATM   26  H   UNL     1      27.327  53.911  41.675  1.00  0.00     0.126 HD
ENDBRANCH  21  24
BRANCH   1  27
HETATM   27  C   UNL     1      33.506  51.676  38.839  1.00  0.00     0.061 C 
BRANCH  27  28
HETATM   28  C   UNL     1      34.872  51.470  39.501  1.00  0.00     0.002 C 
HETATM   29  C   UNL     1      34.745  50.665  40.786  1.00  0.00     0.005 C 
ENDBRANCH  27  28
ENDBRANCH   1  27
TORSDOF 3
ENDMDL
MODEL 3
REMARK VINA RESULT:      -7.6      3.255      5.407
REMARK  3 active torsions:
REMARK  status: ('A' for Active; 'I' for Inactive)
REMARK    1  A    between atoms: C_2  and  C_3 
REMARK    2  A    between atoms: C_3  and  C_4 
REMARK    3  A    between atoms: C_24  and  N_25 
ROOT
HETATM    1  C   UNL     1      31.430  48.866  41.804  1.00  0.00     0.067 A 
HETATM    2  N   UNL     1      32.589  48.202  41.648  1.00  0.00    -0.177 NA
HETATM    3  N   UNL     1      32.438  47.519  40.499  1.00  0.00    -0.256 N 
HETATM    4  H   UNL     1      33.192  46.920  40.181  1.00  0.00     0.191 HD
HETATM    5  C   UNL     1      31.223  47.714  39.931  1.00  0.00     0.176 A 
HETATM    6  C   UNL     1      30.546  48.606  40.725  1.00  0.00     0.049 A 
HETATM    7  C   UNL     1      29.155  48.996  40.356  1.00  0.00     0.144 A 
HETATM    8  C   UNL     1      28.177  48.787  41.544  1.00  0.00     0.246 A 
HETATM    9  O   UNL     1      27.866  47.736  42.081  1.00  0.00    -0.271 OA
HETATM   10  N   UNL     1      27.682  50.039  41.893  1.00  0.00    -0.325 N 
HETATM   11  C   UNL     1      28.226  51.040  41.101  1.00  0.00     0.043 A 
HETATM   12  C   UNL     1      29.126  50.503  40.167  1.00  0.00     0.003 A 
HETATM   13  C   UNL     1      27.952  52.388  41.196  1.00  0.00     0.030 A 
HETATM   14  C   UNL     1      28.612  53.238  40.312  1.00  0.00     0.003 A 
HETATM   15  C   UNL     1      29.516  52.724  39.366  1.00  0.00     0.007 A 
HETATM   16  C   UNL     1      29.783  51.347  39.270  1.00  0.00    -0.051 A 
HETATM   17  C   UNL     1      30.760  50.853  38.245  1.00  0.00     0.049 C 
HETATM   18  C   UNL     1      28.667  48.199  39.151  1.00  0.00     0.081 A 
HETATM   19  C   UNL     1      27.200  48.332  38.777  1.00  0.00     0.021 C 
HETATM   20  N   UNL     1      25.983  48.442  38.467  1.00  0.00    -0.096 N 
HETATM   21  C   UNL     1      29.458  47.328  38.468  1.00  0.00     0.140 A 
HETATM   22  O   UNL     1      30.800  47.107  38.829  1.00  0.00    -0.279 OA
HETATM   23  H   UNL     1      27.008  50.174  42.633  1.00  0.00     0.169 HD
ENDROOT
BRANCH  21  24
HETATM   24  N   UNL     1      29.066  46.569  37.389  1.00  0.00    -0.282 NA
HETATM   25  H   UNL     1      29.637  46.663  36.553  1.00  0.00     0.126 HD
HETATM   26  H   UNL     1      28.073  46.673  37.195  1.00  0.00     0.126 HD
ENDBRANCH  21  24
BRANCH   1  27
HETATM   27  C   UNL     1      31.186  49.688  43.034  1.00  0.00     0.061 C 
BRANCH  27  28
HETATM   28  C   UNL     1      32.130  50.882  43.200  1.00  0.00     0.002 C 
HETATM   29  C   UNL     1      31.604  52.106  42.465  1.00  0.00     0.005 C 
ENDBRANCH  27  28
ENDBRANCH   1  27
TORSDOF 3
ENDMDL
MODEL 4
REMARK VINA RESULT:      -7.5      3.065      5.215
REMARK  3 active torsions:
REMARK  status: ('A' for Active; 'I' for Inactive)
REMARK    1  A    between atoms: C_2  and  C_3 
REMARK    2  A    between atoms: C_3  and  C_4 
REMARK    3  A    between atoms: C_24  and  N_25 
ROOT
HETATM    1  C   UNL     1      30.426  51.371  38.036  1.00  0.00     0.067 A 
HETATM    2  N   UNL     1      29.844  52.401  37.397  1.00  0.00    -0.177 NA
HETATM    3  N   UNL     1      28.550  52.340  37.762  1.00  0.00    -0.256 N 
HETATM    4  H   UNL     1      27.900  53.021  37.381  1.00  0.00     0.191 HD
HETATM    5  C   UNL     1      28.290  51.305  38.596  1.00  0.00     0.176 A 
HETATM    6  C   UNL     1      29.483  50.666  38.829  1.00  0.00     0.049 A 
HETATM    7  C   UNL     1      29.500  49.459  39.703  1.00  0.00     0.144 A 
HETATM    8  C   UNL     1      30.187  48.259  38.993  1.00  0.00     0.246 A 
HETATM    9  O   UNL     1      29.816  47.673  37.989  1.00  0.00    -0.271 OA
HETATM   10  N   UNL     1      31.323  47.943  39.730  1.00  0.00    -0.325 N 
HETATM   11  C   UNL     1      31.479  48.791  40.816  1.00  0.00     0.043 A 
HETATM   12  C   UNL     1      30.440  49.736  40.864  1.00  0.00     0.003 A 
HETATM   13  C   UNL     1      32.505  48.751  41.737  1.00  0.00     0.030 A 
HETATM   14  C   UNL     1      32.489  49.703  42.752  1.00  0.00     0.003 A 
HETATM   15  C   UNL     1      31.458  50.657  42.824  1.00  0.00     0.007 A 
HETATM   16  C   UNL     1      30.410  50.685  41.886  1.00  0.00    -0.051 A 
HETATM   17  C   UNL     1      29.339  51.727  42.006  1.00  0.00     0.049 C 
HETATM   18  C   UNL     1      28.087  49.063  40.115  1.00  0.00     0.081 A 
HETATM   19  C   UNL     1      27.919  47.736  40.838  1.00  0.00     0.021 C 
HETATM   20  N   UNL     1      27.779  46.636  41.436  1.00  0.00    -0.096 N 
HETATM   21  C   UNL     1      26.987  49.795  39.791  1.00  0.00     0.140 A 
HETATM   22  O   UNL     1      27.084  50.987  39.050  1.00  0.00    -0.279 OA
HETATM   23  H   UNL     1      31.939  47.181  39.485  1.00  0.00     0.169 HD
ENDROOT
BRANCH  21  24
HETATM   24  N   UNL     1      25.689  49.475  40.118  1.00  0.00    -0.282 NA
HETATM   25  H   UNL     1      25.226  48.819  39.494  1.00  0.00     0.126 HD
HETATM   26  H   UNL     1      25.128  50.306  40.294  1.00  0.00     0.126 HD
ENDBRANCH  21  24
BRANCH   1  27
HETATM   27  C   UNL     1      31.874  51.059  37.811  1.00  0.00     0.061 C 
BRANCH  27  28
HETATM   28  C   UNL     1      32.796  51.440  38.973  1.00  0.00     0.002 C 
HETATM   29  C   UNL     1      32.353  52.742  39.623  1.00  0.00     0.005 C 
ENDBRANCH  27  28
ENDBRANCH   1  27
TORSDOF 3
ENDMDL
MODEL 5
REMARK VINA RESULT:      -7.2      2.802      5.529
REMARK  3 active torsions:
REMARK  status: ('A' for Active; 'I' for Inactive)
REMARK    1  A    between atoms: C_2  and  C_3 
REMARK    2  A    between atoms: C_3  and  C_4 
REMARK    3  A    between atoms: C_24  and  N_25 
ROOT
HETATM    1  C   UNL     1      28.814  52.346  40.745  1.00  0.00     0.067 A 
HETATM    2  N   UNL     1      27.681  52.807  41.302  1.00  0.00    -0.177 NA
HETATM    3  N   UNL     1      26.842  51.756  41.287  1.00  0.00    -0.256 N 
HETATM    4  H   UNL     1      25.900  51.874  41.648  1.00  0.00     0.191 HD
HETATM    5  C   UNL     1      27.396  50.652  40.729  1.00  0.00     0.176 A 
HETATM    6  C   UNL     1      28.687  50.977  40.391  1.00  0.00     0.049 A 
HETATM    7  C   UNL     1      29.543  49.953  39.728  1.00  0.00     0.144 A 
HETATM    8  C   UNL     1      30.161  50.501  38.412  1.00  0.00     0.246 A 
HETATM    9  O   UNL     1      29.576  50.841  37.397  1.00  0.00    -0.271 OA
HETATM   10  N   UNL     1      31.541  50.521  38.585  1.00  0.00    -0.325 N 
HETATM   11  C   UNL     1      31.903  50.077  39.848  1.00  0.00     0.043 A 
HETATM   12  C   UNL     1      30.768  49.732  40.599  1.00  0.00     0.003 A 
HETATM   13  C   UNL     1      33.189  49.984  40.337  1.00  0.00     0.030 A 
HETATM   14  C   UNL     1      33.343  49.524  41.642  1.00  0.00     0.003 A 
HETATM   15  C   UNL     1      32.223  49.169  42.414  1.00  0.00     0.007 A 
HETATM   16  C   UNL     1      30.916  49.258  41.904  1.00  0.00    -0.051 A 
HETATM   17  C   UNL     1      29.755  48.871  42.772  1.00  0.00     0.049 C 
HETATM   18  C   UNL     1      28.746  48.689  39.426  1.00  0.00     0.081 A 
HETATM   19  C   UNL     1      29.421  47.629  38.570  1.00  0.00     0.021 C 
HETATM   20  N   UNL     1      29.979  46.751  37.859  1.00  0.00    -0.096 N 
HETATM   21  C   UNL     1      27.454  48.516  39.814  1.00  0.00     0.140 A 
HETATM   22  O   UNL     1      26.759  49.504  40.536  1.00  0.00    -0.279 OA
HETATM   23  H   UNL     1      32.177  50.822  37.861  1.00  0.00     0.169 HD
ENDROOT
BRANCH  21  24
HETATM   24  N   UNL     1      26.682  47.407  39.553  1.00  0.00    -0.282 NA
HETATM   25  H   UNL     1      26.316  47.338  38.606  1.00  0.00     0.126 HD
HETATM   26  H   UNL     1      25.960  47.273  40.258  1.00  0.00     0.126 HD
ENDBRANCH  21  24
BRANCH   1  27
HETATM   27  C   UNL     1      29.974  53.266  40.510  1.00  0.00     0.061 C 
BRANCH  27  28
HETATM   28  C   UNL     1      31.141  53.080  41.485  1.00  0.00     0.002 C 
HETATM   29  C   UNL     1      30.644  52.728  42.879  1.00  0.00     0.005 C 
ENDBRANCH  27  28
ENDBRANCH   1  27
TORSDOF 3
ENDMDL
MODEL 6
REMARK VINA RESULT:      -7.2      2.388      3.164
REMARK  3 active torsions:
REMARK  status: ('A' for Active; 'I' for Inactive)
REMARK    1  A    between atoms: C_2  and  C_3 
REMARK    2  A    between atoms: C_3  and  C_4 
REMARK    3  A    between atoms: C_24  and  N_25 
ROOT
HETATM    1  C   UNL     1      28.891  51.149  38.328  1.00  0.00     0.067 A 
HETATM    2  N   UNL     1      29.507  51.793  37.322  1.00  0.00    -0.177 NA
HETATM    3  N   UNL     1      30.819  51.587  37.539  1.00  0.00    -0.256 N 
HETATM    4  H   UNL     1      31.493  52.003  36.905  1.00  0.00     0.191 HD
HETATM    5  C   UNL     1      31.055  50.850  38.651  1.00  0.00     0.176 A 
HETATM    6  C   UNL     1      29.833  50.514  39.179  1.00  0.00     0.049 A 
HETATM    7  C   UNL     1      29.780  49.714  40.436  1.00  0.00     0.144 A 
HETATM    8  C   UNL     1      28.892  50.405  41.506  1.00  0.00     0.246 A 
HETATM    9  O   UNL     1      29.081  51.478  42.057  1.00  0.00    -0.271 OA
HETATM   10  N   UNL     1      27.817  49.558  41.755  1.00  0.00    -0.325 N 
HETATM   11  C   UNL     1      27.877  48.415  40.972  1.00  0.00     0.043 A 
HETATM   12  C   UNL     1      29.012  48.437  40.145  1.00  0.00     0.003 A 
HETATM   13  C   UNL     1      26.962  47.383  40.970  1.00  0.00     0.030 A 
HETATM   14  C   UNL     1      27.196  46.324  40.098  1.00  0.00     0.003 A 
HETATM   15  C   UNL     1      28.326  46.321  39.262  1.00  0.00     0.007 A 
HETATM   16  C   UNL     1      29.259  47.373  39.276  1.00  0.00    -0.051 A 
HETATM   17  C   UNL     1      30.446  47.321  38.360  1.00  0.00     0.049 C 
HETATM   18  C   UNL     1      31.179  49.496  41.002  1.00  0.00     0.081 A 
HETATM   19  C   UNL     1      31.280  48.874  42.386  1.00  0.00     0.021 C 
HETATM   20  N   UNL     1      31.364  48.360  43.533  1.00  0.00    -0.096 N 
HETATM   21  C   UNL     1      32.309  49.905  40.365  1.00  0.00     0.140 A 
HETATM   22  O   UNL     1      32.262  50.560  39.122  1.00  0.00    -0.279 OA
HETATM   23  H   UNL     1      27.098  49.772  42.431  1.00  0.00     0.169 HD
ENDROOT
BRANCH  21  24
HETATM   24  N   UNL     1      33.593  49.752  40.838  1.00  0.00    -0.282 NA
HETATM   25  H   UNL     1      34.028  48.852  40.649  1.00  0.00     0.126 HD
HETATM   26  H   UNL     1      33.671  50.024  41.815  1.00  0.00     0.126 HD
ENDBRANCH  21  24
BRANCH   1  27
HETATM   27  C   UNL     1      27.401  51.219  38.474  1.00  0.00     0.061 C 
BRANCH  27  28
HETATM   28  C   UNL     1      26.646  50.025  37.881  1.00  0.00     0.002 C 
HETATM   29  C   UNL     1      25.342  49.773  38.623  1.00  0.00     0.005 C 
ENDBRANCH  27  28
ENDBRANCH   1  27
TORSDOF 3
ENDMDL
MODEL 7
REMARK VINA RESULT:      -7.0      2.280      4.402
REMARK  3 active torsions:
REMARK  status: ('A' for Active; 'I' for Inactive)
REMARK    1  A    between atoms: C_2  and  C_3 
REMARK    2  A    between atoms: C_3  and  C_4 
REMARK    3  A    between atoms: C_24  and  N_25 
ROOT
HETATM    1  C   UNL     1      28.637  48.908  40.944  1.00  0.00     0.067 A 
HETATM    2  N   UNL     1      28.335  48.233  42.067  1.00  0.00    -0.177 NA
HETATM    3  N   UNL     1      29.415  48.385  42.856  1.00  0.00    -0.256 N 
HETATM    4  H   UNL     1      29.424  47.938  43.767  1.00  0.00     0.191 HD
HETATM    5  C   UNL     1      30.392  49.118  42.269  1.00  0.00     0.176 A 
HETATM    6  C   UNL     1      29.920  49.507  41.040  1.00  0.00     0.049 A 
HETATM    7  C   UNL     1      30.800  50.315  40.148  1.00  0.00     0.144 A 
HETATM    8  C   UNL     1      30.923  49.667  38.741  1.00  0.00     0.246 A 
HETATM    9  O   UNL     1      31.421  48.591  38.454  1.00  0.00    -0.271 OA
HETATM   10  N   UNL     1      30.369  50.560  37.829  1.00  0.00    -0.325 N 
HETATM   11  C   UNL     1      29.881  51.696  38.460  1.00  0.00     0.043 A 
HETATM   12  C   UNL     1      30.086  51.622  39.847  1.00  0.00     0.003 A 
HETATM   13  C   UNL     1      29.265  52.764  37.844  1.00  0.00     0.030 A 
HETATM   14  C   UNL     1      28.834  53.808  38.657  1.00  0.00     0.003 A 
HETATM   15  C   UNL     1      29.029  53.760  40.049  1.00  0.00     0.007 A 
HETATM   16  C   UNL     1      29.667  52.670  40.668  1.00  0.00    -0.051 A 
HETATM   17  C   UNL     1      29.847  52.667  42.157  1.00  0.00     0.049 C 
HETATM   18  C   UNL     1      32.189  50.478  40.755  1.00  0.00     0.081 A 
HETATM   19  C   UNL     1      33.262  51.103  39.877  1.00  0.00     0.021 C 
HETATM   20  N   UNL     1      34.152  51.619  39.149  1.00  0.00    -0.096 N 
HETATM   21  C   UNL     1      32.517  50.019  41.992  1.00  0.00     0.140 A 
HETATM   22  O   UNL     1      31.580  49.359  42.809  1.00  0.00    -0.279 OA
HETATM   23  H   UNL     1      30.341  50.380  36.836  1.00  0.00     0.169 HD
ENDROOT
BRANCH  21  24
HETATM   24  N   UNL     1      33.757  50.121  42.580  1.00  0.00    -0.282 NA
HETATM   25  H   UNL     1      34.108  49.272  43.018  1.00  0.00     0.126 HD
HETATM   26  H   UNL     1      33.819  50.929  43.195  1.00  0.00     0.126 HD
ENDBRANCH  21  24
BRANCH   1  27
HETATM   27  C   UNL     1      27.695  48.901  39.778  1.00  0.00     0.061 C 
BRANCH  27  28
HETATM   28  C   UNL     1      26.814  50.148  39.664  1.00  0.00     0.002 C 
HETATM   29  C   UNL     1      26.428  50.420  38.218  1.00  0.00     0.005 C 
ENDBRANCH  27  28
ENDBRANCH   1  27
TORSDOF 3
ENDMDL
MODEL 8
REMARK VINA RESULT:      -7.0      2.322      3.537
REMARK  3 active torsions:
REMARK  status: ('A' for Active; 'I' for Inactive)
REMARK    1  A    between atoms: C_2  and  C_3 
REMARK    2  A    between atoms: C_3  and  C_4 
REMARK    3  A    between atoms: C_24  and  N_25 
ROOT
HETATM    1  C   UNL     1      31.748  48.562  40.379  1.00  0.00     0.067 A 
HETATM    2  N   UNL     1      32.312  47.481  40.945  1.00  0.00    -0.177 NA
HETATM    3  N   UNL     1      33.502  47.914  41.398  1.00  0.00    -0.256 N 
HETATM    4  H   UNL     1      34.123  47.255  41.855  1.00  0.00     0.191 HD
HETATM    5  C   UNL     1      33.718  49.225  41.129  1.00  0.00     0.176 A 
HETATM    6  C   UNL     1      32.594  49.697  40.497  1.00  0.00     0.049 A 
HETATM    7  C   UNL     1      32.554  51.119  40.054  1.00  0.00     0.144 A 
HETATM    8  C   UNL     1      32.183  51.230  38.549  1.00  0.00     0.246 A 
HETATM    9  O   UNL     1      32.821  50.826  37.590  1.00  0.00    -0.271 OA
HETATM   10  N   UNL     1      30.972  51.909  38.475  1.00  0.00    -0.325 N 
HETATM   11  C   UNL     1      30.493  52.237  39.735  1.00  0.00     0.043 A 
HETATM   12  C   UNL     1      31.372  51.787  40.734  1.00  0.00     0.003 A 
HETATM   13  C   UNL     1      29.316  52.901  40.008  1.00  0.00     0.030 A 
HETATM   14  C   UNL     1      29.005  53.125  41.346  1.00  0.00     0.003 A 
HETATM   15  C   UNL     1      29.870  52.689  42.366  1.00  0.00     0.007 A 
HETATM   16  C   UNL     1      31.073  52.020  42.078  1.00  0.00    -0.051 A 
HETATM   17  C   UNL     1      31.957  51.571  43.203  1.00  0.00     0.049 C 
HETATM   18  C   UNL     1      33.894  51.804  40.298  1.00  0.00     0.081 A 
HETATM   19  C   UNL     1      34.080  53.196  39.715  1.00  0.00     0.021 C 
HETATM   20  N   UNL     1      34.235  54.349  39.231  1.00  0.00    -0.096 N 
HETATM   21  C   UNL     1      34.934  51.196  40.929  1.00  0.00     0.140 A 
HETATM   22  O   UNL     1      34.838  49.878  41.412  1.00  0.00    -0.279 OA
HETATM   23  H   UNL     1      30.520  52.127  37.598  1.00  0.00     0.169 HD
ENDROOT
BRANCH  21  24
HETATM   24  N   UNL     1      36.169  51.758  41.159  1.00  0.00    -0.282 NA
HETATM   25  H   UNL     1      36.529  51.661  42.106  1.00  0.00     0.126 HD
HETATM   26  H   UNL     1      36.217  52.716  40.822  1.00  0.00     0.126 HD
ENDBRANCH  21  24
BRANCH   1  27
HETATM   27  C   UNL     1      30.427  48.452  39.680  1.00  0.00     0.061 C 
BRANCH  27  28
HETATM   28  C   UNL     1      29.216  48.804  40.549  1.00  0.00     0.002 C 
HETATM   29  C   UNL     1      28.091  49.396  39.714  1.00  0.00     0.005 C 
ENDBRANCH  27  28
ENDBRANCH   1  27
TORSDOF 3
ENDMDL
MODEL 9
REMARK VINA RESULT:      -6.6     12.795     14.589
REMARK  3 active torsions:
REMARK  status: ('A' for Active; 'I' for Inactive)
REMARK    1  A    between atoms: C_2  and  C_3 
REMARK    2  A    between atoms: C_3  and  C_4 
REMARK    3  A    between atoms: C_24  and  N_25 
ROOT
HETATM    1  C   UNL     1      18.545  48.523  45.562  1.00  0.00     0.067 A 
HETATM    2  N   UNL     1      18.432  49.547  44.699  1.00  0.00    -0.177 NA
HETATM    3  N   UNL     1      18.501  50.650  45.468  1.00  0.00    -0.256 N 
HETATM    4  H   UNL     1      18.418  51.560  45.028  1.00  0.00     0.191 HD
HETATM    5  C   UNL     1      18.639  50.360  46.784  1.00  0.00     0.176 A 
HETATM    6  C   UNL     1      18.705  48.993  46.892  1.00  0.00     0.049 A 
HETATM    7  C   UNL     1      18.835  48.377  48.243  1.00  0.00     0.144 A 
HETATM    8  C   UNL     1      17.737  47.304  48.481  1.00  0.00     0.246 A 
HETATM    9  O   UNL     1      16.530  47.471  48.543  1.00  0.00    -0.271 OA
HETATM   10  N   UNL     1      18.384  46.083  48.637  1.00  0.00    -0.325 N 
HETATM   11  C   UNL     1      19.759  46.215  48.511  1.00  0.00     0.043 A 
HETATM   12  C   UNL     1      20.110  47.552  48.260  1.00  0.00     0.003 A 
HETATM   13  C   UNL     1      20.684  45.197  48.602  1.00  0.00     0.030 A 
HETATM   14  C   UNL     1      22.024  45.534  48.434  1.00  0.00     0.003 A 
HETATM   15  C   UNL     1      22.402  46.865  48.185  1.00  0.00     0.007 A 
HETATM   16  C   UNL     1      21.453  47.900  48.102  1.00  0.00    -0.051 A 
HETATM   17  C   UNL     1      21.910  49.302  47.830  1.00  0.00     0.049 C 
HETATM   18  C   UNL     1      18.754  49.437  49.336  1.00  0.00     0.081 A 
HETATM   19  C   UNL     1      18.665  48.949  50.773  1.00  0.00     0.021 C 
HETATM   20  N   UNL     1      18.591  48.545  51.964  1.00  0.00    -0.096 N 
HETATM   21  C   UNL     1      18.673  50.769  49.073  1.00  0.00     0.140 A 
HETATM   22  O   UNL     1      18.667  51.265  47.756  1.00  0.00    -0.279 OA
HETATM   23  H   UNL     1      17.889  45.222  48.822  1.00  0.00     0.169 HD
ENDROOT
BRANCH  21  24
HETATM   24  N   UNL     1      18.578  51.767  50.017  1.00  0.00    -0.282 NA
HETATM   25  H   UNL     1      19.152  52.590  49.848  1.00  0.00     0.126 HD
HETATM   26  H   UNL     1      18.686  51.405  50.961  1.00  0.00     0.126 HD
ENDBRANCH  21  24
BRANCH   1  27
HETATM   27  C   UNL     1      18.431  47.108  45.080  1.00  0.00     0.061 C 
BRANCH  27  28
HETATM   28  C   UNL     1      19.769  46.430  44.774  1.00  0.00     0.002 C 
HETATM   29  C   UNL     1      19.696  44.930  45.020  1.00  0.00     0.005 C 
ENDBRANCH  27  28
ENDBRANCH   1  27
TORSDOF 3
ENDMDL
MODEL 10
REMARK VINA RESULT:      -6.6     24.453     26.525
REMARK  3 active torsions:
REMARK  status: ('A' for Active; 'I' for Inactive)
REMARK    1  A    between atoms: C_2  and  C_3 
REMARK    2  A    between atoms: C_3  and  C_4 
REMARK    3  A    between atoms: C_24  and  N_25 
ROOT
HETATM    1  C   UNL     1      38.896  44.541  63.660  1.00  0.00     0.067 A 
HETATM    2  N   UNL     1      38.241  43.776  62.769  1.00  0.00    -0.177 NA
HETATM    3  N   UNL     1      37.018  43.602  63.303  1.00  0.00    -0.256 N 
HETATM    4  H   UNL     1      36.342  43.031  62.807  1.00  0.00     0.191 HD
HETATM    5  C   UNL     1      36.880  44.218  64.503  1.00  0.00     0.176 A 
HETATM    6  C   UNL     1      38.062  44.867  64.762  1.00  0.00     0.049 A 
HETATM    7  C   UNL     1      38.212  45.618  66.040  1.00  0.00     0.144 A 
HETATM    8  C   UNL     1      39.489  45.176  66.807  1.00  0.00     0.246 A 
HETATM    9  O   UNL     1      39.731  44.080  67.285  1.00  0.00    -0.271 OA
HETATM   10  N   UNL     1      40.329  46.282  66.876  1.00  0.00    -0.325 N 
HETATM   11  C   UNL     1      39.777  47.383  66.237  1.00  0.00     0.043 A 
HETATM   12  C   UNL     1      38.519  47.066  65.697  1.00  0.00     0.003 A 
HETATM   13  C   UNL     1      40.357  48.628  66.118  1.00  0.00     0.030 A 
HETATM   14  C   UNL     1      39.643  49.601  65.425  1.00  0.00     0.003 A 
HETATM   15  C   UNL     1      38.381  49.311  64.878  1.00  0.00     0.007 A 
HETATM   16  C   UNL     1      37.792  48.041  65.012  1.00  0.00    -0.051 A 
HETATM   17  C   UNL     1      36.445  47.783  64.405  1.00  0.00     0.049 C 
HETATM   18  C   UNL     1      36.991  45.425  66.932  1.00  0.00     0.081 A 
HETATM   19  C   UNL     1      37.077  45.960  68.353  1.00  0.00     0.021 C 
HETATM   20  N   UNL     1      37.148  46.402  69.531  1.00  0.00    -0.096 N 
HETATM   21  C   UNL     1      35.888  44.734  66.541  1.00  0.00     0.140 A 
HETATM   22  O   UNL     1      35.795  44.148  65.265  1.00  0.00    -0.279 OA
HETATM   23  H   UNL     1      41.223  46.261  67.344  1.00  0.00     0.169 HD
ENDROOT
BRANCH  21  24
HETATM   24  N   UNL     1      34.768  44.511  67.310  1.00  0.00    -0.282 NA
HETATM   25  H   UNL     1      34.282  45.345  67.632  1.00  0.00     0.126 HD
HETATM   26  H   UNL     1      34.952  43.854  68.064  1.00  0.00     0.126 HD
ENDBRANCH  21  24
BRANCH   1  27
HETATM   27  C   UNL     1      40.339  44.885  63.449  1.00  0.00     0.061 C 
BRANCH  27  28
HETATM   28  C   UNL     1      41.326  43.846  63.988  1.00  0.00     0.002 C 
HETATM   29  C   UNL     1      42.555  44.512  64.590  1.00  0.00     0.005 C 
ENDBRANCH  27  28
ENDBRANCH   1  27
TORSDOF 3
ENDMDL
