MODEL 1
REMARK VINA RESULT:      -8.3      0.000      0.000
REMARK  2 active torsions:
REMARK  status: ('A' for Active; 'I' for Inactive)
REMARK    1  A    between atoms: C_8  and  S_9 
REMARK    2  A    between atoms: S_9  and  C_10 
ROOT
HETATM    1  C   UNL     1      31.011  43.321  55.813  1.00  0.00     0.002 A 
HETATM    2  C   UNL     1      29.948  43.244  54.913  1.00  0.00     0.034 A 
HETATM    3  C   UNL     1      29.008  44.263  54.822  1.00  0.00     0.087 A 
HETATM    4  C   UNL     1      29.133  45.399  55.662  1.00  0.00     0.087 A 
HETATM    5  N   UNL     1      28.250  46.417  55.602  1.00  0.00    -0.231 NA
HETATM    6  C   UNL     1      27.215  46.292  54.742  1.00  0.00     0.167 A 
HETATM    7 CL   UNL     1      26.229  47.691  54.687  1.00  0.00    -0.059 Cl
HETATM    8  C   UNL     1      27.098  45.184  53.937  1.00  0.00     0.192 A 
HETATM    9  N   UNL     1      27.999  44.161  53.935  1.00  0.00    -0.232 NA
HETATM   10  C   UNL     1      30.198  45.463  56.552  1.00  0.00     0.034 A 
HETATM   11  C   UNL     1      31.137  44.434  56.634  1.00  0.00     0.002 A 
ENDROOT
BRANCH   8  12
HETATM   12  S   UNL     1      25.801  44.967  52.764  1.00  0.00     0.200 S 
HETATM   13  O   UNL     1      24.668  44.339  53.424  1.00  0.00    -0.221 OA
HETATM   14  O   UNL     1      25.587  46.200  52.037  1.00  0.00    -0.221 OA
BRANCH  12  15
HETATM   15  C   UNL     1      26.434  43.753  51.600  1.00  0.00     0.118 C 
HETATM   16  C   UNL     1      27.218  44.446  50.474  1.00  0.00     0.048 C 
HETATM   17  C   UNL     1      26.319  45.170  49.480  1.00  0.00     0.233 C 
HETATM   18  N   UNL     1      25.303  44.215  48.950  1.00  0.00    -0.075 N 
HETATM   19  H   UNL     1      25.759  43.508  48.357  1.00  0.00     0.277 HD
HETATM   20  H   UNL     1      24.680  44.736  48.315  1.00  0.00     0.277 HD
HETATM   21  C   UNL     1      24.454  43.549  49.979  1.00  0.00     0.233 C 
HETATM   22  C   UNL     1      25.338  42.854  51.010  1.00  0.00     0.048 C 
ENDBRANCH  12  15
ENDBRANCH   8  12
TORSDOF 2
ENDMDL
MODEL 2
REMARK VINA RESULT:      -7.9      1.987      2.603
REMARK  2 active torsions:
REMARK  status: ('A' for Active; 'I' for Inactive)
REMARK    1  A    between atoms: C_8  and  S_9 
REMARK    2  A    between atoms: S_9  and  C_10 
ROOT
HETATM    1  C   UNL     1      30.483  45.286  56.385  1.00  0.00     0.002 A 
HETATM    2  C   UNL     1      29.346  45.782  55.748  1.00  0.00     0.034 A 
HETATM    3  C   UNL     1      28.706  45.056  54.751  1.00  0.00     0.087 A 
HETATM    4  C   UNL     1      29.222  43.790  54.376  1.00  0.00     0.087 A 
HETATM    5  N   UNL     1      28.628  43.045  53.420  1.00  0.00    -0.231 NA
HETATM    6  C   UNL     1      27.549  43.573  52.801  1.00  0.00     0.167 A 
HETATM    7 CL   UNL     1      26.829  42.490  51.688  1.00  0.00    -0.059 Cl
HETATM    8  C   UNL     1      27.060  44.804  53.168  1.00  0.00     0.192 A 
HETATM    9  N   UNL     1      27.603  45.561  54.163  1.00  0.00    -0.232 NA
HETATM   10  C   UNL     1      30.354  43.307  55.021  1.00  0.00     0.034 A 
HETATM   11  C   UNL     1      30.988  44.044  56.021  1.00  0.00     0.002 A 
ENDROOT
BRANCH   8  12
HETATM   12  S   UNL     1      25.635  45.541  52.438  1.00  0.00     0.200 S 
HETATM   13  O   UNL     1      24.535  44.594  52.487  1.00  0.00    -0.221 OA
HETATM   14  O   UNL     1      25.437  46.868  52.983  1.00  0.00    -0.221 OA
BRANCH  12  15
HETATM   15  C   UNL     1      26.055  45.726  50.700  1.00  0.00     0.118 C 
HETATM   16  C   UNL     1      25.890  47.189  50.259  1.00  0.00     0.048 C 
HETATM   17  C   UNL     1      24.433  47.609  50.119  1.00  0.00     0.233 C 
HETATM   18  N   UNL     1      23.735  46.665  49.199  1.00  0.00    -0.075 N 
HETATM   19  H   UNL     1      24.089  46.782  48.240  1.00  0.00     0.277 HD
HETATM   20  H   UNL     1      22.742  46.942  49.154  1.00  0.00     0.277 HD
HETATM   21  C   UNL     1      23.792  45.228  49.594  1.00  0.00     0.233 C 
HETATM   22  C   UNL     1      25.244  44.800  49.782  1.00  0.00     0.048 C 
ENDBRANCH  12  15
ENDBRANCH   8  12
TORSDOF 2
ENDMDL
MODEL 3
REMARK VINA RESULT:      -7.6      4.273      7.543
REMARK  2 active torsions:
REMARK  status: ('A' for Active; 'I' for Inactive)
REMARK    1  A    between atoms: C_8  and  S_9 
REMARK    2  A    between atoms: S_9  and  C_10 
ROOT
HETATM    1  C   UNL     1      21.255  49.711  48.573  1.00  0.00     0.002 A 
HETATM    2  C   UNL     1      21.991  48.639  49.080  1.00  0.00     0.034 A 
HETATM    3  C   UNL     1      23.379  48.666  49.103  1.00  0.00     0.087 A 
HETATM    4  C   UNL     1      24.058  49.804  48.599  1.00  0.00     0.087 A 
HETATM    5  N   UNL     1      25.406  49.879  48.609  1.00  0.00    -0.231 NA
HETATM    6  C   UNL     1      26.085  48.808  49.077  1.00  0.00     0.167 A 
HETATM    7 CL   UNL     1      27.775  49.070  49.134  1.00  0.00    -0.059 Cl
HETATM    8  C   UNL     1      25.417  47.706  49.558  1.00  0.00     0.192 A 
HETATM    9  N   UNL     1      24.058  47.617  49.609  1.00  0.00    -0.232 NA
HETATM   10  C   UNL     1      23.314  50.865  48.099  1.00  0.00     0.034 A 
HETATM   11  C   UNL     1      21.919  50.827  48.082  1.00  0.00     0.002 A 
ENDROOT
BRANCH   8  12
HETATM   12  S   UNL     1      26.229  46.289  50.219  1.00  0.00     0.200 S 
HETATM   13  O   UNL     1      27.313  45.908  49.330  1.00  0.00    -0.221 OA
HETATM   14  O   UNL     1      26.521  46.504  51.621  1.00  0.00    -0.221 OA
BRANCH  12  15
HETATM   15  C   UNL     1      25.011  44.972  50.113  1.00  0.00     0.118 C 
HETATM   16  C   UNL     1      24.484  44.613  51.512  1.00  0.00     0.048 C 
HETATM   17  C   UNL     1      25.492  43.835  52.347  1.00  0.00     0.233 C 
HETATM   18  N   UNL     1      25.933  42.628  51.588  1.00  0.00    -0.075 N 
HETATM   19  H   UNL     1      25.155  41.960  51.506  1.00  0.00     0.277 HD
HETATM   20  H   UNL     1      26.647  42.142  52.153  1.00  0.00     0.277 HD
HETATM   21  C   UNL     1      26.520  42.899  50.244  1.00  0.00     0.233 C 
HETATM   22  C   UNL     1      25.542  43.716  49.407  1.00  0.00     0.048 C 
ENDBRANCH  12  15
ENDBRANCH   8  12
TORSDOF 2
ENDMDL
MODEL 4
REMARK VINA RESULT:      -7.6      2.595      3.415
REMARK  2 active torsions:
REMARK  status: ('A' for Active; 'I' for Inactive)
REMARK    1  A    between atoms: C_8  and  S_9 
REMARK    2  A    between atoms: S_9  and  C_10 
ROOT
HETATM    1  C   UNL     1      29.935  45.247  56.140  1.00  0.00     0.002 A 
HETATM    2  C   UNL     1      28.988  45.355  55.121  1.00  0.00     0.034 A 
HETATM    3  C   UNL     1      28.860  44.369  54.151  1.00  0.00     0.087 A 
HETATM    4  C   UNL     1      29.710  43.235  54.199  1.00  0.00     0.087 A 
HETATM    5  N   UNL     1      29.616  42.248  53.284  1.00  0.00    -0.231 NA
HETATM    6  C   UNL     1      28.710  42.403  52.293  1.00  0.00     0.167 A 
HETATM    7 CL   UNL     1      28.616  41.040  51.263  1.00  0.00    -0.059 Cl
HETATM    8  C   UNL     1      27.894  43.510  52.251  1.00  0.00     0.192 A 
HETATM    9  N   UNL     1      27.928  44.501  53.187  1.00  0.00    -0.232 NA
HETATM   10  C   UNL     1      30.647  43.139  55.220  1.00  0.00     0.034 A 
HETATM   11  C   UNL     1      30.767  44.136  56.190  1.00  0.00     0.002 A 
ENDROOT
BRANCH   8  12
HETATM   12  S   UNL     1      26.664  43.765  51.016  1.00  0.00     0.200 S 
HETATM   13  O   UNL     1      27.296  44.303  49.824  1.00  0.00    -0.221 OA
HETATM   14  O   UNL     1      25.842  42.579  50.893  1.00  0.00    -0.221 OA
BRANCH  12  15
HETATM   15  C   UNL     1      25.627  45.080  51.668  1.00  0.00     0.118 C 
HETATM   16  C   UNL     1      24.157  44.848  51.280  1.00  0.00     0.048 C 
HETATM   17  C   UNL     1      23.876  45.133  49.811  1.00  0.00     0.233 C 
HETATM   18  N   UNL     1      24.331  46.515  49.482  1.00  0.00    -0.075 N 
HETATM   19  H   UNL     1      23.732  47.205  49.956  1.00  0.00     0.277 HD
HETATM   20  H   UNL     1      24.172  46.670  48.474  1.00  0.00     0.277 HD
HETATM   21  C   UNL     1      25.767  46.800  49.767  1.00  0.00     0.233 C 
HETATM   22  C   UNL     1      26.078  46.479  51.225  1.00  0.00     0.048 C 
ENDBRANCH  12  15
ENDBRANCH   8  12
TORSDOF 2
ENDMDL
MODEL 5
REMARK VINA RESULT:      -7.5      2.067      2.742
REMARK  2 active torsions:
REMARK  status: ('A' for Active; 'I' for Inactive)
REMARK    1  A    between atoms: C_8  and  S_9 
REMARK    2  A    between atoms: S_9  and  C_10 
ROOT
HETATM    1  C   UNL     1      30.581  43.011  54.437  1.00  0.00     0.002 A 
HETATM    2  C   UNL     1      29.934  42.957  53.202  1.00  0.00     0.034 A 
HETATM    3  C   UNL     1      28.833  43.759  52.931  1.00  0.00     0.087 A 
HETATM    4  C   UNL     1      28.361  44.648  53.931  1.00  0.00     0.087 A 
HETATM    5  N   UNL     1      27.301  45.453  53.709  1.00  0.00    -0.231 NA
HETATM    6  C   UNL     1      26.679  45.349  52.514  1.00  0.00     0.167 A 
HETATM    7 CL   UNL     1      25.422  46.494  52.320  1.00  0.00    -0.059 Cl
HETATM    8  C   UNL     1      27.141  44.480  51.554  1.00  0.00     0.192 A 
HETATM    9  N   UNL     1      28.238  43.689  51.724  1.00  0.00    -0.232 NA
HETATM   10  C   UNL     1      29.016  44.693  55.155  1.00  0.00     0.034 A 
HETATM   11  C   UNL     1      30.121  43.882  55.415  1.00  0.00     0.002 A 
ENDROOT
BRANCH   8  12
HETATM   12  S   UNL     1      26.410  44.315  49.959  1.00  0.00     0.200 S 
HETATM   13  O   UNL     1      26.338  45.626  49.335  1.00  0.00    -0.221 OA
HETATM   14  O   UNL     1      27.049  43.235  49.237  1.00  0.00    -0.221 OA
BRANCH  12  15
HETATM   15  C   UNL     1      24.712  43.823  50.282  1.00  0.00     0.118 C 
HETATM   16  C   UNL     1      24.551  42.304  50.111  1.00  0.00     0.048 C 
HETATM   17  C   UNL     1      24.573  41.862  48.654  1.00  0.00     0.233 C 
HETATM   18  N   UNL     1      23.540  42.625  47.893  1.00  0.00    -0.075 N 
HETATM   19  H   UNL     1      22.598  42.338  48.193  1.00  0.00     0.277 HD
HETATM   20  H   UNL     1      23.604  42.342  46.903  1.00  0.00     0.277 HD
HETATM   21  C   UNL     1      23.668  44.109  47.954  1.00  0.00     0.233 C 
HETATM   22  C   UNL     1      23.692  44.567  49.408  1.00  0.00     0.048 C 
ENDBRANCH  12  15
ENDBRANCH   8  12
TORSDOF 2
ENDMDL
MODEL 6
REMARK VINA RESULT:      -7.1      3.891      4.380
REMARK  2 active torsions:
REMARK  status: ('A' for Active; 'I' for Inactive)
REMARK    1  A    between atoms: C_8  and  S_9 
REMARK    2  A    between atoms: S_9  and  C_10 
ROOT
HETATM    1  C   UNL     1      30.356  43.469  54.744  1.00  0.00     0.002 A 
HETATM    2  C   UNL     1      29.975  42.681  53.657  1.00  0.00     0.034 A 
HETATM    3  C   UNL     1      28.744  42.857  53.038  1.00  0.00     0.087 A 
HETATM    4  C   UNL     1      27.861  43.855  53.523  1.00  0.00     0.087 A 
HETATM    5  N   UNL     1      26.659  44.068  52.948  1.00  0.00    -0.231 NA
HETATM    6  C   UNL     1      26.310  43.264  51.919  1.00  0.00     0.167 A 
HETATM    7 CL   UNL     1      24.815  43.705  51.212  1.00  0.00    -0.059 Cl
HETATM    8  C   UNL     1      27.171  42.296  51.460  1.00  0.00     0.192 A 
HETATM    9  N   UNL     1      28.412  42.086  51.984  1.00  0.00    -0.232 NA
HETATM   10  C   UNL     1      28.254  44.633  54.605  1.00  0.00     0.034 A 
HETATM   11  C   UNL     1      29.493  44.448  55.218  1.00  0.00     0.002 A 
ENDROOT
BRANCH   8  12
HETATM   12  S   UNL     1      26.806  41.236  50.100  1.00  0.00     0.200 S 
HETATM   13  O   UNL     1      25.989  40.129  50.569  1.00  0.00    -0.221 OA
HETATM   14  O   UNL     1      26.335  42.023  48.980  1.00  0.00    -0.221 OA
BRANCH  12  15
HETATM   15  C   UNL     1      28.389  40.524  49.636  1.00  0.00     0.118 C 
HETATM   16  C   UNL     1      28.565  40.552  48.109  1.00  0.00     0.048 C 
HETATM   17  C   UNL     1      27.707  39.519  47.391  1.00  0.00     0.233 C 
HETATM   18  N   UNL     1      27.982  38.169  47.962  1.00  0.00    -0.075 N 
HETATM   19  H   UNL     1      28.935  37.869  47.715  1.00  0.00     0.277 HD
HETATM   20  H   UNL     1      27.359  37.494  47.492  1.00  0.00     0.277 HD
HETATM   21  C   UNL     1      27.769  38.041  49.432  1.00  0.00     0.233 C 
HETATM   22  C   UNL     1      28.588  39.097  50.167  1.00  0.00     0.048 C 
ENDBRANCH  12  15
ENDBRANCH   8  12
TORSDOF 2
ENDMDL
MODEL 7
REMARK VINA RESULT:      -7.0      2.383      2.835
REMARK  2 active torsions:
REMARK  status: ('A' for Active; 'I' for Inactive)
REMARK    1  A    between atoms: C_8  and  S_9 
REMARK    2  A    between atoms: S_9  and  C_10 
ROOT
HETATM    1  C   UNL     1      31.249  44.721  58.108  1.00  0.00     0.002 A 
HETATM    2  C   UNL     1      31.069  44.127  56.859  1.00  0.00     0.034 A 
HETATM    3  C   UNL     1      30.031  44.515  56.021  1.00  0.00     0.087 A 
HETATM    4  C   UNL     1      29.139  45.531  56.448  1.00  0.00     0.087 A 
HETATM    5  N   UNL     1      28.122  45.947  55.664  1.00  0.00    -0.231 NA
HETATM    6  C   UNL     1      27.959  45.326  54.474  1.00  0.00     0.167 A 
HETATM    7 CL   UNL     1      26.705  46.014  53.535  1.00  0.00    -0.059 Cl
HETATM    8  C   UNL     1      28.825  44.336  54.073  1.00  0.00     0.192 A 
HETATM    9  N   UNL     1      29.892  43.927  54.816  1.00  0.00    -0.232 NA
HETATM   10  C   UNL     1      29.331  46.116  57.693  1.00  0.00     0.034 A 
HETATM   11  C   UNL     1      30.378  45.719  58.526  1.00  0.00     0.002 A 
ENDROOT
BRANCH   8  12
HETATM   12  S   UNL     1      28.703  43.507  52.523  1.00  0.00     0.200 S 
HETATM   13  O   UNL     1      28.402  44.482  51.488  1.00  0.00    -0.221 OA
HETATM   14  O   UNL     1      29.843  42.632  52.345  1.00  0.00    -0.221 OA
BRANCH  12  15
HETATM   15  C   UNL     1      27.241  42.472  52.671  1.00  0.00     0.118 C 
HETATM   16  C   UNL     1      27.599  40.998  52.424  1.00  0.00     0.048 C 
HETATM   17  C   UNL     1      27.869  40.687  50.958  1.00  0.00     0.233 C 
HETATM   18  N   UNL     1      26.701  41.125  50.139  1.00  0.00    -0.075 N 
HETATM   19  H   UNL     1      25.886  40.530  50.342  1.00  0.00     0.277 HD
HETATM   20  H   UNL     1      26.924  40.946  49.148  1.00  0.00     0.277 HD
HETATM   21  C   UNL     1      26.331  42.564  50.272  1.00  0.00     0.233 C 
HETATM   22  C   UNL     1      26.099  42.905  51.741  1.00  0.00     0.048 C 
ENDBRANCH  12  15
ENDBRANCH   8  12
TORSDOF 2
ENDMDL
MODEL 8
REMARK VINA RESULT:      -6.9      2.807      3.603
REMARK  2 active torsions:
REMARK  status: ('A' for Active; 'I' for Inactive)
REMARK    1  A    between atoms: C_8  and  S_9 
REMARK    2  A    between atoms: S_9  and  C_10 
ROOT
HETATM    1  C   UNL     1      28.116  45.938  55.396  1.00  0.00     0.002 A 
HETATM    2  C   UNL     1      27.833  45.158  54.274  1.00  0.00     0.034 A 
HETATM    3  C   UNL     1      26.979  45.613  53.278  1.00  0.00     0.087 A 
HETATM    4  C   UNL     1      26.382  46.893  53.409  1.00  0.00     0.087 A 
HETATM    5  N   UNL     1      25.553  47.381  52.463  1.00  0.00    -0.231 NA
HETATM    6  C   UNL     1      25.277  46.584  51.406  1.00  0.00     0.167 A 
HETATM    7 CL   UNL     1      24.301  47.357  50.232  1.00  0.00    -0.059 Cl
HETATM    8  C   UNL     1      25.855  45.342  51.292  1.00  0.00     0.192 A 
HETATM    9  N   UNL     1      26.736  44.838  52.203  1.00  0.00    -0.232 NA
HETATM   10  C   UNL     1      26.674  47.660  54.530  1.00  0.00     0.034 A 
HETATM   11  C   UNL     1      27.534  47.193  55.524  1.00  0.00     0.002 A 
ENDROOT
BRANCH   8  12
HETATM   12  S   UNL     1      25.577  44.262  49.928  1.00  0.00     0.200 S 
HETATM   13  O   UNL     1      24.638  44.889  49.013  1.00  0.00    -0.221 OA
HETATM   14  O   UNL     1      26.844  43.792  49.410  1.00  0.00    -0.221 OA
BRANCH  12  15
HETATM   15  C   UNL     1      24.719  42.848  50.631  1.00  0.00     0.118 C 
HETATM   16  C   UNL     1      25.512  41.556  50.374  1.00  0.00     0.048 C 
HETATM   17  C   UNL     1      25.436  41.088  48.927  1.00  0.00     0.233 C 
HETATM   18  N   UNL     1      24.005  40.956  48.526  1.00  0.00    -0.075 N 
HETATM   19  H   UNL     1      23.569  40.173  49.032  1.00  0.00     0.277 HD
HETATM   20  H   UNL     1      23.979  40.682  47.532  1.00  0.00     0.277 HD
HETATM   21  C   UNL     1      23.182  42.190  48.683  1.00  0.00     0.233 C 
HETATM   22  C   UNL     1      23.280  42.699  50.117  1.00  0.00     0.048 C 
ENDBRANCH  12  15
ENDBRANCH   8  12
TORSDOF 2
ENDMDL
MODEL 9
REMARK VINA RESULT:      -6.9      2.483      3.048
REMARK  2 active torsions:
REMARK  status: ('A' for Active; 'I' for Inactive)
REMARK    1  A    between atoms: C_8  and  S_9 
REMARK    2  A    between atoms: S_9  and  C_10 
ROOT
HETATM    1  C   UNL     1      30.162  44.650  55.935  1.00  0.00     0.002 A 
HETATM    2  C   UNL     1      29.916  43.948  54.755  1.00  0.00     0.034 A 
HETATM    3  C   UNL     1      28.819  44.243  53.956  1.00  0.00     0.087 A 
HETATM    4  C   UNL     1      27.933  45.277  54.352  1.00  0.00     0.087 A 
HETATM    5  N   UNL     1      26.859  45.606  53.604  1.00  0.00    -0.231 NA
HETATM    6  C   UNL     1      26.636  44.882  52.485  1.00  0.00     0.167 A 
HETATM    7 CL   UNL     1      25.309  45.465  51.573  1.00  0.00    -0.059 Cl
HETATM    8  C   UNL     1      27.497  43.877  52.113  1.00  0.00     0.192 A 
HETATM    9  N   UNL     1      28.618  43.552  52.818  1.00  0.00    -0.232 NA
HETATM   10  C   UNL     1      28.190  45.971  55.528  1.00  0.00     0.034 A 
HETATM   11  C   UNL     1      29.296  45.665  56.322  1.00  0.00     0.002 A 
ENDROOT
BRANCH   8  12
HETATM   12  S   UNL     1      27.296  42.916  50.650  1.00  0.00     0.200 S 
HETATM   13  O   UNL     1      27.071  43.808  49.526  1.00  0.00    -0.221 OA
HETATM   14  O   UNL     1      28.358  41.936  50.559  1.00  0.00    -0.221 OA
BRANCH  12  15
HETATM   15  C   UNL     1      25.755  42.025  50.896  1.00  0.00     0.118 C 
HETATM   16  C   UNL     1      26.008  40.509  50.917  1.00  0.00     0.048 C 
HETATM   17  C   UNL     1      26.309  39.935  49.539  1.00  0.00     0.233 C 
HETATM   18  N   UNL     1      25.210  40.306  48.601  1.00  0.00    -0.075 N 
HETATM   19  H   UNL     1      24.344  39.812  48.858  1.00  0.00     0.277 HD
HETATM   20  H   UNL     1      25.456  39.946  47.666  1.00  0.00     0.277 HD
HETATM   21  C   UNL     1      24.946  41.768  48.472  1.00  0.00     0.233 C 
HETATM   22  C   UNL     1      24.685  42.370  49.849  1.00  0.00     0.048 C 
ENDBRANCH  12  15
ENDBRANCH   8  12
TORSDOF 2
ENDMDL
MODEL 10
REMARK VINA RESULT:      -6.9     13.611     14.866
REMARK  2 active torsions:
REMARK  status: ('A' for Active; 'I' for Inactive)
REMARK    1  A    between atoms: C_8  and  S_9 
REMARK    2  A    between atoms: S_9  and  C_10 
ROOT
HETATM    1  C   UNL     1      33.041  51.733  44.023  1.00  0.00     0.002 A 
HETATM    2  C   UNL     1      31.796  51.797  43.395  1.00  0.00     0.034 A 
HETATM    3  C   UNL     1      31.682  51.706  42.014  1.00  0.00     0.087 A 
HETATM    4  C   UNL     1      32.854  51.547  41.231  1.00  0.00     0.087 A 
HETATM    5  N   UNL     1      32.790  51.444  39.887  1.00  0.00    -0.231 NA
HETATM    6  C   UNL     1      31.572  51.544  39.312  1.00  0.00     0.167 A 
HETATM    7 CL   UNL     1      31.616  51.292  37.619  1.00  0.00    -0.059 Cl
HETATM    8  C   UNL     1      30.442  51.705  40.079  1.00  0.00     0.192 A 
HETATM    9  N   UNL     1      30.464  51.762  41.441  1.00  0.00    -0.232 NA
HETATM   10  C   UNL     1      34.086  51.481  41.869  1.00  0.00     0.034 A 
HETATM   11  C   UNL     1      34.188  51.574  43.257  1.00  0.00     0.002 A 
ENDROOT
BRANCH   8  12
HETATM   12  S   UNL     1      28.816  51.804  39.408  1.00  0.00     0.200 S 
HETATM   13  O   UNL     1      27.873  52.042  40.487  1.00  0.00    -0.221 OA
HETATM   14  O   UNL     1      28.811  52.698  38.269  1.00  0.00    -0.221 OA
BRANCH  12  15
HETATM   15  C   UNL     1      28.470  50.149  38.800  1.00  0.00     0.118 C 
HETATM   16  C   UNL     1      27.053  50.078  38.209  1.00  0.00     0.048 C 
HETATM   17  C   UNL     1      25.962  50.091  39.271  1.00  0.00     0.233 C 
HETATM   18  N   UNL     1      26.216  48.995  40.251  1.00  0.00    -0.075 N 
HETATM   19  H   UNL     1      26.071  48.080  39.801  1.00  0.00     0.277 HD
HETATM   20  H   UNL     1      25.492  49.051  40.984  1.00  0.00     0.277 HD
HETATM   21  C   UNL     1      27.548  49.031  40.920  1.00  0.00     0.233 C 
HETATM   22  C   UNL     1      28.654  49.063  39.870  1.00  0.00     0.048 C 
ENDBRANCH  12  15
ENDBRANCH   8  12
TORSDOF 2
ENDMDL
