MODEL 1
REMARK VINA RESULT:      -9.0      0.000      0.000
REMARK  6 active torsions:
REMARK  status: ('A' for Active; 'I' for Inactive)
REMARK    1  A    between atoms: C_2  and  C_3 
REMARK    2  A    between atoms: C_7  and  O_8 
REMARK    3  A    between atoms: O_8  and  C_9 
REMARK    4  A    between atoms: C_9  and  C_10 
REMARK       I    between atoms: C_10  and  N_11 
REMARK    5  A    between atoms: N_11  and  N_12 
REMARK    6  A    between atoms: C_13  and  C_14 
ROOT
HETATM    1  C   UNL     1      25.155  44.706  51.622  1.00  0.00     0.261 C 
HETATM    2  N   UNL     1      25.313  43.684  50.719  1.00  0.00    -0.246 N 
HETATM    3  O   UNL     1      24.552  45.730  51.291  1.00  0.00    -0.269 OA
HETATM    4  H   UNL     1      24.871  43.812  49.815  1.00  0.00     0.192 HD
ENDROOT
BRANCH   1   5
HETATM    5  C   UNL     1      25.783  44.545  53.003  1.00  0.00     0.280 C 
BRANCH   5   6
HETATM    6  O   UNL     1      26.797  45.521  53.203  1.00  0.00    -0.341 OA
BRANCH   6   7
HETATM    7  C   UNL     1      27.810  45.201  54.067  1.00  0.00     0.086 A 
HETATM    8  C   UNL     1      28.119  46.132  55.067  1.00  0.00     0.044 A 
HETATM    9  C   UNL     1      29.172  45.902  55.962  1.00  0.00     0.029 A 
HETATM   10 BR   UNL     1      27.126  47.742  55.266  1.00  0.00    -0.048 Br
HETATM   11  C   UNL     1      29.945  44.734  55.877  1.00  0.00    -0.053 A 
HETATM   12  C   UNL     1      29.636  43.810  54.870  1.00  0.00     0.010 A 
HETATM   13  C   UNL     1      28.580  44.038  53.979  1.00  0.00     0.039 A 
BRANCH  11  14
HETATM   14  C   UNL     1      31.109  44.533  56.829  1.00  0.00     0.010 C 
HETATM   15  C   UNL     1      31.491  43.052  56.901  1.00  0.00     0.015 C 
HETATM   16  C   UNL     1      30.847  45.091  58.232  1.00  0.00     0.015 C 
ENDBRANCH  11  14
ENDBRANCH   6   7
ENDBRANCH   5   6
ENDBRANCH   1   5
BRANCH   2  17
HETATM   17  N   UNL     1      25.974  42.532  51.018  1.00  0.00    -0.184 NA
HETATM   18  C   UNL     1      27.136  42.407  50.460  1.00  0.00     0.152 C 
BRANCH  18  19
HETATM   19  C   UNL     1      27.915  41.207  50.682  1.00  0.00     0.011 A 
HETATM   20  C   UNL     1      28.223  40.185  49.727  1.00  0.00     0.004 A 
HETATM   21  C   UNL     1      28.982  39.216  50.386  1.00  0.00     0.043 A 
HETATM   22  C   UNL     1      27.931  39.992  48.360  1.00  0.00     0.014 A 
HETATM   23  C   UNL     1      29.461  38.065  49.748  1.00  0.00     0.030 A 
HETATM   24  N   UNL     1      29.127  39.630  51.689  1.00  0.00    -0.364 N 
HETATM   25  C   UNL     1      29.157  37.899  48.394  1.00  0.00     0.002 A 
HETATM   26  C   UNL     1      28.404  38.847  47.707  1.00  0.00     0.001 A 
HETATM   27  H   UNL     1      29.627  39.117  52.402  1.00  0.00     0.165 HD
HETATM   28  C   UNL     1      28.494  40.827  51.877  1.00  0.00     0.102 A 
ENDBRANCH  18  19
ENDBRANCH   2  17
TORSDOF 6
ENDMDL
MODEL 2
REMARK VINA RESULT:      -9.0      3.239      7.558
REMARK  6 active torsions:
REMARK  status: ('A' for Active; 'I' for Inactive)
REMARK    1  A    between atoms: C_2  and  C_3 
REMARK    2  A    between atoms: C_7  and  O_8 
REMARK    3  A    between atoms: O_8  and  C_9 
REMARK    4  A    between atoms: C_9  and  C_10 
REMARK       I    between atoms: C_10  and  N_11 
REMARK    5  A    between atoms: N_11  and  N_12 
REMARK    6  A    between atoms: C_13  and  C_14 
ROOT
HETATM    1  C   UNL     1      28.307  40.412  51.117  1.00  0.00     0.261 C 
HETATM    2  N   UNL     1      29.160  40.824  52.111  1.00  0.00    -0.246 N 
HETATM    3  O   UNL     1      28.667  39.537  50.325  1.00  0.00    -0.269 OA
HETATM    4  H   UNL     1      30.048  40.339  52.171  1.00  0.00     0.192 HD
ENDROOT
BRANCH   1   5
HETATM    5  C   UNL     1      26.950  41.099  51.007  1.00  0.00     0.280 C 
BRANCH   5   6
HETATM    6  O   UNL     1      26.891  41.893  49.828  1.00  0.00    -0.341 OA
BRANCH   6   7
HETATM    7  C   UNL     1      26.537  43.207  49.977  1.00  0.00     0.086 A 
HETATM    8  C   UNL     1      25.363  43.632  49.342  1.00  0.00     0.044 A 
HETATM    9  C   UNL     1      24.956  44.971  49.407  1.00  0.00     0.029 A 
HETATM   10 BR   UNL     1      24.265  42.420  48.372  1.00  0.00    -0.048 Br
HETATM   11  C   UNL     1      25.715  45.919  50.108  1.00  0.00    -0.053 A 
HETATM   12  C   UNL     1      26.892  45.491  50.735  1.00  0.00     0.010 A 
HETATM   13  C   UNL     1      27.296  44.151  50.675  1.00  0.00     0.039 A 
BRANCH  11  14
HETATM   14  C   UNL     1      25.274  47.372  50.122  1.00  0.00     0.010 C 
HETATM   15  C   UNL     1      23.918  47.526  49.429  1.00  0.00     0.015 C 
HETATM   16  C   UNL     1      26.306  48.323  49.506  1.00  0.00     0.015 C 
ENDBRANCH  11  14
ENDBRANCH   6   7
ENDBRANCH   5   6
ENDBRANCH   1   5
BRANCH   2  17
HETATM   17  N   UNL     1      28.829  41.790  53.012  1.00  0.00    -0.184 NA
HETATM   18  C   UNL     1      29.754  42.668  53.239  1.00  0.00     0.152 C 
BRANCH  18  19
HETATM   19  C   UNL     1      29.523  43.723  54.202  1.00  0.00     0.011 A 
HETATM   20  C   UNL     1      30.186  43.910  55.458  1.00  0.00     0.004 A 
HETATM   21  C   UNL     1      29.633  45.043  56.056  1.00  0.00     0.043 A 
HETATM   22  C   UNL     1      31.210  43.223  56.145  1.00  0.00     0.014 A 
HETATM   23  C   UNL     1      30.049  45.522  57.305  1.00  0.00     0.030 A 
HETATM   24  N   UNL     1      28.669  45.525  55.200  1.00  0.00    -0.364 N 
HETATM   25  C   UNL     1      31.065  44.823  57.962  1.00  0.00     0.002 A 
HETATM   26  C   UNL     1      31.640  43.690  57.393  1.00  0.00     0.001 A 
HETATM   27  H   UNL     1      28.097  46.338  55.379  1.00  0.00     0.165 HD
HETATM   28  C   UNL     1      28.599  44.743  54.081  1.00  0.00     0.102 A 
ENDBRANCH  18  19
ENDBRANCH   2  17
TORSDOF 6
ENDMDL
MODEL 3
REMARK VINA RESULT:      -8.9      4.010      8.478
REMARK  6 active torsions:
REMARK  status: ('A' for Active; 'I' for Inactive)
REMARK    1  A    between atoms: C_2  and  C_3 
REMARK    2  A    between atoms: C_7  and  O_8 
REMARK    3  A    between atoms: O_8  and  C_9 
REMARK    4  A    between atoms: C_9  and  C_10 
REMARK       I    between atoms: C_10  and  N_11 
REMARK    5  A    between atoms: N_11  and  N_12 
REMARK    6  A    between atoms: C_13  and  C_14 
ROOT
HETATM    1  C   UNL     1      26.909  44.170  50.741  1.00  0.00     0.261 C 
HETATM    2  N   UNL     1      27.615  43.637  51.791  1.00  0.00    -0.246 N 
HETATM    3  O   UNL     1      26.932  43.613  49.640  1.00  0.00    -0.269 OA
HETATM    4  H   UNL     1      28.094  42.761  51.610  1.00  0.00     0.192 HD
ENDROOT
BRANCH   1   5
HETATM    5  C   UNL     1      26.154  45.475  50.975  1.00  0.00     0.280 C 
BRANCH   5   6
HETATM    6  O   UNL     1      26.474  46.421  49.963  1.00  0.00    -0.341 OA
BRANCH   6   7
HETATM    7  C   UNL     1      25.478  47.272  49.566  1.00  0.00     0.086 A 
HETATM    8  C   UNL     1      25.854  48.560  49.165  1.00  0.00     0.044 A 
HETATM    9  C   UNL     1      24.892  49.505  48.788  1.00  0.00     0.029 A 
HETATM   10 BR   UNL     1      27.681  49.085  49.103  1.00  0.00    -0.048 Br
HETATM   11  C   UNL     1      23.526  49.187  48.807  1.00  0.00    -0.053 A 
HETATM   12  C   UNL     1      23.154  47.899  49.216  1.00  0.00     0.010 A 
HETATM   13  C   UNL     1      24.117  46.953  49.587  1.00  0.00     0.039 A 
BRANCH  11  14
HETATM   14  C   UNL     1      22.503  50.246  48.439  1.00  0.00     0.010 C 
HETATM   15  C   UNL     1      22.055  51.013  49.687  1.00  0.00     0.015 C 
HETATM   16  C   UNL     1      21.291  49.682  47.690  1.00  0.00     0.015 C 
ENDBRANCH  11  14
ENDBRANCH   6   7
ENDBRANCH   5   6
ENDBRANCH   1   5
BRANCH   2  17
HETATM   17  N   UNL     1      27.639  44.206  53.028  1.00  0.00    -0.184 NA
HETATM   18  C   UNL     1      28.821  44.397  53.520  1.00  0.00     0.152 C 
BRANCH  18  19
HETATM   19  C   UNL     1      28.966  44.966  54.843  1.00  0.00     0.011 A 
HETATM   20  C   UNL     1      29.936  44.615  55.836  1.00  0.00     0.004 A 
HETATM   21  C   UNL     1      29.689  45.410  56.957  1.00  0.00     0.043 A 
HETATM   22  C   UNL     1      31.007  43.697  55.888  1.00  0.00     0.014 A 
HETATM   23  C   UNL     1      30.455  45.330  58.127  1.00  0.00     0.030 A 
HETATM   24  N   UNL     1      28.610  46.208  56.660  1.00  0.00    -0.364 N 
HETATM   25  C   UNL     1      31.510  44.413  58.151  1.00  0.00     0.002 A 
HETATM   26  C   UNL     1      31.784  43.608  57.049  1.00  0.00     0.001 A 
HETATM   27  H   UNL     1      28.202  46.882  57.293  1.00  0.00     0.165 HD
HETATM   28  C   UNL     1      28.171  45.955  55.390  1.00  0.00     0.102 A 
ENDBRANCH  18  19
ENDBRANCH   2  17
TORSDOF 6
ENDMDL
MODEL 4
REMARK VINA RESULT:      -8.8      5.519      9.015
REMARK  6 active torsions:
REMARK  status: ('A' for Active; 'I' for Inactive)
REMARK    1  A    between atoms: C_2  and  C_3 
REMARK    2  A    between atoms: C_7  and  O_8 
REMARK    3  A    between atoms: O_8  and  C_9 
REMARK    4  A    between atoms: C_9  and  C_10 
REMARK       I    between atoms: C_10  and  N_11 
REMARK    5  A    between atoms: N_11  and  N_12 
REMARK    6  A    between atoms: C_13  and  C_14 
ROOT
HETATM    1  C   UNL     1      25.469  47.684  49.925  1.00  0.00     0.261 C 
HETATM    2  N   UNL     1      24.605  48.576  49.341  1.00  0.00    -0.246 N 
HETATM    3  O   UNL     1      26.652  47.657  49.576  1.00  0.00    -0.269 OA
HETATM    4  H   UNL     1      25.010  49.216  48.666  1.00  0.00     0.192 HD
ENDROOT
BRANCH   1   5
HETATM    5  C   UNL     1      24.907  46.719  50.964  1.00  0.00     0.280 C 
BRANCH   5   6
HETATM    6  O   UNL     1      25.496  46.962  52.236  1.00  0.00    -0.341 OA
BRANCH   6   7
HETATM    7  C   UNL     1      26.379  46.027  52.704  1.00  0.00     0.086 A 
HETATM    8  C   UNL     1      26.969  46.268  53.952  1.00  0.00     0.044 A 
HETATM    9  C   UNL     1      27.917  45.384  54.481  1.00  0.00     0.029 A 
HETATM   10 BR   UNL     1      26.508  47.795  54.989  1.00  0.00    -0.048 Br
HETATM   11  C   UNL     1      28.303  44.237  53.773  1.00  0.00    -0.053 A 
HETATM   12  C   UNL     1      27.716  44.003  52.522  1.00  0.00     0.010 A 
HETATM   13  C   UNL     1      26.764  44.885  51.996  1.00  0.00     0.039 A 
BRANCH  11  14
HETATM   14  C   UNL     1      29.368  43.321  54.349  1.00  0.00     0.010 C 
HETATM   15  C   UNL     1      30.182  44.054  55.419  1.00  0.00     0.015 C 
HETATM   16  C   UNL     1      30.294  42.724  53.284  1.00  0.00     0.015 C 
ENDBRANCH  11  14
ENDBRANCH   6   7
ENDBRANCH   5   6
ENDBRANCH   1   5
BRANCH   2  17
HETATM   17  N   UNL     1      23.287  48.653  49.674  1.00  0.00    -0.184 NA
HETATM   18  C   UNL     1      22.476  48.776  48.673  1.00  0.00     0.152 C 
BRANCH  18  19
HETATM   19  C   UNL     1      21.053  48.898  48.911  1.00  0.00     0.011 A 
HETATM   20  C   UNL     1      20.259  50.086  48.828  1.00  0.00     0.004 A 
HETATM   21  C   UNL     1      18.948  49.734  49.153  1.00  0.00     0.043 A 
HETATM   22  C   UNL     1      20.530  51.433  48.502  1.00  0.00     0.014 A 
HETATM   23  C   UNL     1      17.897  50.660  49.172  1.00  0.00     0.030 A 
HETATM   24  N   UNL     1      18.945  48.387  49.427  1.00  0.00    -0.364 N 
HETATM   25  C   UNL     1      18.193  51.986  48.845  1.00  0.00     0.002 A 
HETATM   26  C   UNL     1      19.490  52.370  48.514  1.00  0.00     0.001 A 
HETATM   27  H   UNL     1      18.128  47.858  49.700  1.00  0.00     0.165 HD
HETATM   28  C   UNL     1      20.203  47.873  49.279  1.00  0.00     0.102 A 
ENDBRANCH  18  19
ENDBRANCH   2  17
TORSDOF 6
ENDMDL
MODEL 5
REMARK VINA RESULT:      -8.8      4.021      7.212
REMARK  6 active torsions:
REMARK  status: ('A' for Active; 'I' for Inactive)
REMARK    1  A    between atoms: C_2  and  C_3 
REMARK    2  A    between atoms: C_7  and  O_8 
REMARK    3  A    between atoms: O_8  and  C_9 
REMARK    4  A    between atoms: C_9  and  C_10 
REMARK       I    between atoms: C_10  and  N_11 
REMARK    5  A    between atoms: N_11  and  N_12 
REMARK    6  A    between atoms: C_13  and  C_14 
ROOT
HETATM    1  C   UNL     1      25.579  43.553  50.782  1.00  0.00     0.261 C 
HETATM    2  N   UNL     1      24.974  44.232  49.753  1.00  0.00    -0.246 N 
HETATM    3  O   UNL     1      25.322  42.360  50.964  1.00  0.00    -0.269 OA
HETATM    4  H   UNL     1      24.365  43.687  49.153  1.00  0.00     0.192 HD
ENDROOT
BRANCH   1   5
HETATM    5  C   UNL     1      26.523  44.329  51.695  1.00  0.00     0.280 C 
BRANCH   5   6
HETATM    6  O   UNL     1      26.505  43.781  53.007  1.00  0.00    -0.341 OA
BRANCH   6   7
HETATM    7  C   UNL     1      27.578  44.054  53.812  1.00  0.00     0.086 A 
HETATM    8  C   UNL     1      28.497  43.019  54.030  1.00  0.00     0.044 A 
HETATM    9  C   UNL     1      29.597  43.203  54.877  1.00  0.00     0.029 A 
HETATM   10 BR   UNL     1      28.306  41.327  53.183  1.00  0.00    -0.048 Br
HETATM   11  C   UNL     1      29.803  44.426  55.532  1.00  0.00    -0.053 A 
HETATM   12  C   UNL     1      28.877  45.455  55.317  1.00  0.00     0.010 A 
HETATM   13  C   UNL     1      27.780  45.273  54.465  1.00  0.00     0.039 A 
BRANCH  11  14
HETATM   14  C   UNL     1      30.977  44.581  56.482  1.00  0.00     0.010 C 
HETATM   15  C   UNL     1      31.525  43.209  56.883  1.00  0.00     0.015 C 
HETATM   16  C   UNL     1      30.644  45.413  57.725  1.00  0.00     0.015 C 
ENDBRANCH  11  14
ENDBRANCH   6   7
ENDBRANCH   5   6
ENDBRANCH   1   5
BRANCH   2  17
HETATM   17  N   UNL     1      25.207  45.550  49.502  1.00  0.00    -0.184 NA
HETATM   18  C   UNL     1      24.162  46.312  49.562  1.00  0.00     0.152 C 
BRANCH  18  19
HETATM   19  C   UNL     1      24.287  47.726  49.282  1.00  0.00     0.011 A 
HETATM   20  C   UNL     1      23.227  48.660  49.046  1.00  0.00     0.004 A 
HETATM   21  C   UNL     1      23.814  49.903  48.805  1.00  0.00     0.043 A 
HETATM   22  C   UNL     1      21.819  48.567  49.018  1.00  0.00     0.014 A 
HETATM   23  C   UNL     1      23.064  51.056  48.534  1.00  0.00     0.030 A 
HETATM   24  N   UNL     1      25.176  49.733  48.886  1.00  0.00    -0.364 N 
HETATM   25  C   UNL     1      21.672  50.935  48.514  1.00  0.00     0.002 A 
HETATM   26  C   UNL     1      21.056  49.710  48.752  1.00  0.00     0.001 A 
HETATM   27  H   UNL     1      25.856  50.467  48.747  1.00  0.00     0.165 HD
HETATM   28  C   UNL     1      25.471  48.430  49.178  1.00  0.00     0.102 A 
ENDBRANCH  18  19
ENDBRANCH   2  17
TORSDOF 6
ENDMDL
MODEL 6
REMARK VINA RESULT:      -8.7      3.275      7.157
REMARK  6 active torsions:
REMARK  status: ('A' for Active; 'I' for Inactive)
REMARK    1  A    between atoms: C_2  and  C_3 
REMARK    2  A    between atoms: C_7  and  O_8 
REMARK    3  A    between atoms: O_8  and  C_9 
REMARK    4  A    between atoms: C_9  and  C_10 
REMARK       I    between atoms: C_10  and  N_11 
REMARK    5  A    between atoms: N_11  and  N_12 
REMARK    6  A    between atoms: C_13  and  C_14 
ROOT
HETATM    1  C   UNL     1      27.402  40.742  50.906  1.00  0.00     0.261 C 
HETATM    2  N   UNL     1      28.637  41.086  51.397  1.00  0.00    -0.246 N 
HETATM    3  O   UNL     1      27.263  39.688  50.279  1.00  0.00    -0.269 OA
HETATM    4  H   UNL     1      29.381  40.412  51.252  1.00  0.00     0.192 HD
ENDROOT
BRANCH   1   5
HETATM    5  C   UNL     1      26.249  41.716  51.122  1.00  0.00     0.280 C 
BRANCH   5   6
HETATM    6  O   UNL     1      25.933  42.387  49.909  1.00  0.00    -0.341 OA
BRANCH   6   7
HETATM    7  C   UNL     1      25.970  43.756  49.924  1.00  0.00     0.086 A 
HETATM    8  C   UNL     1      24.743  44.432  49.951  1.00  0.00     0.044 A 
HETATM    9  C   UNL     1      24.693  45.831  49.922  1.00  0.00     0.029 A 
HETATM   10 BR   UNL     1      23.093  43.489  50.036  1.00  0.00    -0.048 Br
HETATM   11  C   UNL     1      25.870  46.591  49.862  1.00  0.00    -0.053 A 
HETATM   12  C   UNL     1      27.095  45.910  49.828  1.00  0.00     0.010 A 
HETATM   13  C   UNL     1      27.145  44.511  49.863  1.00  0.00     0.039 A 
BRANCH  11  14
HETATM   14  C   UNL     1      25.785  48.104  49.783  1.00  0.00     0.010 C 
HETATM   15  C   UNL     1      24.457  48.533  49.151  1.00  0.00     0.015 C 
HETATM   16  C   UNL     1      26.965  48.740  49.041  1.00  0.00     0.015 C 
ENDBRANCH  11  14
ENDBRANCH   6   7
ENDBRANCH   5   6
ENDBRANCH   1   5
BRANCH   2  17
HETATM   17  N   UNL     1      28.861  42.237  52.089  1.00  0.00    -0.184 NA
HETATM   18  C   UNL     1      29.015  42.087  53.366  1.00  0.00     0.152 C 
BRANCH  18  19
HETATM   19  C   UNL     1      29.227  43.247  54.206  1.00  0.00     0.011 A 
HETATM   20  C   UNL     1      28.456  44.453  54.228  1.00  0.00     0.004 A 
HETATM   21  C   UNL     1      29.032  45.297  55.180  1.00  0.00     0.043 A 
HETATM   22  C   UNL     1      27.317  44.909  53.530  1.00  0.00     0.014 A 
HETATM   23  C   UNL     1      28.529  46.573  55.465  1.00  0.00     0.030 A 
HETATM   24  N   UNL     1      30.112  44.632  55.712  1.00  0.00    -0.364 N 
HETATM   25  C   UNL     1      27.400  46.998  54.760  1.00  0.00     0.002 A 
HETATM   26  C   UNL     1      26.800  46.181  53.806  1.00  0.00     0.001 A 
HETATM   27  H   UNL     1      30.724  45.008  56.422  1.00  0.00     0.165 HD
HETATM   28  C   UNL     1      30.235  43.398  55.138  1.00  0.00     0.102 A 
ENDBRANCH  18  19
ENDBRANCH   2  17
TORSDOF 6
ENDMDL
MODEL 7
REMARK VINA RESULT:      -8.6      1.485      2.074
REMARK  6 active torsions:
REMARK  status: ('A' for Active; 'I' for Inactive)
REMARK    1  A    between atoms: C_2  and  C_3 
REMARK    2  A    between atoms: C_7  and  O_8 
REMARK    3  A    between atoms: O_8  and  C_9 
REMARK    4  A    between atoms: C_9  and  C_10 
REMARK       I    between atoms: C_10  and  N_11 
REMARK    5  A    between atoms: N_11  and  N_12 
REMARK    6  A    between atoms: C_13  and  C_14 
ROOT
HETATM    1  C   UNL     1      26.320  44.540  50.277  1.00  0.00     0.261 C 
HETATM    2  N   UNL     1      26.224  43.710  49.187  1.00  0.00    -0.246 N 
HETATM    3  O   UNL     1      25.496  45.445  50.432  1.00  0.00    -0.269 OA
HETATM    4  H   UNL     1      25.429  43.862  48.575  1.00  0.00     0.192 HD
ENDROOT
BRANCH   1   5
HETATM    5  C   UNL     1      27.486  44.330  51.236  1.00  0.00     0.280 C 
BRANCH   5   6
HETATM    6  O   UNL     1      27.042  44.421  52.583  1.00  0.00    -0.341 OA
BRANCH   6   7
HETATM    7  C   UNL     1      27.997  44.351  53.562  1.00  0.00     0.086 A 
HETATM    8  C   UNL     1      28.032  45.389  54.502  1.00  0.00     0.044 A 
HETATM    9  C   UNL     1      29.007  45.416  55.507  1.00  0.00     0.029 A 
HETATM   10 BR   UNL     1      26.759  46.802  54.467  1.00  0.00    -0.048 Br
HETATM   11  C   UNL     1      29.975  44.405  55.595  1.00  0.00    -0.053 A 
HETATM   12  C   UNL     1      29.941  43.373  54.649  1.00  0.00     0.010 A 
HETATM   13  C   UNL     1      28.962  43.343  53.648  1.00  0.00     0.039 A 
BRANCH  11  14
HETATM   14  C   UNL     1      31.049  44.485  56.666  1.00  0.00     0.010 C 
HETATM   15  C   UNL     1      31.522  43.082  57.054  1.00  0.00     0.015 C 
HETATM   16  C   UNL     1      30.609  45.268  57.907  1.00  0.00     0.015 C 
ENDBRANCH  11  14
ENDBRANCH   6   7
ENDBRANCH   5   6
ENDBRANCH   1   5
BRANCH   2  17
HETATM   17  N   UNL     1      27.103  42.697  48.952  1.00  0.00    -0.184 NA
HETATM   18  C   UNL     1      26.563  41.570  48.612  1.00  0.00     0.152 C 
BRANCH  18  19
HETATM   19  C   UNL     1      27.402  40.416  48.369  1.00  0.00     0.011 A 
HETATM   20  C   UNL     1      28.233  39.734  49.314  1.00  0.00     0.004 A 
HETATM   21  C   UNL     1      28.867  38.692  48.635  1.00  0.00     0.043 A 
HETATM   22  C   UNL     1      28.506  39.900  50.689  1.00  0.00     0.014 A 
HETATM   23  C   UNL     1      29.761  37.813  49.259  1.00  0.00     0.030 A 
HETATM   24  N   UNL     1      28.442  38.741  47.328  1.00  0.00    -0.364 N 
HETATM   25  C   UNL     1      30.012  38.001  50.621  1.00  0.00     0.002 A 
HETATM   26  C   UNL     1      29.395  39.028  51.329  1.00  0.00     0.001 A 
HETATM   27  H   UNL     1      28.745  38.107  46.601  1.00  0.00     0.165 HD
HETATM   28  C   UNL     1      27.557  39.769  47.158  1.00  0.00     0.102 A 
ENDBRANCH  18  19
ENDBRANCH   2  17
TORSDOF 6
ENDMDL
MODEL 8
REMARK VINA RESULT:      -8.5      3.815      8.076
REMARK  6 active torsions:
REMARK  status: ('A' for Active; 'I' for Inactive)
REMARK    1  A    between atoms: C_2  and  C_3 
REMARK    2  A    between atoms: C_7  and  O_8 
REMARK    3  A    between atoms: O_8  and  C_9 
REMARK    4  A    between atoms: C_9  and  C_10 
REMARK       I    between atoms: C_10  and  N_11 
REMARK    5  A    between atoms: N_11  and  N_12 
REMARK    6  A    between atoms: C_13  and  C_14 
ROOT
HETATM    1  C   UNL     1      24.402  42.865  50.563  1.00  0.00     0.261 C 
HETATM    2  N   UNL     1      25.386  42.610  51.487  1.00  0.00    -0.246 N 
HETATM    3  O   UNL     1      24.077  41.990  49.757  1.00  0.00    -0.269 OA
HETATM    4  H   UNL     1      25.771  41.672  51.485  1.00  0.00     0.192 HD
ENDROOT
BRANCH   1   5
HETATM    5  C   UNL     1      23.778  44.257  50.547  1.00  0.00     0.280 C 
BRANCH   5   6
HETATM    6  O   UNL     1      24.363  45.049  49.521  1.00  0.00    -0.341 OA
BRANCH   6   7
HETATM    7  C   UNL     1      23.761  46.246  49.237  1.00  0.00     0.086 A 
HETATM    8  C   UNL     1      24.398  47.409  49.690  1.00  0.00     0.044 A 
HETATM    9  C   UNL     1      23.825  48.669  49.480  1.00  0.00     0.029 A 
HETATM   10 BR   UNL     1      26.067  47.337  50.598  1.00  0.00    -0.048 Br
HETATM   11  C   UNL     1      22.597  48.798  48.815  1.00  0.00    -0.053 A 
HETATM   12  C   UNL     1      21.960  47.632  48.371  1.00  0.00     0.010 A 
HETATM   13  C   UNL     1      22.537  46.372  48.575  1.00  0.00     0.039 A 
BRANCH  11  14
HETATM   14  C   UNL     1      21.975  50.173  48.644  1.00  0.00     0.010 C 
HETATM   15  C   UNL     1      23.052  51.208  48.308  1.00  0.00     0.015 C 
HETATM   16  C   UNL     1      21.157  50.623  49.859  1.00  0.00     0.015 C 
ENDBRANCH  11  14
ENDBRANCH   6   7
ENDBRANCH   5   6
ENDBRANCH   1   5
BRANCH   2  17
HETATM   17  N   UNL     1      25.798  43.534  52.398  1.00  0.00    -0.184 NA
HETATM   18  C   UNL     1      27.073  43.547  52.627  1.00  0.00     0.152 C 
BRANCH  18  19
HETATM   19  C   UNL     1      27.619  44.467  53.602  1.00  0.00     0.011 A 
HETATM   20  C   UNL     1      28.770  44.270  54.430  1.00  0.00     0.004 A 
HETATM   21  C   UNL     1      28.913  45.410  55.223  1.00  0.00     0.043 A 
HETATM   22  C   UNL     1      29.711  43.228  54.579  1.00  0.00     0.014 A 
HETATM   23  C   UNL     1      29.945  45.559  56.158  1.00  0.00     0.030 A 
HETATM   24  N   UNL     1      27.888  46.265  54.893  1.00  0.00    -0.364 N 
HETATM   25  C   UNL     1      30.863  44.512  56.284  1.00  0.00     0.002 A 
HETATM   26  C   UNL     1      30.750  43.363  55.508  1.00  0.00     0.001 A 
HETATM   27  H   UNL     1      27.736  47.170  55.317  1.00  0.00     0.165 HD
HETATM   28  C   UNL     1      27.107  45.711  53.917  1.00  0.00     0.102 A 
ENDBRANCH  18  19
ENDBRANCH   2  17
TORSDOF 6
ENDMDL
MODEL 9
REMARK VINA RESULT:      -8.5      4.173      8.586
REMARK  6 active torsions:
REMARK  status: ('A' for Active; 'I' for Inactive)
REMARK    1  A    between atoms: C_2  and  C_3 
REMARK    2  A    between atoms: C_7  and  O_8 
REMARK    3  A    between atoms: O_8  and  C_9 
REMARK    4  A    between atoms: C_9  and  C_10 
REMARK       I    between atoms: C_10  and  N_11 
REMARK    5  A    between atoms: N_11  and  N_12 
REMARK    6  A    between atoms: C_13  and  C_14 
ROOT
HETATM    1  C   UNL     1      26.262  43.749  50.482  1.00  0.00     0.261 C 
HETATM    2  N   UNL     1      27.393  43.644  51.253  1.00  0.00    -0.246 N 
HETATM    3  O   UNL     1      26.122  43.019  49.498  1.00  0.00    -0.269 OA
HETATM    4  H   UNL     1      28.050  42.917  50.990  1.00  0.00     0.192 HD
ENDROOT
BRANCH   1   5
HETATM    5  C   UNL     1      25.236  44.813  50.857  1.00  0.00     0.280 C 
BRANCH   5   6
HETATM    6  O   UNL     1      24.219  44.891  49.866  1.00  0.00    -0.341 OA
BRANCH   6   7
HETATM    7  C   UNL     1      23.852  46.142  49.446  1.00  0.00     0.086 A 
HETATM    8  C   UNL     1      22.717  46.238  48.630  1.00  0.00     0.044 A 
HETATM    9  C   UNL     1      22.301  47.475  48.121  1.00  0.00     0.029 A 
HETATM   10 BR   UNL     1      21.683  44.705  48.183  1.00  0.00    -0.048 Br
HETATM   11  C   UNL     1      23.013  48.647  48.412  1.00  0.00    -0.053 A 
HETATM   12  C   UNL     1      24.152  48.545  49.222  1.00  0.00     0.010 A 
HETATM   13  C   UNL     1      24.564  47.309  49.736  1.00  0.00     0.039 A 
BRANCH  11  14
HETATM   14  C   UNL     1      22.568  49.967  47.808  1.00  0.00     0.010 C 
HETATM   15  C   UNL     1      23.140  51.141  48.606  1.00  0.00     0.015 C 
HETATM   16  C   UNL     1      21.046  50.091  47.682  1.00  0.00     0.015 C 
ENDBRANCH  11  14
ENDBRANCH   6   7
ENDBRANCH   5   6
ENDBRANCH   1   5
BRANCH   2  17
HETATM   17  N   UNL     1      27.614  44.424  52.347  1.00  0.00    -0.184 NA
HETATM   18  C   UNL     1      28.514  43.979  53.165  1.00  0.00     0.152 C 
BRANCH  18  19
HETATM   19  C   UNL     1      28.809  44.712  54.378  1.00  0.00     0.011 A 
HETATM   20  C   UNL     1      29.747  44.355  55.399  1.00  0.00     0.004 A 
HETATM   21  C   UNL     1      29.686  45.343  56.384  1.00  0.00     0.043 A 
HETATM   22  C   UNL     1      30.649  43.284  55.580  1.00  0.00     0.014 A 
HETATM   23  C   UNL     1      30.477  45.312  57.539  1.00  0.00     0.030 A 
HETATM   24  N   UNL     1      28.746  46.261  55.979  1.00  0.00    -0.364 N 
HETATM   25  C   UNL     1      31.362  44.241  57.692  1.00  0.00     0.002 A 
HETATM   26  C   UNL     1      31.449  43.241  56.728  1.00  0.00     0.001 A 
HETATM   27  H   UNL     1      28.486  47.085  56.504  1.00  0.00     0.165 HD
HETATM   28  C   UNL     1      28.217  45.895  54.773  1.00  0.00     0.102 A 
ENDBRANCH  18  19
ENDBRANCH   2  17
TORSDOF 6
ENDMDL
MODEL 10
REMARK VINA RESULT:      -8.2      2.815      7.052
REMARK  6 active torsions:
REMARK  status: ('A' for Active; 'I' for Inactive)
REMARK    1  A    between atoms: C_2  and  C_3 
REMARK    2  A    between atoms: C_7  and  O_8 
REMARK    3  A    between atoms: O_8  and  C_9 
REMARK    4  A    between atoms: C_9  and  C_10 
REMARK       I    between atoms: C_10  and  N_11 
REMARK    5  A    between atoms: N_11  and  N_12 
REMARK    6  A    between atoms: C_13  and  C_14 
ROOT
HETATM    1  C   UNL     1      24.938  45.200  50.756  1.00  0.00     0.261 C 
HETATM    2  N   UNL     1      25.225  46.055  51.792  1.00  0.00    -0.246 N 
HETATM    3  O   UNL     1      23.857  45.290  50.168  1.00  0.00    -0.269 OA
HETATM    4  H   UNL     1      24.530  46.766  51.993  1.00  0.00     0.192 HD
ENDROOT
BRANCH   1   5
HETATM    5  C   UNL     1      25.967  44.131  50.404  1.00  0.00     0.280 C 
BRANCH   5   6
HETATM    6  O   UNL     1      25.561  42.867  50.913  1.00  0.00    -0.341 OA
BRANCH   6   7
HETATM    7  C   UNL     1      26.367  41.795  50.638  1.00  0.00     0.086 A 
HETATM    8  C   UNL     1      25.956  40.927  49.618  1.00  0.00     0.044 A 
HETATM    9  C   UNL     1      26.701  39.782  49.306  1.00  0.00     0.029 A 
HETATM   10 BR   UNL     1      24.382  41.261  48.605  1.00  0.00    -0.048 Br
HETATM   11  C   UNL     1      27.874  39.474  50.009  1.00  0.00    -0.053 A 
HETATM   12  C   UNL     1      28.277  40.342  51.034  1.00  0.00     0.010 A 
HETATM   13  C   UNL     1      27.536  41.489  51.341  1.00  0.00     0.039 A 
BRANCH  11  14
HETATM   14  C   UNL     1      28.635  38.202  49.682  1.00  0.00     0.010 C 
HETATM   15  C   UNL     1      29.859  38.062  50.591  1.00  0.00     0.015 C 
HETATM   16  C   UNL     1      29.044  38.104  48.208  1.00  0.00     0.015 C 
ENDBRANCH  11  14
ENDBRANCH   6   7
ENDBRANCH   5   6
ENDBRANCH   1   5
BRANCH   2  17
HETATM   17  N   UNL     1      26.395  46.004  52.487  1.00  0.00    -0.184 NA
HETATM   18  C   UNL     1      26.265  45.900  53.771  1.00  0.00     0.152 C 
BRANCH  18  19
HETATM   19  C   UNL     1      27.442  45.869  54.613  1.00  0.00     0.011 A 
HETATM   20  C   UNL     1      28.436  44.839  54.676  1.00  0.00     0.004 A 
HETATM   21  C   UNL     1      29.374  45.226  55.634  1.00  0.00     0.043 A 
HETATM   22  C   UNL     1      28.630  43.613  54.005  1.00  0.00     0.014 A 
HETATM   23  C   UNL     1      30.493  44.447  55.957  1.00  0.00     0.030 A 
HETATM   24  N   UNL     1      28.966  46.439  56.137  1.00  0.00    -0.364 N 
HETATM   25  C   UNL     1      30.661  43.238  55.277  1.00  0.00     0.002 A 
HETATM   26  C   UNL     1      29.744  42.824  54.314  1.00  0.00     0.001 A 
HETATM   27  H   UNL     1      29.454  46.956  56.856  1.00  0.00     0.165 HD
HETATM   28  C   UNL     1      27.810  46.838  55.526  1.00  0.00     0.102 A 
ENDBRANCH  18  19
ENDBRANCH   2  17
TORSDOF 6
ENDMDL
