MODEL 1
REMARK VINA RESULT:      -9.7      0.000      0.000
REMARK  6 active torsions:
REMARK  status: ('A' for Active; 'I' for Inactive)
REMARK    1  A    between atoms: C_4  and  O_5 
REMARK    2  A    between atoms: O_5  and  C_6 
REMARK    3  A    between atoms: C_6  and  C_7 
REMARK       I    between atoms: C_7  and  N_8 
REMARK    4  A    between atoms: N_8  and  N_9 
REMARK       I    between atoms: N_9  and  C_10 
REMARK    5  A    between atoms: C_10  and  C_11 
REMARK    6  A    between atoms: C_12  and  C_13 
ROOT
HETATM    1  N   UNL     1      25.985  46.341  49.827  1.00  0.00    -0.263 N 
HETATM    2  C   UNL     1      25.489  47.592  50.147  1.00  0.00     0.274 C 
HETATM    3  O   UNL     1      24.731  47.757  51.102  1.00  0.00    -0.266 OA
HETATM    4  H   UNL     1      26.837  46.264  49.272  1.00  0.00     0.190 HD
ENDROOT
BRANCH   1   5
HETATM    5  N   UNL     1      25.787  45.304  50.761  1.00  0.00    -0.265 N 
HETATM    6  C   UNL     1      26.524  44.146  50.570  1.00  0.00     0.260 C 
HETATM    7  O   UNL     1      27.209  43.975  49.562  1.00  0.00    -0.269 OA
HETATM    8  H   UNL     1      25.510  45.606  51.695  1.00  0.00     0.190 HD
BRANCH   6   9
HETATM    9  C   UNL     1      26.381  43.127  51.696  1.00  0.00     0.280 C 
BRANCH   9  10
HETATM   10  O   UNL     1      26.338  43.833  52.934  1.00  0.00    -0.342 OA
BRANCH  10  11
HETATM   11  C   UNL     1      27.540  43.842  53.586  1.00  0.00     0.069 A 
HETATM   12  C   UNL     1      27.936  44.884  54.427  1.00  0.00     0.043 A 
HETATM   13  C   UNL     1      29.157  44.808  55.113  1.00  0.00    -0.059 A 
HETATM   14  C   UNL     1      29.573  45.898  56.055  1.00  0.00     0.048 C 
HETATM   15  C   UNL     1      29.951  43.663  54.968  1.00  0.00     0.007 A 
HETATM   16  C   UNL     1      29.540  42.615  54.143  1.00  0.00     0.003 A 
HETATM   17  C   UNL     1      28.329  42.702  53.460  1.00  0.00     0.037 A 
ENDBRANCH  10  11
ENDBRANCH   9  10
ENDBRANCH   6   9
ENDBRANCH   1   5
BRANCH   2  18
HETATM   18  C   UNL     1      25.948  48.668  49.283  1.00  0.00     0.081 A 
HETATM   19  C   UNL     1      25.178  49.564  48.474  1.00  0.00     0.104 A 
HETATM   20  N   UNL     1      25.982  50.377  47.764  1.00  0.00    -0.174 NA
HETATM   21  N   UNL     1      27.221  50.038  48.128  1.00  0.00    -0.288 N 
HETATM   22  H   UNL     1      27.998  50.537  47.707  1.00  0.00     0.188 HD
HETATM   23  C   UNL     1      27.263  49.024  49.035  1.00  0.00     0.128 A 
BRANCH  19  24
HETATM   24  C   UNL     1      23.725  49.697  48.360  1.00  0.00    -0.004 A 
HETATM   25  C   UNL     1      22.918  48.590  48.067  1.00  0.00     0.015 A 
HETATM   26  C   UNL     1      21.528  48.729  47.981  1.00  0.00     0.024 A 
HETATM   27  C   UNL     1      20.941  49.973  48.194  1.00  0.00     0.034 A 
HETATM   28 CL   UNL     1      19.232  50.141  48.090  1.00  0.00    -0.084 Cl
HETATM   29  C   UNL     1      21.728  51.082  48.499  1.00  0.00     0.024 A 
HETATM   30  C   UNL     1      23.117  50.941  48.586  1.00  0.00     0.015 A 
ENDBRANCH  19  24
ENDBRANCH   2  18
TORSDOF 6
ENDMDL
MODEL 2
REMARK VINA RESULT:      -9.1      3.362      4.657
REMARK  6 active torsions:
REMARK  status: ('A' for Active; 'I' for Inactive)
REMARK    1  A    between atoms: C_4  and  O_5 
REMARK    2  A    between atoms: O_5  and  C_6 
REMARK    3  A    between atoms: C_6  and  C_7 
REMARK       I    between atoms: C_7  and  N_8 
REMARK    4  A    between atoms: N_8  and  N_9 
REMARK       I    between atoms: N_9  and  C_10 
REMARK    5  A    between atoms: C_10  and  C_11 
REMARK    6  A    between atoms: C_12  and  C_13 
ROOT
HETATM    1  N   UNL     1      25.669  42.798  51.458  1.00  0.00    -0.263 N 
HETATM    2  C   UNL     1      24.706  43.755  51.724  1.00  0.00     0.274 C 
HETATM    3  O   UNL     1      24.622  44.293  52.827  1.00  0.00    -0.266 OA
HETATM    4  H   UNL     1      25.940  42.611  50.493  1.00  0.00     0.190 HD
ENDROOT
BRANCH   1   5
HETATM    5  N   UNL     1      26.696  42.627  52.409  1.00  0.00    -0.265 N 
HETATM    6  C   UNL     1      27.567  41.570  52.198  1.00  0.00     0.260 C 
HETATM    7  O   UNL     1      27.374  40.739  51.311  1.00  0.00    -0.269 OA
HETATM    8  H   UNL     1      27.002  43.480  52.876  1.00  0.00     0.190 HD
BRANCH   6   9
HETATM    9  C   UNL     1      28.742  41.532  53.171  1.00  0.00     0.280 C 
BRANCH   9  10
HETATM   10  O   UNL     1      29.511  42.719  52.988  1.00  0.00    -0.342 OA
BRANCH  10  11
HETATM   11  C   UNL     1      29.728  43.400  54.152  1.00  0.00     0.069 A 
HETATM   12  C   UNL     1      30.705  43.028  55.077  1.00  0.00     0.043 A 
HETATM   13  C   UNL     1      30.917  43.802  56.226  1.00  0.00    -0.059 A 
HETATM   14  C   UNL     1      31.995  43.438  57.204  1.00  0.00     0.048 C 
HETATM   15  C   UNL     1      30.162  44.966  56.415  1.00  0.00     0.007 A 
HETATM   16  C   UNL     1      29.202  45.347  55.475  1.00  0.00     0.003 A 
HETATM   17  C   UNL     1      28.992  44.568  54.340  1.00  0.00     0.037 A 
ENDBRANCH  10  11
ENDBRANCH   9  10
ENDBRANCH   6   9
ENDBRANCH   1   5
BRANCH   2  18
HETATM   18  C   UNL     1      23.836  44.070  50.602  1.00  0.00     0.081 A 
HETATM   19  C   UNL     1      23.901  45.176  49.694  1.00  0.00     0.104 A 
HETATM   20  N   UNL     1      22.869  45.148  48.832  1.00  0.00    -0.174 NA
HETATM   21  N   UNL     1      22.185  44.047  49.151  1.00  0.00    -0.288 N 
HETATM   22  H   UNL     1      21.352  43.826  48.614  1.00  0.00     0.188 HD
HETATM   23  C   UNL     1      22.717  43.361  50.199  1.00  0.00     0.128 A 
BRANCH  19  24
HETATM   24  C   UNL     1      24.901  46.240  49.597  1.00  0.00    -0.004 A 
HETATM   25  C   UNL     1      26.271  45.948  49.582  1.00  0.00     0.015 A 
HETATM   26  C   UNL     1      27.215  46.974  49.468  1.00  0.00     0.024 A 
HETATM   27  C   UNL     1      26.791  48.296  49.359  1.00  0.00     0.034 A 
HETATM   28 CL   UNL     1      27.953  49.557  49.216  1.00  0.00    -0.084 Cl
HETATM   29  C   UNL     1      25.432  48.604  49.359  1.00  0.00     0.024 A 
HETATM   30  C   UNL     1      24.491  47.577  49.472  1.00  0.00     0.015 A 
ENDBRANCH  19  24
ENDBRANCH   2  18
TORSDOF 6
ENDMDL
MODEL 3
REMARK VINA RESULT:      -9.1      3.649      9.609
REMARK  6 active torsions:
REMARK  status: ('A' for Active; 'I' for Inactive)
REMARK    1  A    between atoms: C_4  and  O_5 
REMARK    2  A    between atoms: O_5  and  C_6 
REMARK    3  A    between atoms: C_6  and  C_7 
REMARK       I    between atoms: C_7  and  N_8 
REMARK    4  A    between atoms: N_8  and  N_9 
REMARK       I    between atoms: N_9  and  C_10 
REMARK    5  A    between atoms: C_10  and  C_11 
REMARK    6  A    between atoms: C_12  and  C_13 
ROOT
HETATM    1  N   UNL     1      26.934  45.042  51.703  1.00  0.00    -0.263 N 
HETATM    2  C   UNL     1      26.826  43.994  52.601  1.00  0.00     0.274 C 
HETATM    3  O   UNL     1      25.864  43.898  53.362  1.00  0.00    -0.266 OA
HETATM    4  H   UNL     1      27.531  44.941  50.882  1.00  0.00     0.190 HD
ENDROOT
BRANCH   1   5
HETATM    5  N   UNL     1      25.803  45.863  51.521  1.00  0.00    -0.265 N 
HETATM    6  C   UNL     1      25.667  46.467  50.282  1.00  0.00     0.260 C 
HETATM    7  O   UNL     1      26.555  46.407  49.432  1.00  0.00    -0.269 OA
HETATM    8  H   UNL     1      24.988  45.609  52.079  1.00  0.00     0.190 HD
BRANCH   6   9
HETATM    9  C   UNL     1      24.350  47.214  50.098  1.00  0.00     0.280 C 
BRANCH   9  10
HETATM   10  O   UNL     1      24.645  48.535  49.650  1.00  0.00    -0.342 OA
BRANCH  10  11
HETATM   11  C   UNL     1      23.608  49.115  48.975  1.00  0.00     0.069 A 
HETATM   12  C   UNL     1      22.521  48.388  48.487  1.00  0.00     0.043 A 
HETATM   13  C   UNL     1      21.460  49.049  47.853  1.00  0.00    -0.059 A 
HETATM   14  C   UNL     1      20.266  48.284  47.365  1.00  0.00     0.048 C 
HETATM   15  C   UNL     1      21.491  50.445  47.747  1.00  0.00     0.007 A 
HETATM   16  C   UNL     1      22.569  51.171  48.258  1.00  0.00     0.003 A 
HETATM   17  C   UNL     1      23.623  50.505  48.880  1.00  0.00     0.037 A 
ENDBRANCH  10  11
ENDBRANCH   9  10
ENDBRANCH   6   9
ENDBRANCH   1   5
BRANCH   2  18
HETATM   18  C   UNL     1      27.918  43.035  52.550  1.00  0.00     0.081 A 
HETATM   19  C   UNL     1      29.094  42.966  53.364  1.00  0.00     0.104 A 
HETATM   20  N   UNL     1      29.898  41.967  52.957  1.00  0.00    -0.174 NA
HETATM   21  N   UNL     1      29.249  41.396  51.940  1.00  0.00    -0.288 N 
HETATM   22  H   UNL     1      29.684  40.604  51.477  1.00  0.00     0.188 HD
HETATM   23  C   UNL     1      28.058  41.989  51.654  1.00  0.00     0.128 A 
BRANCH  19  24
HETATM   24  C   UNL     1      29.477  43.785  54.515  1.00  0.00    -0.004 A 
HETATM   25  C   UNL     1      28.754  44.935  54.859  1.00  0.00     0.015 A 
HETATM   26  C   UNL     1      29.120  45.696  55.973  1.00  0.00     0.024 A 
HETATM   27  C   UNL     1      30.205  45.306  56.753  1.00  0.00     0.034 A 
HETATM   28 CL   UNL     1      30.653  46.243  58.125  1.00  0.00    -0.084 Cl
HETATM   29  C   UNL     1      30.927  44.158  56.434  1.00  0.00     0.024 A 
HETATM   30  C   UNL     1      30.560  43.397  55.320  1.00  0.00     0.015 A 
ENDBRANCH  19  24
ENDBRANCH   2  18
TORSDOF 6
ENDMDL
MODEL 4
REMARK VINA RESULT:      -9.1      3.486      8.698
REMARK  6 active torsions:
REMARK  status: ('A' for Active; 'I' for Inactive)
REMARK    1  A    between atoms: C_4  and  O_5 
REMARK    2  A    between atoms: O_5  and  C_6 
REMARK    3  A    between atoms: C_6  and  C_7 
REMARK       I    between atoms: C_7  and  N_8 
REMARK    4  A    between atoms: N_8  and  N_9 
REMARK       I    between atoms: N_9  and  C_10 
REMARK    5  A    between atoms: C_10  and  C_11 
REMARK    6  A    between atoms: C_12  and  C_13 
ROOT
HETATM    1  N   UNL     1      26.120  42.801  49.926  1.00  0.00    -0.263 N 
HETATM    2  C   UNL     1      27.387  43.003  50.442  1.00  0.00     0.274 C 
HETATM    3  O   UNL     1      27.948  44.095  50.359  1.00  0.00    -0.266 OA
HETATM    4  H   UNL     1      25.549  42.032  50.277  1.00  0.00     0.190 HD
ENDROOT
BRANCH   1   5
HETATM    5  N   UNL     1      25.396  43.939  49.512  1.00  0.00    -0.265 N 
HETATM    6  C   UNL     1      24.527  44.492  50.438  1.00  0.00     0.260 C 
HETATM    7  O   UNL     1      24.290  43.942  51.513  1.00  0.00    -0.269 OA
HETATM    8  H   UNL     1      25.858  44.515  48.809  1.00  0.00     0.190 HD
BRANCH   6   9
HETATM    9  C   UNL     1      23.893  45.805  49.986  1.00  0.00     0.280 C 
BRANCH   9  10
HETATM   10  O   UNL     1      24.571  46.875  50.641  1.00  0.00    -0.342 OA
BRANCH  10  11
HETATM   11  C   UNL     1      24.951  47.870  49.785  1.00  0.00     0.069 A 
HETATM   12  C   UNL     1      24.037  48.723  49.162  1.00  0.00     0.043 A 
HETATM   13  C   UNL     1      24.494  49.762  48.339  1.00  0.00    -0.059 A 
HETATM   14  C   UNL     1      23.525  50.712  47.701  1.00  0.00     0.048 C 
HETATM   15  C   UNL     1      25.873  49.951  48.179  1.00  0.00     0.007 A 
HETATM   16  C   UNL     1      26.782  49.110  48.822  1.00  0.00     0.003 A 
HETATM   17  C   UNL     1      26.320  48.076  49.633  1.00  0.00     0.037 A 
ENDBRANCH  10  11
ENDBRANCH   9  10
ENDBRANCH   6   9
ENDBRANCH   1   5
BRANCH   2  18
HETATM   18  C   UNL     1      27.972  41.840  51.090  1.00  0.00     0.081 A 
HETATM   19  C   UNL     1      28.620  41.749  52.363  1.00  0.00     0.104 A 
HETATM   20  N   UNL     1      29.088  40.505  52.573  1.00  0.00    -0.174 NA
HETATM   21  N   UNL     1      28.726  39.814  51.489  1.00  0.00    -0.288 N 
HETATM   22  H   UNL     1      28.981  38.833  51.439  1.00  0.00     0.188 HD
HETATM   23  C   UNL     1      28.054  40.559  50.570  1.00  0.00     0.128 A 
BRANCH  19  24
HETATM   24  C   UNL     1      28.796  42.775  53.392  1.00  0.00    -0.004 A 
HETATM   25  C   UNL     1      30.049  43.009  53.973  1.00  0.00     0.015 A 
HETATM   26  C   UNL     1      30.208  44.008  54.940  1.00  0.00     0.024 A 
HETATM   27  C   UNL     1      29.115  44.781  55.323  1.00  0.00     0.034 A 
HETATM   28 CL   UNL     1      29.311  46.010  56.511  1.00  0.00    -0.084 Cl
HETATM   29  C   UNL     1      27.864  44.570  54.745  1.00  0.00     0.024 A 
HETATM   30  C   UNL     1      27.708  43.573  53.778  1.00  0.00     0.015 A 
ENDBRANCH  19  24
ENDBRANCH   2  18
TORSDOF 6
ENDMDL
MODEL 5
REMARK VINA RESULT:      -8.8      3.389      9.201
REMARK  6 active torsions:
REMARK  status: ('A' for Active; 'I' for Inactive)
REMARK    1  A    between atoms: C_4  and  O_5 
REMARK    2  A    between atoms: O_5  and  C_6 
REMARK    3  A    between atoms: C_6  and  C_7 
REMARK       I    between atoms: C_7  and  N_8 
REMARK    4  A    between atoms: N_8  and  N_9 
REMARK       I    between atoms: N_9  and  C_10 
REMARK    5  A    between atoms: C_10  and  C_11 
REMARK    6  A    between atoms: C_12  and  C_13 
ROOT
HETATM    1  N   UNL     1      25.836  43.887  50.157  1.00  0.00    -0.263 N 
HETATM    2  C   UNL     1      27.168  43.714  50.489  1.00  0.00     0.274 C 
HETATM    3  O   UNL     1      27.998  44.602  50.296  1.00  0.00    -0.266 OA
HETATM    4  H   UNL     1      25.126  43.310  50.607  1.00  0.00     0.190 HD
ENDROOT
BRANCH   1   5
HETATM    5  N   UNL     1      25.415  45.187  49.812  1.00  0.00    -0.265 N 
HETATM    6  C   UNL     1      24.891  45.963  50.833  1.00  0.00     0.260 C 
HETATM    7  O   UNL     1      24.673  45.498  51.952  1.00  0.00    -0.269 OA
HETATM    8  H   UNL     1      25.910  45.610  49.026  1.00  0.00     0.190 HD
BRANCH   6   9
HETATM    9  C   UNL     1      24.599  47.405  50.430  1.00  0.00     0.280 C 
BRANCH   9  10
HETATM   10  O   UNL     1      23.438  47.410  49.602  1.00  0.00    -0.342 OA
BRANCH  10  11
HETATM   11  C   UNL     1      23.154  48.644  49.088  1.00  0.00     0.069 A 
HETATM   12  C   UNL     1      21.923  49.276  49.274  1.00  0.00     0.043 A 
HETATM   13  C   UNL     1      21.712  50.567  48.770  1.00  0.00    -0.059 A 
HETATM   14  C   UNL     1      20.411  51.275  49.003  1.00  0.00     0.048 C 
HETATM   15  C   UNL     1      22.760  51.222  48.110  1.00  0.00     0.007 A 
HETATM   16  C   UNL     1      23.996  50.594  47.946  1.00  0.00     0.003 A 
HETATM   17  C   UNL     1      24.194  49.308  48.444  1.00  0.00     0.037 A 
ENDBRANCH  10  11
ENDBRANCH   9  10
ENDBRANCH   6   9
ENDBRANCH   1   5
BRANCH   2  18
HETATM   18  C   UNL     1      27.484  42.427  51.086  1.00  0.00     0.081 A 
HETATM   19  C   UNL     1      28.132  42.146  52.332  1.00  0.00     0.104 A 
HETATM   20  N   UNL     1      28.301  40.821  52.494  1.00  0.00    -0.174 NA
HETATM   21  N   UNL     1      27.753  40.269  51.409  1.00  0.00    -0.288 N 
HETATM   22  H   UNL     1      27.768  39.257  51.327  1.00  0.00     0.188 HD
HETATM   23  C   UNL     1      27.246  41.179  50.534  1.00  0.00     0.128 A 
BRANCH  19  24
HETATM   24  C   UNL     1      28.578  43.069  53.376  1.00  0.00    -0.004 A 
HETATM   25  C   UNL     1      27.751  44.107  53.826  1.00  0.00     0.015 A 
HETATM   26  C   UNL     1      28.183  44.970  54.839  1.00  0.00     0.024 A 
HETATM   27  C   UNL     1      29.439  44.792  55.412  1.00  0.00     0.034 A 
HETATM   28 CL   UNL     1      29.967  45.852  56.660  1.00  0.00    -0.084 Cl
HETATM   29  C   UNL     1      30.269  43.757  54.986  1.00  0.00     0.024 A 
HETATM   30  C   UNL     1      29.836  42.896  53.974  1.00  0.00     0.015 A 
ENDBRANCH  19  24
ENDBRANCH   2  18
TORSDOF 6
ENDMDL
MODEL 6
REMARK VINA RESULT:      -8.8      5.559      8.426
REMARK  6 active torsions:
REMARK  status: ('A' for Active; 'I' for Inactive)
REMARK    1  A    between atoms: C_4  and  O_5 
REMARK    2  A    between atoms: O_5  and  C_6 
REMARK    3  A    between atoms: C_6  and  C_7 
REMARK       I    between atoms: C_7  and  N_8 
REMARK    4  A    between atoms: N_8  and  N_9 
REMARK       I    between atoms: N_9  and  C_10 
REMARK    5  A    between atoms: C_10  and  C_11 
REMARK    6  A    between atoms: C_12  and  C_13 
ROOT
HETATM    1  N   UNL     1      26.351  43.048  52.507  1.00  0.00    -0.263 N 
HETATM    2  C   UNL     1      27.105  44.178  52.243  1.00  0.00     0.274 C 
HETATM    3  O   UNL     1      27.945  44.193  51.344  1.00  0.00    -0.266 OA
HETATM    4  H   UNL     1      25.464  43.140  53.003  1.00  0.00     0.190 HD
ENDROOT
BRANCH   1   5
HETATM    5  N   UNL     1      26.405  41.996  51.571  1.00  0.00    -0.265 N 
HETATM    6  C   UNL     1      25.384  41.944  50.635  1.00  0.00     0.260 C 
HETATM    7  O   UNL     1      24.407  42.688  50.702  1.00  0.00    -0.269 OA
HETATM    8  H   UNL     1      27.341  41.657  51.352  1.00  0.00     0.190 HD
BRANCH   6   9
HETATM    9  C   UNL     1      25.583  40.879  49.560  1.00  0.00     0.280 C 
BRANCH   9  10
HETATM   10  O   UNL     1      26.767  41.196  48.833  1.00  0.00    -0.342 OA
BRANCH  10  11
HETATM   11  C   UNL     1      27.606  40.127  48.686  1.00  0.00     0.069 A 
HETATM   12  C   UNL     1      28.396  39.636  49.727  1.00  0.00     0.043 A 
HETATM   13  C   UNL     1      29.193  38.500  49.530  1.00  0.00    -0.059 A 
HETATM   14  C   UNL     1      30.011  37.936  50.653  1.00  0.00     0.048 C 
HETATM   15  C   UNL     1      29.160  37.849  48.290  1.00  0.00     0.007 A 
HETATM   16  C   UNL     1      28.350  38.330  47.259  1.00  0.00     0.003 A 
HETATM   17  C   UNL     1      27.567  39.464  47.462  1.00  0.00     0.037 A 
ENDBRANCH  10  11
ENDBRANCH   9  10
ENDBRANCH   6   9
ENDBRANCH   1   5
BRANCH   2  18
HETATM   18  C   UNL     1      26.807  45.320  53.093  1.00  0.00     0.081 A 
HETATM   19  C   UNL     1      27.434  45.719  54.317  1.00  0.00     0.104 A 
HETATM   20  N   UNL     1      26.823  46.798  54.837  1.00  0.00    -0.174 NA
HETATM   21  N   UNL     1      25.860  47.102  53.963  1.00  0.00    -0.288 N 
HETATM   22  H   UNL     1      25.266  47.901  54.162  1.00  0.00     0.188 HD
HETATM   23  C   UNL     1      25.805  46.255  52.900  1.00  0.00     0.128 A 
BRANCH  19  24
HETATM   24  C   UNL     1      28.591  45.138  55.000  1.00  0.00    -0.004 A 
HETATM   25  C   UNL     1      29.168  43.941  54.558  1.00  0.00     0.015 A 
HETATM   26  C   UNL     1      30.286  43.409  55.209  1.00  0.00     0.024 A 
HETATM   27  C   UNL     1      30.836  44.077  56.300  1.00  0.00     0.034 A 
HETATM   28 CL   UNL     1      32.212  43.422  57.098  1.00  0.00    -0.084 Cl
HETATM   29  C   UNL     1      30.282  45.276  56.745  1.00  0.00     0.024 A 
HETATM   30  C   UNL     1      29.166  45.807  56.093  1.00  0.00     0.015 A 
ENDBRANCH  19  24
ENDBRANCH   2  18
TORSDOF 6
ENDMDL
MODEL 7
REMARK VINA RESULT:      -8.6      3.492      9.059
REMARK  6 active torsions:
REMARK  status: ('A' for Active; 'I' for Inactive)
REMARK    1  A    between atoms: C_4  and  O_5 
REMARK    2  A    between atoms: O_5  and  C_6 
REMARK    3  A    between atoms: C_6  and  C_7 
REMARK       I    between atoms: C_7  and  N_8 
REMARK    4  A    between atoms: N_8  and  N_9 
REMARK       I    between atoms: N_9  and  C_10 
REMARK    5  A    between atoms: C_10  and  C_11 
REMARK    6  A    between atoms: C_12  and  C_13 
ROOT
HETATM    1  N   UNL     1      26.411  46.809  52.973  1.00  0.00    -0.263 N 
HETATM    2  C   UNL     1      26.346  46.050  54.128  1.00  0.00     0.274 C 
HETATM    3  O   UNL     1      25.281  45.584  54.531  1.00  0.00    -0.266 OA
HETATM    4  H   UNL     1      27.300  46.904  52.483  1.00  0.00     0.190 HD
ENDROOT
BRANCH   1   5
HETATM    5  N   UNL     1      25.268  46.838  52.148  1.00  0.00    -0.265 N 
HETATM    6  C   UNL     1      25.443  47.320  50.861  1.00  0.00     0.260 C 
HETATM    7  O   UNL     1      26.504  47.830  50.500  1.00  0.00    -0.269 OA
HETATM    8  H   UNL     1      24.564  46.130  52.357  1.00  0.00     0.190 HD
BRANCH   6   9
HETATM    9  C   UNL     1      24.210  47.181  49.974  1.00  0.00     0.280 C 
BRANCH   9  10
HETATM   10  O   UNL     1      24.372  48.041  48.848  1.00  0.00    -0.342 OA
BRANCH  10  11
HETATM   11  C   UNL     1      23.392  48.988  48.754  1.00  0.00     0.069 A 
HETATM   12  C   UNL     1      22.073  48.755  49.148  1.00  0.00     0.043 A 
HETATM   13  C   UNL     1      21.125  49.786  49.081  1.00  0.00    -0.059 A 
HETATM   14  C   UNL     1      19.717  49.561  49.544  1.00  0.00     0.048 C 
HETATM   15  C   UNL     1      21.528  51.056  48.647  1.00  0.00     0.007 A 
HETATM   16  C   UNL     1      22.853  51.291  48.276  1.00  0.00     0.003 A 
HETATM   17  C   UNL     1      23.786  50.258  48.339  1.00  0.00     0.037 A 
ENDBRANCH  10  11
ENDBRANCH   9  10
ENDBRANCH   6   9
ENDBRANCH   1   5
BRANCH   2  18
HETATM   18  C   UNL     1      27.623  45.846  54.794  1.00  0.00     0.081 A 
HETATM   19  C   UNL     1      28.558  44.772  54.639  1.00  0.00     0.104 A 
HETATM   20  N   UNL     1      29.592  44.913  55.487  1.00  0.00    -0.174 NA
HETATM   21  N   UNL     1      29.347  46.052  56.141  1.00  0.00    -0.288 N 
HETATM   22  H   UNL     1      30.016  46.356  56.841  1.00  0.00     0.188 HD
HETATM   23  C   UNL     1      28.186  46.654  55.766  1.00  0.00     0.128 A 
BRANCH  19  24
HETATM   24  C   UNL     1      28.525  43.638  53.715  1.00  0.00    -0.004 A 
HETATM   25  C   UNL     1      28.742  42.329  54.167  1.00  0.00     0.015 A 
HETATM   26  C   UNL     1      28.687  41.252  53.276  1.00  0.00     0.024 A 
HETATM   27  C   UNL     1      28.407  41.479  51.931  1.00  0.00     0.034 A 
HETATM   28 CL   UNL     1      28.338  40.153  50.837  1.00  0.00    -0.084 Cl
HETATM   29  C   UNL     1      28.176  42.773  51.467  1.00  0.00     0.024 A 
HETATM   30  C   UNL     1      28.230  43.848  52.359  1.00  0.00     0.015 A 
ENDBRANCH  19  24
ENDBRANCH   2  18
TORSDOF 6
ENDMDL
MODEL 8
REMARK VINA RESULT:      -8.2      3.524      9.472
REMARK  6 active torsions:
REMARK  status: ('A' for Active; 'I' for Inactive)
REMARK    1  A    between atoms: C_4  and  O_5 
REMARK    2  A    between atoms: O_5  and  C_6 
REMARK    3  A    between atoms: C_6  and  C_7 
REMARK       I    between atoms: C_7  and  N_8 
REMARK    4  A    between atoms: N_8  and  N_9 
REMARK       I    between atoms: N_9  and  C_10 
REMARK    5  A    between atoms: C_10  and  C_11 
REMARK    6  A    between atoms: C_12  and  C_13 
ROOT
HETATM    1  N   UNL     1      23.514  47.213  49.888  1.00  0.00    -0.263 N 
HETATM    2  C   UNL     1      24.613  46.644  50.508  1.00  0.00     0.274 C 
HETATM    3  O   UNL     1      25.613  47.308  50.775  1.00  0.00    -0.266 OA
HETATM    4  H   UNL     1      22.602  46.763  49.970  1.00  0.00     0.190 HD
ENDROOT
BRANCH   1   5
HETATM    5  N   UNL     1      23.479  48.618  49.786  1.00  0.00    -0.265 N 
HETATM    6  C   UNL     1      22.963  49.143  48.612  1.00  0.00     0.260 C 
HETATM    7  O   UNL     1      22.681  48.426  47.651  1.00  0.00    -0.269 OA
HETATM    8  H   UNL     1      23.391  49.117  50.671  1.00  0.00     0.190 HD
BRANCH   6   9
HETATM    9  C   UNL     1      22.809  50.661  48.626  1.00  0.00     0.280 C 
BRANCH   9  10
HETATM   10  O   UNL     1      22.067  51.023  49.788  1.00  0.00    -0.342 OA
BRANCH  10  11
HETATM   11  C   UNL     1      20.717  51.031  49.580  1.00  0.00     0.069 A 
HETATM   12  C   UNL     1      20.124  51.652  48.479  1.00  0.00     0.043 A 
HETATM   13  C   UNL     1      18.737  51.576  48.291  1.00  0.00    -0.059 A 
HETATM   14  C   UNL     1      18.094  52.200  47.088  1.00  0.00     0.048 C 
HETATM   15  C   UNL     1      17.964  50.842  49.200  1.00  0.00     0.007 A 
HETATM   16  C   UNL     1      18.564  50.203  50.286  1.00  0.00     0.003 A 
HETATM   17  C   UNL     1      19.942  50.291  50.470  1.00  0.00     0.037 A 
ENDBRANCH  10  11
ENDBRANCH   9  10
ENDBRANCH   6   9
ENDBRANCH   1   5
BRANCH   2  18
HETATM   18  C   UNL     1      24.472  45.231  50.819  1.00  0.00     0.081 A 
HETATM   19  C   UNL     1      25.162  44.453  51.803  1.00  0.00     0.104 A 
HETATM   20  N   UNL     1      24.796  43.160  51.732  1.00  0.00    -0.174 NA
HETATM   21  N   UNL     1      23.881  43.115  50.760  1.00  0.00    -0.288 N 
HETATM   22  H   UNL     1      23.462  42.217  50.538  1.00  0.00     0.188 HD
HETATM   23  C   UNL     1      23.644  44.323  50.181  1.00  0.00     0.128 A 
BRANCH  19  24
HETATM   24  C   UNL     1      26.131  44.879  52.813  1.00  0.00    -0.004 A 
HETATM   25  C   UNL     1      25.795  45.834  53.782  1.00  0.00     0.015 A 
HETATM   26  C   UNL     1      26.725  46.217  54.754  1.00  0.00     0.024 A 
HETATM   27  C   UNL     1      27.992  45.640  54.766  1.00  0.00     0.034 A 
HETATM   28 CL   UNL     1      29.134  46.111  55.963  1.00  0.00    -0.084 Cl
HETATM   29  C   UNL     1      28.339  44.680  53.818  1.00  0.00     0.024 A 
HETATM   30  C   UNL     1      27.408  44.297  52.848  1.00  0.00     0.015 A 
ENDBRANCH  19  24
ENDBRANCH   2  18
TORSDOF 6
ENDMDL
MODEL 9
REMARK VINA RESULT:      -8.2      2.931      8.608
REMARK  6 active torsions:
REMARK  status: ('A' for Active; 'I' for Inactive)
REMARK    1  A    between atoms: C_4  and  O_5 
REMARK    2  A    between atoms: O_5  and  C_6 
REMARK    3  A    between atoms: C_6  and  C_7 
REMARK       I    between atoms: C_7  and  N_8 
REMARK    4  A    between atoms: N_8  and  N_9 
REMARK       I    between atoms: N_9  and  C_10 
REMARK    5  A    between atoms: C_10  and  C_11 
REMARK    6  A    between atoms: C_12  and  C_13 
ROOT
HETATM    1  N   UNL     1      25.283  44.853  50.599  1.00  0.00    -0.263 N 
HETATM    2  C   UNL     1      26.606  44.450  50.644  1.00  0.00     0.274 C 
HETATM    3  O   UNL     1      27.420  44.828  49.803  1.00  0.00    -0.266 OA
HETATM    4  H   UNL     1      24.716  44.814  51.446  1.00  0.00     0.190 HD
ENDROOT
BRANCH   1   5
HETATM    5  N   UNL     1      24.948  45.890  49.705  1.00  0.00    -0.265 N 
HETATM    6  C   UNL     1      24.807  47.157  50.247  1.00  0.00     0.260 C 
HETATM    7  O   UNL     1      24.832  47.346  51.463  1.00  0.00    -0.269 OA
HETATM    8  H   UNL     1      25.269  45.757  48.746  1.00  0.00     0.190 HD
BRANCH   6   9
HETATM    9  C   UNL     1      24.598  48.256  49.210  1.00  0.00     0.280 C 
BRANCH   9  10
HETATM   10  O   UNL     1      23.795  49.277  49.798  1.00  0.00    -0.342 OA
BRANCH  10  11
HETATM   11  C   UNL     1      22.624  49.488  49.126  1.00  0.00     0.069 A 
HETATM   12  C   UNL     1      21.841  50.630  49.311  1.00  0.00     0.043 A 
HETATM   13  C   UNL     1      20.679  50.816  48.549  1.00  0.00    -0.059 A 
HETATM   14  C   UNL     1      19.854  52.059  48.705  1.00  0.00     0.048 C 
HETATM   15  C   UNL     1      20.336  49.862  47.582  1.00  0.00     0.007 A 
HETATM   16  C   UNL     1      21.134  48.734  47.385  1.00  0.00     0.003 A 
HETATM   17  C   UNL     1      22.283  48.553  48.152  1.00  0.00     0.037 A 
ENDBRANCH  10  11
ENDBRANCH   9  10
ENDBRANCH   6   9
ENDBRANCH   1   5
BRANCH   2  18
HETATM   18  C   UNL     1      26.938  43.576  51.757  1.00  0.00     0.081 A 
HETATM   19  C   UNL     1      27.190  43.916  53.125  1.00  0.00     0.104 A 
HETATM   20  N   UNL     1      27.532  42.824  53.833  1.00  0.00    -0.174 NA
HETATM   21  N   UNL     1      27.471  41.815  52.961  1.00  0.00    -0.288 N 
HETATM   22  H   UNL     1      27.692  40.881  53.291  1.00  0.00     0.188 HD
HETATM   23  C   UNL     1      27.117  42.204  51.706  1.00  0.00     0.128 A 
BRANCH  19  24
HETATM   24  C   UNL     1      27.102  45.216  53.791  1.00  0.00    -0.004 A 
HETATM   25  C   UNL     1      25.887  45.908  53.872  1.00  0.00     0.015 A 
HETATM   26  C   UNL     1      25.814  47.141  54.529  1.00  0.00     0.024 A 
HETATM   27  C   UNL     1      26.956  47.682  55.115  1.00  0.00     0.034 A 
HETATM   28 CL   UNL     1      26.864  49.197  55.925  1.00  0.00    -0.084 Cl
HETATM   29  C   UNL     1      28.170  47.001  55.055  1.00  0.00     0.024 A 
HETATM   30  C   UNL     1      28.240  45.769  54.399  1.00  0.00     0.015 A 
ENDBRANCH  19  24
ENDBRANCH   2  18
TORSDOF 6
ENDMDL
MODEL 10
REMARK VINA RESULT:      -8.1      5.274      7.451
REMARK  6 active torsions:
REMARK  status: ('A' for Active; 'I' for Inactive)
REMARK    1  A    between atoms: C_4  and  O_5 
REMARK    2  A    between atoms: O_5  and  C_6 
REMARK    3  A    between atoms: C_6  and  C_7 
REMARK       I    between atoms: C_7  and  N_8 
REMARK    4  A    between atoms: N_8  and  N_9 
REMARK       I    between atoms: N_9  and  C_10 
REMARK    5  A    between atoms: C_10  and  C_11 
REMARK    6  A    between atoms: C_12  and  C_13 
ROOT
HETATM    1  N   UNL     1      25.628  44.637  51.105  1.00  0.00    -0.263 N 
HETATM    2  C   UNL     1      26.157  44.189  49.908  1.00  0.00     0.274 C 
HETATM    3  O   UNL     1      27.275  44.536  49.529  1.00  0.00    -0.266 OA
HETATM    4  H   UNL     1      24.882  44.108  51.555  1.00  0.00     0.190 HD
ENDROOT
BRANCH   1   5
HETATM    5  N   UNL     1      26.496  45.312  51.988  1.00  0.00    -0.265 N 
HETATM    6  C   UNL     1      26.262  45.140  53.343  1.00  0.00     0.260 C 
HETATM    7  O   UNL     1      25.265  44.547  53.756  1.00  0.00    -0.269 OA
HETATM    8  H   UNL     1      27.438  45.477  51.631  1.00  0.00     0.190 HD
BRANCH   6   9
HETATM    9  C   UNL     1      27.324  45.766  54.241  1.00  0.00     0.280 C 
BRANCH   9  10
HETATM   10  O   UNL     1      28.490  44.948  54.190  1.00  0.00    -0.342 OA
BRANCH  10  11
HETATM   11  C   UNL     1      29.189  44.940  55.364  1.00  0.00     0.069 A 
HETATM   12  C   UNL     1      30.241  44.056  55.614  1.00  0.00     0.043 A 
HETATM   13  C   UNL     1      30.957  44.137  56.816  1.00  0.00    -0.059 A 
HETATM   14  C   UNL     1      32.118  43.224  57.076  1.00  0.00     0.048 C 
HETATM   15  C   UNL     1      30.626  45.134  57.743  1.00  0.00     0.007 A 
HETATM   16  C   UNL     1      29.589  46.030  57.479  1.00  0.00     0.003 A 
HETATM   17  C   UNL     1      28.877  45.938  56.285  1.00  0.00     0.037 A 
ENDBRANCH  10  11
ENDBRANCH   9  10
ENDBRANCH   6   9
ENDBRANCH   1   5
BRANCH   2  18
HETATM   18  C   UNL     1      25.297  43.281  49.166  1.00  0.00     0.081 A 
HETATM   19  C   UNL     1      25.551  41.932  48.756  1.00  0.00     0.104 A 
HETATM   20  N   UNL     1      24.528  41.454  48.026  1.00  0.00    -0.174 NA
HETATM   21  N   UNL     1      23.635  42.446  47.995  1.00  0.00    -0.288 N 
HETATM   22  H   UNL     1      22.768  42.295  47.488  1.00  0.00     0.188 HD
HETATM   23  C   UNL     1      24.039  43.561  48.661  1.00  0.00     0.128 A 
BRANCH  19  24
HETATM   24  C   UNL     1      26.704  41.077  49.041  1.00  0.00    -0.004 A 
HETATM   25  C   UNL     1      27.142  40.865  50.355  1.00  0.00     0.015 A 
HETATM   26  C   UNL     1      28.233  40.028  50.613  1.00  0.00     0.024 A 
HETATM   27  C   UNL     1      28.884  39.393  49.559  1.00  0.00     0.034 A 
HETATM   28 CL   UNL     1      30.224  38.362  49.878  1.00  0.00    -0.084 Cl
HETATM   29  C   UNL     1      28.453  39.582  48.247  1.00  0.00     0.024 A 
HETATM   30  C   UNL     1      27.362  40.418  47.991  1.00  0.00     0.015 A 
ENDBRANCH  19  24
ENDBRANCH   2  18
TORSDOF 6
ENDMDL
