MODEL 1
REMARK VINA RESULT:      -9.2      0.000      0.000
REMARK  7 active torsions:
REMARK  status: ('A' for Active; 'I' for Inactive)
REMARK    1  A    between atoms: C_2  and  O_3 
REMARK    2  A    between atoms: O_3  and  C_4 
REMARK    3  A    between atoms: C_4  and  C_5 
REMARK    4  A    between atoms: C_8  and  N_9 
REMARK    5  A    between atoms: C_12  and  N_13 
REMARK    6  A    between atoms: C_17  and  O_18 
REMARK    7  A    between atoms: C_17  and  C_19 
ROOT
HETATM    1  N   UNL     1      24.202  48.262  49.176  1.00  0.00    -0.251 N 
HETATM    2  C   UNL     1      24.035  47.025  49.755  1.00  0.00     0.262 C 
HETATM    3  O   UNL     1      23.068  46.278  49.797  1.00  0.00    -0.270 OA
HETATM    4  C   UNL     1      25.348  46.643  50.395  1.00  0.00     0.289 C 
HETATM    5  C   UNL     1      26.364  47.446  49.624  1.00  0.00     0.146 C 
HETATM    6  C   UNL     1      25.540  48.606  49.148  1.00  0.00     0.233 C 
HETATM    7  O   UNL     1      26.073  49.651  48.807  1.00  0.00    -0.273 OA
ENDROOT
BRANCH   4   8
HETATM    8  N   UNL     1      25.641  45.131  50.459  1.00  0.00    -0.058 N 
HETATM    9  H   UNL     1      25.036  44.732  49.718  1.00  0.00     0.281 HD
HETATM   10  C   UNL     1      27.044  44.726  50.057  1.00  0.00     0.239 C 
HETATM   11  C   UNL     1      27.224  43.220  50.174  1.00  0.00     0.071 C 
HETATM   12  C   UNL     1      26.895  42.705  51.590  1.00  0.00     0.088 C 
HETATM   13  C   UNL     1      25.410  43.051  51.816  1.00  0.00     0.071 C 
HETATM   14  C   UNL     1      25.173  44.549  51.772  1.00  0.00     0.239 C 
BRANCH  12  15
HETATM   15  O   UNL     1      26.980  41.282  51.542  1.00  0.00    -0.385 OA
HETATM   16  H   UNL     1      27.892  40.998  51.738  1.00  0.00     0.211 HD
ENDBRANCH  12  15
BRANCH  12  17
HETATM   17  C   UNL     1      27.836  43.204  52.695  1.00  0.00    -0.024 A 
HETATM   18  C   UNL     1      29.201  42.853  52.711  1.00  0.00     0.011 A 
HETATM   19  C   UNL     1      30.050  43.262  53.746  1.00  0.00     0.020 A 
HETATM   20  C   UNL     1      29.557  44.061  54.769  1.00  0.00     0.011 A 
HETATM   21 BR   UNL     1      30.694  44.595  56.180  1.00  0.00    -0.051 Br
HETATM   22  C   UNL     1      28.233  44.479  54.749  1.00  0.00     0.020 A 
HETATM   23  C   UNL     1      27.386  44.067  53.713  1.00  0.00     0.011 A 
ENDBRANCH  12  17
ENDBRANCH   4   8
BRANCH   1  24
HETATM   24  C   UNL     1      23.141  49.109  48.733  1.00  0.00     0.045 A 
HETATM   25  C   UNL     1      22.124  48.627  47.892  1.00  0.00     0.031 A 
HETATM   26  C   UNL     1      21.012  49.420  47.567  1.00  0.00     0.020 A 
HETATM   27  C   UNL     1      20.895  50.721  48.062  1.00  0.00     0.039 A 
HETATM   28  C   UNL     1      21.930  51.236  48.844  1.00  0.00     0.020 A 
HETATM   29  C   UNL     1      23.035  50.438  49.172  1.00  0.00     0.031 A 
BRANCH  27  30
HETATM   30  C   UNL     1      19.647  51.482  47.784  1.00  0.00     0.293 C 
HETATM   31  O   UNL     1      18.904  51.226  46.851  1.00  0.00    -0.259 OA
BRANCH  30  32
HETATM   32  O   UNL     1      19.447  52.418  48.743  1.00  0.00    -0.318 OA
BRANCH  32  33
HETATM   33  C   UNL     1      18.559  52.053  49.811  1.00  0.00     0.174 C 
HETATM   34  C   UNL     1      17.189  52.649  49.544  1.00  0.00     0.034 C 
ENDBRANCH  32  33
ENDBRANCH  30  32
ENDBRANCH  27  30
ENDBRANCH   1  24
TORSDOF 7
ENDMDL
MODEL 2
REMARK VINA RESULT:      -8.5      3.918     10.302
REMARK  7 active torsions:
REMARK  status: ('A' for Active; 'I' for Inactive)
REMARK    1  A    between atoms: C_2  and  O_3 
REMARK    2  A    between atoms: O_3  and  C_4 
REMARK    3  A    between atoms: C_4  and  C_5 
REMARK    4  A    between atoms: C_8  and  N_9 
REMARK    5  A    between atoms: C_12  and  N_13 
REMARK    6  A    between atoms: C_17  and  O_18 
REMARK    7  A    between atoms: C_17  and  C_19 
ROOT
HETATM    1  N   UNL     1      24.064  46.060  49.649  1.00  0.00    -0.251 N 
HETATM    2  C   UNL     1      23.161  45.402  48.847  1.00  0.00     0.262 C 
HETATM    3  O   UNL     1      22.866  44.219  48.766  1.00  0.00    -0.270 OA
HETATM    4  C   UNL     1      22.480  46.440  47.986  1.00  0.00     0.289 C 
HETATM    5  C   UNL     1      22.630  47.712  48.780  1.00  0.00     0.146 C 
HETATM    6  C   UNL     1      23.863  47.426  49.586  1.00  0.00     0.233 C 
HETATM    7  O   UNL     1      24.515  48.337  50.073  1.00  0.00    -0.273 OA
ENDROOT
BRANCH   4   8
HETATM    8  N   UNL     1      21.033  46.111  47.570  1.00  0.00    -0.058 N 
HETATM    9  H   UNL     1      21.102  45.161  47.166  1.00  0.00     0.281 HD
HETATM   10  C   UNL     1      20.049  45.962  48.713  1.00  0.00     0.239 C 
HETATM   11  C   UNL     1      18.655  45.657  48.186  1.00  0.00     0.071 C 
HETATM   12  C   UNL     1      18.167  46.725  47.187  1.00  0.00     0.088 C 
HETATM   13  C   UNL     1      19.166  46.675  46.015  1.00  0.00     0.071 C 
HETATM   14  C   UNL     1      20.571  47.030  46.463  1.00  0.00     0.239 C 
BRANCH  12  15
HETATM   15  O   UNL     1      16.914  46.270  46.676  1.00  0.00    -0.385 OA
HETATM   16  H   UNL     1      16.997  45.348  46.372  1.00  0.00     0.211 HD
ENDBRANCH  12  15
BRANCH  12  17
HETATM   17  C   UNL     1      17.961  48.124  47.784  1.00  0.00    -0.024 A 
HETATM   18  C   UNL     1      17.605  49.222  46.975  1.00  0.00     0.011 A 
HETATM   19  C   UNL     1      17.469  50.510  47.508  1.00  0.00     0.020 A 
HETATM   20  C   UNL     1      17.652  50.718  48.868  1.00  0.00     0.011 A 
HETATM   21 BR   UNL     1      17.493  52.457  49.585  1.00  0.00    -0.051 Br
HETATM   22  C   UNL     1      17.939  49.646  49.703  1.00  0.00     0.020 A 
HETATM   23  C   UNL     1      18.076  48.360  49.167  1.00  0.00     0.011 A 
ENDBRANCH  12  17
ENDBRANCH   4   8
BRANCH   1  24
HETATM   24  C   UNL     1      25.114  45.432  50.386  1.00  0.00     0.045 A 
HETATM   25  C   UNL     1      24.968  45.125  51.749  1.00  0.00     0.031 A 
HETATM   26  C   UNL     1      25.944  44.389  52.438  1.00  0.00     0.020 A 
HETATM   27  C   UNL     1      27.100  43.952  51.785  1.00  0.00     0.039 A 
HETATM   28  C   UNL     1      27.290  44.306  50.450  1.00  0.00     0.020 A 
HETATM   29  C   UNL     1      26.308  45.035  49.763  1.00  0.00     0.031 A 
BRANCH  27  30
HETATM   30  C   UNL     1      28.052  43.079  52.525  1.00  0.00     0.293 C 
HETATM   31  O   UNL     1      27.892  41.876  52.652  1.00  0.00    -0.259 OA
BRANCH  30  32
HETATM   32  O   UNL     1      29.115  43.803  52.951  1.00  0.00    -0.318 OA
BRANCH  32  33
HETATM   33  C   UNL     1      29.192  44.045  54.364  1.00  0.00     0.174 C 
HETATM   34  C   UNL     1      30.327  43.224  54.948  1.00  0.00     0.034 C 
ENDBRANCH  32  33
ENDBRANCH  30  32
ENDBRANCH  27  30
ENDBRANCH   1  24
TORSDOF 7
ENDMDL
MODEL 3
REMARK VINA RESULT:      -8.2      7.861     10.648
REMARK  7 active torsions:
REMARK  status: ('A' for Active; 'I' for Inactive)
REMARK    1  A    between atoms: C_2  and  O_3 
REMARK    2  A    between atoms: O_3  and  C_4 
REMARK    3  A    between atoms: C_4  and  C_5 
REMARK    4  A    between atoms: C_8  and  N_9 
REMARK    5  A    between atoms: C_12  and  N_13 
REMARK    6  A    between atoms: C_17  and  O_18 
REMARK    7  A    between atoms: C_17  and  C_19 
ROOT
HETATM    1  N   UNL     1      28.274  41.686  51.527  1.00  0.00    -0.251 N 
HETATM    2  C   UNL     1      27.559  42.100  50.427  1.00  0.00     0.262 C 
HETATM    3  O   UNL     1      27.236  43.216  50.048  1.00  0.00    -0.270 OA
HETATM    4  C   UNL     1      27.190  40.868  49.636  1.00  0.00     0.289 C 
HETATM    5  C   UNL     1      28.237  39.862  50.041  1.00  0.00     0.146 C 
HETATM    6  C   UNL     1      28.627  40.356  51.403  1.00  0.00     0.233 C 
HETATM    7  O   UNL     1      29.173  39.613  52.203  1.00  0.00    -0.273 OA
ENDROOT
BRANCH   4   8
HETATM    8  N   UNL     1      27.051  41.072  48.115  1.00  0.00    -0.058 N 
HETATM    9  H   UNL     1      26.898  42.091  48.017  1.00  0.00     0.281 HD
HETATM   10  C   UNL     1      28.304  40.799  47.308  1.00  0.00     0.239 C 
HETATM   11  C   UNL     1      28.046  41.015  45.825  1.00  0.00     0.071 C 
HETATM   12  C   UNL     1      26.873  40.157  45.310  1.00  0.00     0.088 C 
HETATM   13  C   UNL     1      25.641  40.630  46.106  1.00  0.00     0.071 C 
HETATM   14  C   UNL     1      25.809  40.386  47.593  1.00  0.00     0.239 C 
BRANCH  12  15
HETATM   15  O   UNL     1      26.651  40.534  43.952  1.00  0.00    -0.385 OA
HETATM   16  H   UNL     1      27.265  41.249  43.702  1.00  0.00     0.211 HD
ENDBRANCH  12  15
BRANCH  12  17
HETATM   17  C   UNL     1      27.110  38.642  45.354  1.00  0.00    -0.024 A 
HETATM   18  C   UNL     1      26.043  37.728  45.256  1.00  0.00     0.011 A 
HETATM   19  C   UNL     1      26.250  36.346  45.350  1.00  0.00     0.020 A 
HETATM   20  C   UNL     1      27.537  35.850  45.508  1.00  0.00     0.011 A 
HETATM   21 BR   UNL     1      27.818  33.989  45.659  1.00  0.00    -0.051 Br
HETATM   22  C   UNL     1      28.619  36.720  45.542  1.00  0.00     0.020 A 
HETATM   23  C   UNL     1      28.407  38.102  45.450  1.00  0.00     0.011 A 
ENDBRANCH  12  17
ENDBRANCH   4   8
BRANCH   1  24
HETATM   24  C   UNL     1      28.550  42.491  52.674  1.00  0.00     0.045 A 
HETATM   25  C   UNL     1      29.868  42.778  53.066  1.00  0.00     0.031 A 
HETATM   26  C   UNL     1      30.139  43.677  54.110  1.00  0.00     0.020 A 
HETATM   27  C   UNL     1      29.096  44.301  54.801  1.00  0.00     0.039 A 
HETATM   28  C   UNL     1      27.782  43.974  54.468  1.00  0.00     0.020 A 
HETATM   29  C   UNL     1      27.517  43.082  53.419  1.00  0.00     0.031 A 
BRANCH  27  30
HETATM   30  C   UNL     1      29.431  45.330  55.822  1.00  0.00     0.293 C 
HETATM   31  O   UNL     1      28.614  46.118  56.268  1.00  0.00    -0.259 OA
BRANCH  30  32
HETATM   32  O   UNL     1      30.723  45.199  56.209  1.00  0.00    -0.318 OA
BRANCH  32  33
HETATM   33  C   UNL     1      30.948  44.518  57.453  1.00  0.00     0.174 C 
HETATM   34  C   UNL     1      31.932  43.385  57.230  1.00  0.00     0.034 C 
ENDBRANCH  32  33
ENDBRANCH  30  32
ENDBRANCH  27  30
ENDBRANCH   1  24
TORSDOF 7
ENDMDL
MODEL 4
REMARK VINA RESULT:      -8.1      6.959      9.911
REMARK  7 active torsions:
REMARK  status: ('A' for Active; 'I' for Inactive)
REMARK    1  A    between atoms: C_2  and  O_3 
REMARK    2  A    between atoms: O_3  and  C_4 
REMARK    3  A    between atoms: C_4  and  C_5 
REMARK    4  A    between atoms: C_8  and  N_9 
REMARK    5  A    between atoms: C_12  and  N_13 
REMARK    6  A    between atoms: C_17  and  O_18 
REMARK    7  A    between atoms: C_17  and  C_19 
ROOT
HETATM    1  N   UNL     1      27.593  42.772  51.330  1.00  0.00    -0.251 N 
HETATM    2  C   UNL     1      27.997  41.466  51.179  1.00  0.00     0.262 C 
HETATM    3  O   UNL     1      28.318  40.620  52.001  1.00  0.00    -0.270 OA
HETATM    4  C   UNL     1      27.978  41.154  49.701  1.00  0.00     0.289 C 
HETATM    5  C   UNL     1      26.988  42.145  49.144  1.00  0.00     0.146 C 
HETATM    6  C   UNL     1      27.072  43.258  50.147  1.00  0.00     0.233 C 
HETATM    7  O   UNL     1      26.704  44.386  49.858  1.00  0.00    -0.273 OA
ENDROOT
BRANCH   4   8
HETATM    8  N   UNL     1      27.688  39.685  49.337  1.00  0.00    -0.058 N 
HETATM    9  H   UNL     1      27.362  39.270  50.228  1.00  0.00     0.281 HD
HETATM   10  C   UNL     1      26.534  39.471  48.379  1.00  0.00     0.239 C 
HETATM   11  C   UNL     1      26.351  37.991  48.078  1.00  0.00     0.071 C 
HETATM   12  C   UNL     1      27.640  37.349  47.526  1.00  0.00     0.088 C 
HETATM   13  C   UNL     1      28.686  37.506  48.646  1.00  0.00     0.071 C 
HETATM   14  C   UNL     1      28.960  38.966  48.954  1.00  0.00     0.239 C 
BRANCH  12  15
HETATM   15  O   UNL     1      27.383  35.951  47.401  1.00  0.00    -0.385 OA
HETATM   16  H   UNL     1      27.282  35.716  46.460  1.00  0.00     0.211 HD
ENDBRANCH  12  15
BRANCH  12  17
HETATM   17  C   UNL     1      28.092  37.877  46.158  1.00  0.00    -0.024 A 
HETATM   18  C   UNL     1      29.085  37.216  45.408  1.00  0.00     0.011 A 
HETATM   19  C   UNL     1      29.538  37.725  44.185  1.00  0.00     0.020 A 
HETATM   20  C   UNL     1      28.982  38.888  43.672  1.00  0.00     0.011 A 
HETATM   21 BR   UNL     1      29.608  39.590  42.034  1.00  0.00    -0.051 Br
HETATM   22  C   UNL     1      27.956  39.529  44.354  1.00  0.00     0.020 A 
HETATM   23  C   UNL     1      27.506  39.018  45.578  1.00  0.00     0.011 A 
ENDBRANCH  12  17
ENDBRANCH   4   8
BRANCH   1  24
HETATM   24  C   UNL     1      27.757  43.547  52.519  1.00  0.00     0.045 A 
HETATM   25  C   UNL     1      28.986  43.595  53.197  1.00  0.00     0.031 A 
HETATM   26  C   UNL     1      29.184  44.459  54.285  1.00  0.00     0.020 A 
HETATM   27  C   UNL     1      28.152  45.287  54.734  1.00  0.00     0.039 A 
HETATM   28  C   UNL     1      26.906  45.202  54.114  1.00  0.00     0.020 A 
HETATM   29  C   UNL     1      26.715  44.343  53.022  1.00  0.00     0.031 A 
BRANCH  27  30
HETATM   30  C   UNL     1      28.442  46.267  55.817  1.00  0.00     0.293 C 
HETATM   31  O   UNL     1      27.652  47.127  56.166  1.00  0.00    -0.259 OA
BRANCH  30  32
HETATM   32  O   UNL     1      29.650  46.004  56.372  1.00  0.00    -0.318 OA
BRANCH  32  33
HETATM   33  C   UNL     1      29.692  45.953  57.806  1.00  0.00     0.174 C 
HETATM   34  C   UNL     1      30.819  45.034  58.239  1.00  0.00     0.034 C 
ENDBRANCH  32  33
ENDBRANCH  30  32
ENDBRANCH  27  30
ENDBRANCH   1  24
TORSDOF 7
ENDMDL
MODEL 5
REMARK VINA RESULT:      -8.1      2.809      3.913
REMARK  7 active torsions:
REMARK  status: ('A' for Active; 'I' for Inactive)
REMARK    1  A    between atoms: C_2  and  O_3 
REMARK    2  A    between atoms: O_3  and  C_4 
REMARK    3  A    between atoms: C_4  and  C_5 
REMARK    4  A    between atoms: C_8  and  N_9 
REMARK    5  A    between atoms: C_12  and  N_13 
REMARK    6  A    between atoms: C_17  and  O_18 
REMARK    7  A    between atoms: C_17  and  C_19 
ROOT
HETATM    1  N   UNL     1      22.352  47.348  48.877  1.00  0.00    -0.251 N 
HETATM    2  C   UNL     1      23.551  47.340  49.553  1.00  0.00     0.262 C 
HETATM    3  O   UNL     1      24.023  48.119  50.367  1.00  0.00    -0.270 OA
HETATM    4  C   UNL     1      24.299  46.096  49.134  1.00  0.00     0.289 C 
HETATM    5  C   UNL     1      23.206  45.164  48.678  1.00  0.00     0.146 C 
HETATM    6  C   UNL     1      22.132  46.128  48.267  1.00  0.00     0.233 C 
HETATM    7  O   UNL     1      21.241  45.781  47.507  1.00  0.00    -0.273 OA
ENDROOT
BRANCH   4   8
HETATM    8  N   UNL     1      25.247  45.503  50.194  1.00  0.00    -0.058 N 
HETATM    9  H   UNL     1      25.403  46.288  50.852  1.00  0.00     0.281 HD
HETATM   10  C   UNL     1      24.651  44.406  51.053  1.00  0.00     0.239 C 
HETATM   11  C   UNL     1      25.677  43.885  52.049  1.00  0.00     0.071 C 
HETATM   12  C   UNL     1      26.961  43.391  51.352  1.00  0.00     0.088 C 
HETATM   13  C   UNL     1      27.540  44.628  50.638  1.00  0.00     0.071 C 
HETATM   14  C   UNL     1      26.587  45.162  49.586  1.00  0.00     0.239 C 
BRANCH  12  15
HETATM   15  O   UNL     1      27.884  43.047  52.384  1.00  0.00    -0.385 OA
HETATM   16  H   UNL     1      28.320  42.201  52.170  1.00  0.00     0.211 HD
ENDBRANCH  12  15
BRANCH  12  17
HETATM   17  C   UNL     1      26.776  42.166  50.446  1.00  0.00    -0.024 A 
HETATM   18  C   UNL     1      26.379  40.920  50.969  1.00  0.00     0.011 A 
HETATM   19  C   UNL     1      26.262  39.788  50.154  1.00  0.00     0.020 A 
HETATM   20  C   UNL     1      26.507  39.889  48.791  1.00  0.00     0.011 A 
HETATM   21 BR   UNL     1      26.372  38.359  47.692  1.00  0.00    -0.051 Br
HETATM   22  C   UNL     1      26.836  41.118  48.233  1.00  0.00     0.020 A 
HETATM   23  C   UNL     1      26.954  42.248  49.052  1.00  0.00     0.011 A 
ENDBRANCH  12  17
ENDBRANCH   4   8
BRANCH   1  24
HETATM   24  C   UNL     1      21.490  48.479  48.755  1.00  0.00     0.045 A 
HETATM   25  C   UNL     1      20.234  48.512  49.383  1.00  0.00     0.031 A 
HETATM   26  C   UNL     1      19.446  49.674  49.374  1.00  0.00     0.020 A 
HETATM   27  C   UNL     1      19.886  50.829  48.723  1.00  0.00     0.039 A 
HETATM   28  C   UNL     1      21.101  50.790  48.038  1.00  0.00     0.020 A 
HETATM   29  C   UNL     1      21.888  49.630  48.056  1.00  0.00     0.031 A 
BRANCH  27  30
HETATM   30  C   UNL     1      19.070  52.068  48.836  1.00  0.00     0.293 C 
HETATM   31  O   UNL     1      19.082  52.953  47.997  1.00  0.00    -0.259 OA
BRANCH  30  32
HETATM   32  O   UNL     1      18.293  52.015  49.945  1.00  0.00    -0.318 OA
BRANCH  32  33
HETATM   33  C   UNL     1      16.875  51.970  49.723  1.00  0.00     0.174 C 
HETATM   34  C   UNL     1      16.266  53.302  50.125  1.00  0.00     0.034 C 
ENDBRANCH  32  33
ENDBRANCH  30  32
ENDBRANCH  27  30
ENDBRANCH   1  24
TORSDOF 7
ENDMDL
MODEL 6
REMARK VINA RESULT:      -8.1      6.696     10.339
REMARK  7 active torsions:
REMARK  status: ('A' for Active; 'I' for Inactive)
REMARK    1  A    between atoms: C_2  and  O_3 
REMARK    2  A    between atoms: O_3  and  C_4 
REMARK    3  A    between atoms: C_4  and  C_5 
REMARK    4  A    between atoms: C_8  and  N_9 
REMARK    5  A    between atoms: C_12  and  N_13 
REMARK    6  A    between atoms: C_17  and  O_18 
REMARK    7  A    between atoms: C_17  and  C_19 
ROOT
HETATM    1  N   UNL     1      27.727  43.111  51.447  1.00  0.00    -0.251 N 
HETATM    2  C   UNL     1      27.760  41.968  50.681  1.00  0.00     0.262 C 
HETATM    3  O   UNL     1      28.119  40.830  50.944  1.00  0.00    -0.270 OA
HETATM    4  C   UNL     1      27.217  42.322  49.316  1.00  0.00     0.289 C 
HETATM    5  C   UNL     1      26.354  43.529  49.582  1.00  0.00     0.146 C 
HETATM    6  C   UNL     1      26.990  44.095  50.817  1.00  0.00     0.233 C 
HETATM    7  O   UNL     1      26.815  45.263  51.129  1.00  0.00    -0.273 OA
ENDROOT
BRANCH   4   8
HETATM    8  N   UNL     1      26.506  41.178  48.568  1.00  0.00    -0.058 N 
HETATM    9  H   UNL     1      26.232  40.524  49.322  1.00  0.00     0.281 HD
HETATM   10  C   UNL     1      25.198  41.554  47.902  1.00  0.00     0.239 C 
HETATM   11  C   UNL     1      24.597  40.357  47.183  1.00  0.00     0.071 C 
HETATM   12  C   UNL     1      25.572  39.749  46.155  1.00  0.00     0.088 C 
HETATM   13  C   UNL     1      26.789  39.280  46.975  1.00  0.00     0.071 C 
HETATM   14  C   UNL     1      27.474  40.440  47.672  1.00  0.00     0.239 C 
BRANCH  12  15
HETATM   15  O   UNL     1      24.950  38.573  45.640  1.00  0.00    -0.385 OA
HETATM   16  H   UNL     1      25.521  37.799  45.798  1.00  0.00     0.211 HD
ENDBRANCH  12  15
BRANCH  12  17
HETATM   17  C   UNL     1      25.920  40.663  44.972  1.00  0.00    -0.024 A 
HETATM   18  C   UNL     1      24.968  41.541  44.418  1.00  0.00     0.011 A 
HETATM   19  C   UNL     1      25.266  42.337  43.305  1.00  0.00     0.020 A 
HETATM   20  C   UNL     1      26.536  42.297  42.747  1.00  0.00     0.011 A 
HETATM   21 BR   UNL     1      26.935  43.351  41.233  1.00  0.00    -0.051 Br
HETATM   22  C   UNL     1      27.518  41.492  43.310  1.00  0.00     0.020 A 
HETATM   23  C   UNL     1      27.216  40.695  44.422  1.00  0.00     0.011 A 
ENDBRANCH  12  17
ENDBRANCH   4   8
BRANCH   1  24
HETATM   24  C   UNL     1      28.418  43.286  52.684  1.00  0.00     0.045 A 
HETATM   25  C   UNL     1      29.721  42.794  52.870  1.00  0.00     0.031 A 
HETATM   26  C   UNL     1      30.449  43.082  54.035  1.00  0.00     0.020 A 
HETATM   27  C   UNL     1      29.887  43.858  55.053  1.00  0.00     0.039 A 
HETATM   28  C   UNL     1      28.571  44.297  54.912  1.00  0.00     0.020 A 
HETATM   29  C   UNL     1      27.850  44.013  53.743  1.00  0.00     0.031 A 
BRANCH  27  30
HETATM   30  C   UNL     1      30.735  44.232  56.217  1.00  0.00     0.293 C 
HETATM   31  O   UNL     1      31.505  43.455  56.758  1.00  0.00    -0.259 OA
BRANCH  30  32
HETATM   32  O   UNL     1      30.569  45.543  56.513  1.00  0.00    -0.318 OA
BRANCH  32  33
HETATM   33  C   UNL     1      30.240  45.849  57.877  1.00  0.00     0.174 C 
HETATM   34  C   UNL     1      28.756  46.152  57.976  1.00  0.00     0.034 C 
ENDBRANCH  32  33
ENDBRANCH  30  32
ENDBRANCH  27  30
ENDBRANCH   1  24
TORSDOF 7
ENDMDL
MODEL 7
REMARK VINA RESULT:      -8.0      4.909      9.835
REMARK  7 active torsions:
REMARK  status: ('A' for Active; 'I' for Inactive)
REMARK    1  A    between atoms: C_2  and  O_3 
REMARK    2  A    between atoms: O_3  and  C_4 
REMARK    3  A    between atoms: C_4  and  C_5 
REMARK    4  A    between atoms: C_8  and  N_9 
REMARK    5  A    between atoms: C_12  and  N_13 
REMARK    6  A    between atoms: C_17  and  O_18 
REMARK    7  A    between atoms: C_17  and  C_19 
ROOT
HETATM    1  N   UNL     1      25.461  45.712  51.508  1.00  0.00    -0.251 N 
HETATM    2  C   UNL     1      24.746  44.695  50.919  1.00  0.00     0.262 C 
HETATM    3  O   UNL     1      24.399  43.602  51.342  1.00  0.00    -0.270 OA
HETATM    4  C   UNL     1      24.379  45.147  49.525  1.00  0.00     0.289 C 
HETATM    5  C   UNL     1      24.413  46.650  49.621  1.00  0.00     0.146 C 
HETATM    6  C   UNL     1      25.378  46.864  50.750  1.00  0.00     0.233 C 
HETATM    7  O   UNL     1      25.948  47.935  50.888  1.00  0.00    -0.273 OA
ENDROOT
BRANCH   4   8
HETATM    8  N   UNL     1      23.065  44.570  48.964  1.00  0.00    -0.058 N 
HETATM    9  H   UNL     1      22.569  44.225  49.805  1.00  0.00     0.281 HD
HETATM   10  C   UNL     1      22.118  45.585  48.358  1.00  0.00     0.239 C 
HETATM   11  C   UNL     1      20.868  44.904  47.824  1.00  0.00     0.071 C 
HETATM   12  C   UNL     1      21.202  43.799  46.802  1.00  0.00     0.088 C 
HETATM   13  C   UNL     1      22.042  42.766  47.578  1.00  0.00     0.071 C 
HETATM   14  C   UNL     1      23.337  43.369  48.088  1.00  0.00     0.239 C 
BRANCH  12  15
HETATM   15  O   UNL     1      19.972  43.157  46.470  1.00  0.00    -0.385 OA
HETATM   16  H   UNL     1      19.269  43.454  47.078  1.00  0.00     0.211 HD
ENDBRANCH  12  15
BRANCH  12  17
HETATM   17  C   UNL     1      21.851  44.294  45.502  1.00  0.00    -0.024 A 
HETATM   18  C   UNL     1      23.104  43.810  45.076  1.00  0.00     0.011 A 
HETATM   19  C   UNL     1      23.723  44.299  43.919  1.00  0.00     0.020 A 
HETATM   20  C   UNL     1      23.083  45.257  43.146  1.00  0.00     0.011 A 
HETATM   21 BR   UNL     1      23.925  45.936  41.598  1.00  0.00    -0.051 Br
HETATM   22  C   UNL     1      21.818  45.707  43.502  1.00  0.00     0.020 A 
HETATM   23  C   UNL     1      21.203  45.218  44.660  1.00  0.00     0.011 A 
ENDBRANCH  12  17
ENDBRANCH   4   8
BRANCH   1  24
HETATM   24  C   UNL     1      26.243  45.581  52.695  1.00  0.00     0.045 A 
HETATM   25  C   UNL     1      27.291  44.650  52.782  1.00  0.00     0.031 A 
HETATM   26  C   UNL     1      28.143  44.614  53.896  1.00  0.00     0.020 A 
HETATM   27  C   UNL     1      27.960  45.499  54.962  1.00  0.00     0.039 A 
HETATM   28  C   UNL     1      26.883  46.384  54.921  1.00  0.00     0.020 A 
HETATM   29  C   UNL     1      26.039  46.422  53.802  1.00  0.00     0.031 A 
BRANCH  27  30
HETATM   30  C   UNL     1      28.955  45.500  56.069  1.00  0.00     0.293 C 
HETATM   31  O   UNL     1      28.811  46.144  57.095  1.00  0.00    -0.259 OA
BRANCH  30  32
HETATM   32  O   UNL     1      29.967  44.644  55.787  1.00  0.00    -0.318 OA
BRANCH  32  33
HETATM   33  C   UNL     1      31.108  44.703  56.656  1.00  0.00     0.174 C 
HETATM   34  C   UNL     1      31.391  43.315  57.202  1.00  0.00     0.034 C 
ENDBRANCH  32  33
ENDBRANCH  30  32
ENDBRANCH  27  30
ENDBRANCH   1  24
TORSDOF 7
ENDMDL
MODEL 8
REMARK VINA RESULT:      -8.0      4.498     11.716
REMARK  7 active torsions:
REMARK  status: ('A' for Active; 'I' for Inactive)
REMARK    1  A    between atoms: C_2  and  O_3 
REMARK    2  A    between atoms: O_3  and  C_4 
REMARK    3  A    between atoms: C_4  and  C_5 
REMARK    4  A    between atoms: C_8  and  N_9 
REMARK    5  A    between atoms: C_12  and  N_13 
REMARK    6  A    between atoms: C_17  and  O_18 
REMARK    7  A    between atoms: C_17  and  C_19 
ROOT
HETATM    1  N   UNL     1      21.709  50.112  48.961  1.00  0.00    -0.251 N 
HETATM    2  C   UNL     1      20.839  50.145  47.895  1.00  0.00     0.262 C 
HETATM    3  O   UNL     1      20.776  49.462  46.884  1.00  0.00    -0.270 OA
HETATM    4  C   UNL     1      19.838  51.245  48.160  1.00  0.00     0.289 C 
HETATM    5  C   UNL     1      19.856  51.383  49.661  1.00  0.00     0.146 C 
HETATM    6  C   UNL     1      21.233  50.890  49.998  1.00  0.00     0.233 C 
HETATM    7  O   UNL     1      21.759  51.188  51.059  1.00  0.00    -0.273 OA
ENDROOT
BRANCH   4   8
HETATM    8  N   UNL     1      18.438  51.029  47.554  1.00  0.00    -0.058 N 
HETATM    9  H   UNL     1      18.590  50.294  46.839  1.00  0.00     0.281 HD
HETATM   10  C   UNL     1      17.410  50.433  48.493  1.00  0.00     0.239 C 
HETATM   11  C   UNL     1      16.067  50.281  47.795  1.00  0.00     0.071 C 
HETATM   12  C   UNL     1      15.561  51.618  47.216  1.00  0.00     0.088 C 
HETATM   13  C   UNL     1      16.619  52.040  46.178  1.00  0.00     0.071 C 
HETATM   14  C   UNL     1      17.974  52.267  46.823  1.00  0.00     0.239 C 
BRANCH  12  15
HETATM   15  O   UNL     1      14.369  51.327  46.488  1.00  0.00    -0.385 OA
HETATM   16  H   UNL     1      14.192  52.039  45.845  1.00  0.00     0.211 HD
ENDBRANCH  12  15
BRANCH  12  17
HETATM   17  C   UNL     1      15.235  52.694  48.261  1.00  0.00    -0.024 A 
HETATM   18  C   UNL     1      14.573  53.886  47.905  1.00  0.00     0.011 A 
HETATM   19  C   UNL     1      14.322  54.892  48.845  1.00  0.00     0.020 A 
HETATM   20  C   UNL     1      14.698  54.711  50.169  1.00  0.00     0.011 A 
HETATM   21 BR   UNL     1      14.382  56.076  51.434  1.00  0.00    -0.051 Br
HETATM   22  C   UNL     1      15.293  53.521  50.566  1.00  0.00     0.020 A 
HETATM   23  C   UNL     1      15.544  52.517  49.623  1.00  0.00     0.011 A 
ENDBRANCH  12  17
ENDBRANCH   4   8
BRANCH   1  24
HETATM   24  C   UNL     1      22.965  49.433  48.971  1.00  0.00     0.045 A 
HETATM   25  C   UNL     1      24.150  50.083  48.591  1.00  0.00     0.031 A 
HETATM   26  C   UNL     1      25.400  49.458  48.729  1.00  0.00     0.020 A 
HETATM   27  C   UNL     1      25.495  48.160  49.237  1.00  0.00     0.039 A 
HETATM   28  C   UNL     1      24.321  47.477  49.555  1.00  0.00     0.020 A 
HETATM   29  C   UNL     1      23.076  48.108  49.423  1.00  0.00     0.031 A 
BRANCH  27  30
HETATM   30  C   UNL     1      26.846  47.582  49.471  1.00  0.00     0.293 C 
HETATM   31  O   UNL     1      27.859  48.023  48.953  1.00  0.00    -0.259 OA
BRANCH  30  32
HETATM   32  O   UNL     1      26.772  46.573  50.373  1.00  0.00    -0.318 OA
BRANCH  32  33
HETATM   33  C   UNL     1      27.155  45.272  49.903  1.00  0.00     0.174 C 
HETATM   34  C   UNL     1      26.891  44.251  50.994  1.00  0.00     0.034 C 
ENDBRANCH  32  33
ENDBRANCH  30  32
ENDBRANCH  27  30
ENDBRANCH   1  24
TORSDOF 7
ENDMDL
MODEL 9
REMARK VINA RESULT:      -8.0     11.615     15.117
REMARK  7 active torsions:
REMARK  status: ('A' for Active; 'I' for Inactive)
REMARK    1  A    between atoms: C_2  and  O_3 
REMARK    2  A    between atoms: O_3  and  C_4 
REMARK    3  A    between atoms: C_4  and  C_5 
REMARK    4  A    between atoms: C_8  and  N_9 
REMARK    5  A    between atoms: C_12  and  N_13 
REMARK    6  A    between atoms: C_17  and  O_18 
REMARK    7  A    between atoms: C_17  and  C_19 
ROOT
HETATM    1  N   UNL     1      33.433  50.885  41.801  1.00  0.00    -0.251 N 
HETATM    2  C   UNL     1      32.182  51.443  41.668  1.00  0.00     0.262 C 
HETATM    3  O   UNL     1      31.800  52.599  41.767  1.00  0.00    -0.270 OA
HETATM    4  C   UNL     1      31.223  50.327  41.326  1.00  0.00     0.289 C 
HETATM    5  C   UNL     1      32.108  49.278  40.705  1.00  0.00     0.146 C 
HETATM    6  C   UNL     1      33.435  49.584  41.335  1.00  0.00     0.233 C 
HETATM    7  O   UNL     1      34.317  48.740  41.372  1.00  0.00    -0.273 OA
ENDROOT
BRANCH   4   8
HETATM    8  N   UNL     1      30.011  50.735  40.466  1.00  0.00    -0.058 N 
HETATM    9  H   UNL     1      30.173  51.739  40.272  1.00  0.00     0.281 HD
HETATM   10  C   UNL     1      29.945  50.093  39.095  1.00  0.00     0.239 C 
HETATM   11  C   UNL     1      28.705  50.553  38.345  1.00  0.00     0.071 C 
HETATM   12  C   UNL     1      27.412  50.273  39.137  1.00  0.00     0.088 C 
HETATM   13  C   UNL     1      27.543  51.092  40.435  1.00  0.00     0.071 C 
HETATM   14  C   UNL     1      28.731  50.640  41.263  1.00  0.00     0.239 C 
BRANCH  12  15
HETATM   15  O   UNL     1      26.339  50.852  38.395  1.00  0.00    -0.385 OA
HETATM   16  H   UNL     1      25.488  50.634  38.818  1.00  0.00     0.211 HD
ENDBRANCH  12  15
BRANCH  12  17
HETATM   17  C   UNL     1      27.095  48.787  39.355  1.00  0.00    -0.024 A 
HETATM   18  C   UNL     1      26.381  48.347  40.488  1.00  0.00     0.011 A 
HETATM   19  C   UNL     1      26.138  46.987  40.717  1.00  0.00     0.020 A 
HETATM   20  C   UNL     1      26.573  46.043  39.797  1.00  0.00     0.011 A 
HETATM   21 BR   UNL     1      26.267  44.207  40.115  1.00  0.00    -0.051 Br
HETATM   22  C   UNL     1      27.221  46.448  38.638  1.00  0.00     0.020 A 
HETATM   23  C   UNL     1      27.465  47.808  38.413  1.00  0.00     0.011 A 
ENDBRANCH  12  17
ENDBRANCH   4   8
BRANCH   1  24
HETATM   24  C   UNL     1      34.556  51.528  42.405  1.00  0.00     0.045 A 
HETATM   25  C   UNL     1      34.529  51.937  43.749  1.00  0.00     0.031 A 
HETATM   26  C   UNL     1      35.675  52.446  44.379  1.00  0.00     0.020 A 
HETATM   27  C   UNL     1      36.876  52.574  43.677  1.00  0.00     0.039 A 
HETATM   28  C   UNL     1      36.901  52.235  42.324  1.00  0.00     0.020 A 
HETATM   29  C   UNL     1      35.755  51.720  41.701  1.00  0.00     0.031 A 
BRANCH  27  30
HETATM   30  C   UNL     1      38.092  53.011  44.415  1.00  0.00     0.293 C 
HETATM   31  O   UNL     1      38.831  53.897  44.018  1.00  0.00    -0.259 OA
BRANCH  30  32
HETATM   32  O   UNL     1      38.194  52.337  45.586  1.00  0.00    -0.318 OA
BRANCH  32  33
HETATM   33  C   UNL     1      39.146  52.849  46.532  1.00  0.00     0.174 C 
HETATM   34  C   UNL     1      38.415  53.665  47.582  1.00  0.00     0.034 C 
ENDBRANCH  32  33
ENDBRANCH  30  32
ENDBRANCH  27  30
ENDBRANCH   1  24
TORSDOF 7
ENDMDL
MODEL 10
REMARK VINA RESULT:      -8.0     11.064     14.577
REMARK  7 active torsions:
REMARK  status: ('A' for Active; 'I' for Inactive)
REMARK    1  A    between atoms: C_2  and  O_3 
REMARK    2  A    between atoms: O_3  and  C_4 
REMARK    3  A    between atoms: C_4  and  C_5 
REMARK    4  A    between atoms: C_8  and  N_9 
REMARK    5  A    between atoms: C_12  and  N_13 
REMARK    6  A    between atoms: C_17  and  O_18 
REMARK    7  A    between atoms: C_17  and  C_19 
ROOT
HETATM    1  N   UNL     1      31.620  50.140  42.085  1.00  0.00    -0.251 N 
HETATM    2  C   UNL     1      30.882  50.709  41.072  1.00  0.00     0.262 C 
HETATM    3  O   UNL     1      31.164  51.573  40.256  1.00  0.00    -0.270 OA
HETATM    4  C   UNL     1      29.524  50.048  41.075  1.00  0.00     0.289 C 
HETATM    5  C   UNL     1      29.782  48.714  41.728  1.00  0.00     0.146 C 
HETATM    6  C   UNL     1      30.985  49.014  42.573  1.00  0.00     0.233 C 
HETATM    7  O   UNL     1      31.272  48.303  43.524  1.00  0.00    -0.273 OA
ENDROOT
BRANCH   4   8
HETATM    8  N   UNL     1      28.824  49.965  39.704  1.00  0.00    -0.058 N 
HETATM    9  H   UNL     1      29.501  50.404  39.055  1.00  0.00     0.281 HD
HETATM   10  C   UNL     1      28.633  48.565  39.158  1.00  0.00     0.239 C 
HETATM   11  C   UNL     1      27.920  48.604  37.815  1.00  0.00     0.071 C 
HETATM   12  C   UNL     1      26.568  49.341  37.898  1.00  0.00     0.088 C 
HETATM   13  C   UNL     1      26.915  50.782  38.323  1.00  0.00     0.071 C 
HETATM   14  C   UNL     1      27.577  50.818  39.687  1.00  0.00     0.239 C 
BRANCH  12  15
HETATM   15  O   UNL     1      26.058  49.419  36.568  1.00  0.00    -0.385 OA
HETATM   16  H   UNL     1      25.724  48.546  36.290  1.00  0.00     0.211 HD
ENDBRANCH  12  15
BRANCH  12  17
HETATM   17  C   UNL     1      25.512  48.659  38.778  1.00  0.00    -0.024 A 
HETATM   18  C   UNL     1      25.754  47.409  39.381  1.00  0.00     0.011 A 
HETATM   19  C   UNL     1      24.773  46.760  40.140  1.00  0.00     0.020 A 
HETATM   20  C   UNL     1      23.540  47.366  40.339  1.00  0.00     0.011 A 
HETATM   21 BR   UNL     1      22.206  46.482  41.341  1.00  0.00    -0.051 Br
HETATM   22  C   UNL     1      23.291  48.627  39.813  1.00  0.00     0.020 A 
HETATM   23  C   UNL     1      24.275  49.273  39.054  1.00  0.00     0.011 A 
ENDBRANCH  12  17
ENDBRANCH   4   8
BRANCH   1  24
HETATM   24  C   UNL     1      32.833  50.676  42.614  1.00  0.00     0.045 A 
HETATM   25  C   UNL     1      34.063  50.482  41.963  1.00  0.00     0.031 A 
HETATM   26  C   UNL     1      35.231  51.120  42.408  1.00  0.00     0.020 A 
HETATM   27  C   UNL     1      35.204  51.957  43.527  1.00  0.00     0.039 A 
HETATM   28  C   UNL     1      34.004  52.105  44.224  1.00  0.00     0.020 A 
HETATM   29  C   UNL     1      32.838  51.472  43.770  1.00  0.00     0.031 A 
BRANCH  27  30
HETATM   30  C   UNL     1      36.440  52.699  43.894  1.00  0.00     0.293 C 
HETATM   31  O   UNL     1      36.827  53.688  43.294  1.00  0.00    -0.259 OA
BRANCH  30  32
HETATM   32  O   UNL     1      36.997  52.157  45.004  1.00  0.00    -0.318 OA
BRANCH  32  33
HETATM   33  C   UNL     1      38.317  52.613  45.338  1.00  0.00     0.174 C 
HETATM   34  C   UNL     1      38.239  53.513  46.558  1.00  0.00     0.034 C 
ENDBRANCH  32  33
ENDBRANCH  30  32
ENDBRANCH  27  30
ENDBRANCH   1  24
TORSDOF 7
ENDMDL
