MODEL 1
REMARK VINA RESULT:      -9.8      0.000      0.000
REMARK  6 active torsions:
REMARK  status: ('A' for Active; 'I' for Inactive)
REMARK    1  A    between atoms: O_2  and  C_3 
REMARK    2  A    between atoms: C_6  and  C_7 
REMARK       I    between atoms: C_7  and  N_8 
REMARK    3  A    between atoms: N_8  and  N_9 
REMARK    4  A    between atoms: N_13  and  C_14 
REMARK    5  A    between atoms: C_14  and  C_15 
REMARK    6  A    between atoms: C_15  and  C_16 
ROOT
HETATM    1  N   UNL     1      26.166  44.419  50.099  1.00  0.00    -0.166 NA
HETATM    2  C   UNL     1      26.622  44.283  51.302  1.00  0.00     0.157 A 
HETATM    3  C   UNL     1      26.568  45.277  52.460  1.00  0.00     0.279 A 
HETATM    4  O   UNL     1      26.099  46.394  52.374  1.00  0.00    -0.265 OA
HETATM    5  N   UNL     1      27.146  44.626  53.538  1.00  0.00    -0.311 N 
HETATM    6  C   UNL     1      27.290  43.097  51.817  1.00  0.00     0.027 A 
HETATM    7  C   UNL     1      27.580  43.340  53.160  1.00  0.00     0.050 A 
HETATM    8  C   UNL     1      28.224  42.375  53.911  1.00  0.00     0.031 A 
HETATM    9  C   UNL     1      28.576  41.174  53.278  1.00  0.00     0.002 A 
HETATM   10  C   UNL     1      28.281  40.951  51.919  1.00  0.00     0.001 A 
HETATM   11  C   UNL     1      27.622  41.924  51.168  1.00  0.00     0.016 A 
ENDROOT
BRANCH   1  12
HETATM   12  N   UNL     1      25.575  45.612  49.791  1.00  0.00    -0.242 N 
HETATM   13  C   UNL     1      24.212  45.654  49.541  1.00  0.00     0.271 C 
HETATM   14  O   UNL     1      23.468  44.677  49.602  1.00  0.00    -0.266 OA
HETATM   15  H   UNL     1      26.170  46.432  49.692  1.00  0.00     0.192 HD
BRANCH  13  16
HETATM   16  C   UNL     1      23.636  46.978  49.146  1.00  0.00     0.033 A 
HETATM   17  C   UNL     1      24.196  48.208  49.509  1.00  0.00     0.020 A 
HETATM   18  C   UNL     1      23.601  49.401  49.081  1.00  0.00     0.038 A 
HETATM   19  C   UNL     1      22.446  49.389  48.295  1.00  0.00     0.068 A 
HETATM   20  C   UNL     1      21.872  48.167  47.949  1.00  0.00     0.038 A 
HETATM   21  C   UNL     1      22.464  46.972  48.374  1.00  0.00     0.020 A 
BRANCH  19  22
HETATM   22  O   UNL     1      21.978  50.624  47.941  1.00  0.00    -0.356 OA
HETATM   23  C   UNL     1      20.902  51.147  48.711  1.00  0.00     0.210 C 
ENDBRANCH  19  22
ENDBRANCH  13  16
ENDBRANCH   1  12
BRANCH   5  24
HETATM   24  C   UNL     1      27.308  45.217  54.849  1.00  0.00     0.137 C 
BRANCH  24  25
HETATM   25  C   UNL     1      28.618  46.005  54.975  1.00  0.00     0.059 C 
BRANCH  25  26
HETATM   26  C   UNL     1      29.553  45.388  55.987  1.00  0.00    -0.057 A 
HETATM   27  C   UNL     1      29.634  45.896  57.291  1.00  0.00     0.007 A 
HETATM   28  C   UNL     1      30.517  45.335  58.215  1.00  0.00     0.001 A 
HETATM   29  C   UNL     1      31.322  44.258  57.849  1.00  0.00     0.000 A 
HETATM   30  C   UNL     1      31.241  43.737  56.558  1.00  0.00     0.001 A 
HETATM   31  C   UNL     1      30.362  44.301  55.631  1.00  0.00     0.007 A 
ENDBRANCH  25  26
ENDBRANCH  24  25
ENDBRANCH   5  24
TORSDOF 6
ENDMDL
MODEL 2
REMARK VINA RESULT:      -9.2      3.482      7.275
REMARK  6 active torsions:
REMARK  status: ('A' for Active; 'I' for Inactive)
REMARK    1  A    between atoms: O_2  and  C_3 
REMARK    2  A    between atoms: C_6  and  C_7 
REMARK       I    between atoms: C_7  and  N_8 
REMARK    3  A    between atoms: N_8  and  N_9 
REMARK    4  A    between atoms: N_13  and  C_14 
REMARK    5  A    between atoms: C_14  and  C_15 
REMARK    6  A    between atoms: C_15  and  C_16 
ROOT
HETATM    1  N   UNL     1      30.301  42.376  53.853  1.00  0.00    -0.166 NA
HETATM    2  C   UNL     1      29.899  43.472  54.411  1.00  0.00     0.157 A 
HETATM    3  C   UNL     1      28.901  44.500  53.884  1.00  0.00     0.279 A 
HETATM    4  O   UNL     1      28.364  44.428  52.797  1.00  0.00    -0.265 OA
HETATM    5  N   UNL     1      28.783  45.452  54.884  1.00  0.00    -0.311 N 
HETATM    6  C   UNL     1      30.325  43.953  55.717  1.00  0.00     0.027 A 
HETATM    7  C   UNL     1      29.628  45.136  55.966  1.00  0.00     0.050 A 
HETATM    8  C   UNL     1      29.836  45.823  57.147  1.00  0.00     0.031 A 
HETATM    9  C   UNL     1      30.766  45.300  58.058  1.00  0.00     0.002 A 
HETATM   10  C   UNL     1      31.464  44.109  57.785  1.00  0.00     0.001 A 
HETATM   11  C   UNL     1      31.243  43.414  56.597  1.00  0.00     0.016 A 
ENDROOT
BRANCH   1  12
HETATM   12  N   UNL     1      29.799  42.090  52.614  1.00  0.00    -0.242 N 
HETATM   13  C   UNL     1      28.747  41.196  52.495  1.00  0.00     0.271 C 
HETATM   14  O   UNL     1      28.198  40.643  53.446  1.00  0.00    -0.266 OA
HETATM   15  H   UNL     1      30.258  42.500  51.803  1.00  0.00     0.192 HD
BRANCH  13  16
HETATM   16  C   UNL     1      28.285  40.876  51.107  1.00  0.00     0.033 A 
HETATM   17  C   UNL     1      28.613  39.693  50.433  1.00  0.00     0.020 A 
HETATM   18  C   UNL     1      28.122  39.467  49.141  1.00  0.00     0.038 A 
HETATM   19  C   UNL     1      27.309  40.407  48.503  1.00  0.00     0.068 A 
HETATM   20  C   UNL     1      26.998  41.595  49.162  1.00  0.00     0.038 A 
HETATM   21  C   UNL     1      27.485  41.825  50.454  1.00  0.00     0.020 A 
BRANCH  19  22
HETATM   22  O   UNL     1      26.894  40.052  47.249  1.00  0.00    -0.356 OA
HETATM   23  C   UNL     1      27.756  40.391  46.169  1.00  0.00     0.210 C 
ENDBRANCH  19  22
ENDBRANCH  13  16
ENDBRANCH   1  12
BRANCH   5  24
HETATM   24  C   UNL     1      27.935  46.621  54.793  1.00  0.00     0.137 C 
BRANCH  24  25
HETATM   25  C   UNL     1      26.444  46.266  54.855  1.00  0.00     0.059 C 
BRANCH  25  26
HETATM   26  C   UNL     1      25.834  46.149  53.479  1.00  0.00    -0.057 A 
HETATM   27  C   UNL     1      25.136  44.994  53.100  1.00  0.00     0.007 A 
HETATM   28  C   UNL     1      24.594  44.883  51.818  1.00  0.00     0.001 A 
HETATM   29  C   UNL     1      24.738  45.926  50.906  1.00  0.00     0.000 A 
HETATM   30  C   UNL     1      25.421  47.084  51.275  1.00  0.00     0.001 A 
HETATM   31  C   UNL     1      25.968  47.194  52.555  1.00  0.00     0.007 A 
ENDBRANCH  25  26
ENDBRANCH  24  25
ENDBRANCH   5  24
TORSDOF 6
ENDMDL
MODEL 3
REMARK VINA RESULT:      -9.2      2.162      9.685
REMARK  6 active torsions:
REMARK  status: ('A' for Active; 'I' for Inactive)
REMARK    1  A    between atoms: O_2  and  C_3 
REMARK    2  A    between atoms: C_6  and  C_7 
REMARK       I    between atoms: C_7  and  N_8 
REMARK    3  A    between atoms: N_8  and  N_9 
REMARK    4  A    between atoms: N_13  and  C_14 
REMARK    5  A    between atoms: C_14  and  C_15 
REMARK    6  A    between atoms: C_15  and  C_16 
ROOT
HETATM    1  N   UNL     1      24.285  45.338  49.943  1.00  0.00    -0.166 NA
HETATM    2  C   UNL     1      23.682  46.372  49.453  1.00  0.00     0.157 A 
HETATM    3  C   UNL     1      23.965  47.851  49.710  1.00  0.00     0.279 A 
HETATM    4  O   UNL     1      24.813  48.255  50.480  1.00  0.00    -0.265 OA
HETATM    5  N   UNL     1      23.076  48.546  48.905  1.00  0.00    -0.311 N 
HETATM    6  C   UNL     1      22.578  46.330  48.505  1.00  0.00     0.027 A 
HETATM    7  C   UNL     1      22.250  47.651  48.197  1.00  0.00     0.050 A 
HETATM    8  C   UNL     1      21.223  47.918  47.312  1.00  0.00     0.031 A 
HETATM    9  C   UNL     1      20.532  46.829  46.758  1.00  0.00     0.002 A 
HETATM   10  C   UNL     1      20.872  45.504  47.088  1.00  0.00     0.001 A 
HETATM   11  C   UNL     1      21.916  45.240  47.974  1.00  0.00     0.016 A 
ENDROOT
BRANCH   1  12
HETATM   12  N   UNL     1      25.297  45.571  50.830  1.00  0.00    -0.242 N 
HETATM   13  C   UNL     1      25.233  45.017  52.099  1.00  0.00     0.271 C 
HETATM   14  O   UNL     1      24.323  44.290  52.490  1.00  0.00    -0.266 OA
HETATM   15  H   UNL     1      26.045  46.203  50.551  1.00  0.00     0.192 HD
BRANCH  13  16
HETATM   16  C   UNL     1      26.341  45.363  53.045  1.00  0.00     0.033 A 
HETATM   17  C   UNL     1      26.424  46.581  53.730  1.00  0.00     0.020 A 
HETATM   18  C   UNL     1      27.487  46.816  54.611  1.00  0.00     0.038 A 
HETATM   19  C   UNL     1      28.478  45.852  54.819  1.00  0.00     0.068 A 
HETATM   20  C   UNL     1      28.410  44.647  54.123  1.00  0.00     0.038 A 
HETATM   21  C   UNL     1      27.349  44.407  53.242  1.00  0.00     0.020 A 
BRANCH  19  22
HETATM   22  O   UNL     1      29.450  46.209  55.712  1.00  0.00    -0.356 OA
HETATM   23  C   UNL     1      29.142  46.053  57.092  1.00  0.00     0.210 C 
ENDBRANCH  19  22
ENDBRANCH  13  16
ENDBRANCH   1  12
BRANCH   5  24
HETATM   24  C   UNL     1      22.997  49.990  48.846  1.00  0.00     0.137 C 
BRANCH  24  25
HETATM   25  C   UNL     1      22.197  50.578  50.016  1.00  0.00     0.059 C 
BRANCH  25  26
HETATM   26  C   UNL     1      20.771  50.884  49.626  1.00  0.00    -0.057 A 
HETATM   27  C   UNL     1      20.489  51.717  48.535  1.00  0.00     0.007 A 
HETATM   28  C   UNL     1      19.169  52.015  48.194  1.00  0.00     0.001 A 
HETATM   29  C   UNL     1      18.117  51.478  48.935  1.00  0.00     0.000 A 
HETATM   30  C   UNL     1      18.385  50.639  50.016  1.00  0.00     0.001 A 
HETATM   31  C   UNL     1      19.706  50.345  50.361  1.00  0.00     0.007 A 
ENDBRANCH  25  26
ENDBRANCH  24  25
ENDBRANCH   5  24
TORSDOF 6
ENDMDL
MODEL 4
REMARK VINA RESULT:      -9.2      3.579      6.902
REMARK  6 active torsions:
REMARK  status: ('A' for Active; 'I' for Inactive)
REMARK    1  A    between atoms: O_2  and  C_3 
REMARK    2  A    between atoms: C_6  and  C_7 
REMARK       I    between atoms: C_7  and  N_8 
REMARK    3  A    between atoms: N_8  and  N_9 
REMARK    4  A    between atoms: N_13  and  C_14 
REMARK    5  A    between atoms: C_14  and  C_15 
REMARK    6  A    between atoms: C_15  and  C_16 
ROOT
HETATM    1  N   UNL     1      26.794  43.587  49.517  1.00  0.00    -0.166 NA
HETATM    2  C   UNL     1      27.041  43.736  50.778  1.00  0.00     0.157 A 
HETATM    3  C   UNL     1      27.812  42.808  51.715  1.00  0.00     0.279 A 
HETATM    4  O   UNL     1      28.277  41.739  51.377  1.00  0.00    -0.265 OA
HETATM    5  N   UNL     1      27.834  43.452  52.941  1.00  0.00    -0.311 N 
HETATM    6  C   UNL     1      26.631  44.876  51.584  1.00  0.00     0.027 A 
HETATM    7  C   UNL     1      27.132  44.671  52.870  1.00  0.00     0.050 A 
HETATM    8  C   UNL     1      26.892  45.605  53.861  1.00  0.00     0.031 A 
HETATM    9  C   UNL     1      26.130  46.735  53.529  1.00  0.00     0.002 A 
HETATM   10  C   UNL     1      25.627  46.920  52.227  1.00  0.00     0.001 A 
HETATM   11  C   UNL     1      25.881  45.980  51.229  1.00  0.00     0.016 A 
ENDROOT
BRANCH   1  12
HETATM   12  N   UNL     1      27.251  42.443  48.926  1.00  0.00    -0.242 N 
HETATM   13  C   UNL     1      26.344  41.488  48.495  1.00  0.00     0.271 C 
HETATM   14  O   UNL     1      25.123  41.606  48.582  1.00  0.00    -0.266 OA
HETATM   15  H   UNL     1      28.258  42.297  48.876  1.00  0.00     0.192 HD
BRANCH  13  16
HETATM   16  C   UNL     1      26.909  40.229  47.914  1.00  0.00     0.033 A 
HETATM   17  C   UNL     1      27.207  40.066  46.557  1.00  0.00     0.020 A 
HETATM   18  C   UNL     1      27.751  38.859  46.101  1.00  0.00     0.038 A 
HETATM   19  C   UNL     1      28.000  37.802  46.981  1.00  0.00     0.068 A 
HETATM   20  C   UNL     1      27.684  37.953  48.330  1.00  0.00     0.038 A 
HETATM   21  C   UNL     1      27.142  39.158  48.790  1.00  0.00     0.020 A 
BRANCH  19  22
HETATM   22  O   UNL     1      28.541  36.687  46.403  1.00  0.00    -0.356 OA
HETATM   23  C   UNL     1      29.380  36.893  45.273  1.00  0.00     0.210 C 
ENDBRANCH  19  22
ENDBRANCH  13  16
ENDBRANCH   1  12
BRANCH   5  24
HETATM   24  C   UNL     1      28.463  42.911  54.128  1.00  0.00     0.137 C 
BRANCH  24  25
HETATM   25  C   UNL     1      29.956  43.256  54.205  1.00  0.00     0.059 C 
BRANCH  25  26
HETATM   26  C   UNL     1      30.327  43.856  55.540  1.00  0.00    -0.057 A 
HETATM   27  C   UNL     1      29.777  45.077  55.954  1.00  0.00     0.007 A 
HETATM   28  C   UNL     1      30.143  45.638  57.179  1.00  0.00     0.001 A 
HETATM   29  C   UNL     1      31.055  44.982  58.004  1.00  0.00     0.000 A 
HETATM   30  C   UNL     1      31.601  43.762  57.606  1.00  0.00     0.001 A 
HETATM   31  C   UNL     1      31.240  43.203  56.379  1.00  0.00     0.007 A 
ENDBRANCH  25  26
ENDBRANCH  24  25
ENDBRANCH   5  24
TORSDOF 6
ENDMDL
MODEL 5
REMARK VINA RESULT:      -8.9      2.676      8.294
REMARK  6 active torsions:
REMARK  status: ('A' for Active; 'I' for Inactive)
REMARK    1  A    between atoms: O_2  and  C_3 
REMARK    2  A    between atoms: C_6  and  C_7 
REMARK       I    between atoms: C_7  and  N_8 
REMARK    3  A    between atoms: N_8  and  N_9 
REMARK    4  A    between atoms: N_13  and  C_14 
REMARK    5  A    between atoms: C_14  and  C_15 
REMARK    6  A    between atoms: C_15  and  C_16 
ROOT
HETATM    1  N   UNL     1      26.765  42.275  51.622  1.00  0.00    -0.166 NA
HETATM    2  C   UNL     1      25.956  42.932  50.855  1.00  0.00     0.157 A 
HETATM    3  C   UNL     1      25.570  44.408  50.919  1.00  0.00     0.279 A 
HETATM    4  O   UNL     1      25.967  45.177  51.771  1.00  0.00    -0.265 OA
HETATM    5  N   UNL     1      24.721  44.618  49.845  1.00  0.00    -0.311 N 
HETATM    6  C   UNL     1      25.239  42.374  49.718  1.00  0.00     0.027 A 
HETATM    7  C   UNL     1      24.517  43.417  49.136  1.00  0.00     0.050 A 
HETATM    8  C   UNL     1      23.731  43.176  48.025  1.00  0.00     0.031 A 
HETATM    9  C   UNL     1      23.681  41.865  47.527  1.00  0.00     0.002 A 
HETATM   10  C   UNL     1      24.411  40.825  48.133  1.00  0.00     0.001 A 
HETATM   11  C   UNL     1      25.210  41.076  49.247  1.00  0.00     0.016 A 
ENDROOT
BRANCH   1  12
HETATM   12  N   UNL     1      27.343  42.965  52.650  1.00  0.00    -0.242 N 
HETATM   13  C   UNL     1      28.700  42.816  52.893  1.00  0.00     0.271 C 
HETATM   14  O   UNL     1      29.449  42.110  52.221  1.00  0.00    -0.266 OA
HETATM   15  H   UNL     1      26.742  43.526  53.251  1.00  0.00     0.192 HD
BRANCH  13  16
HETATM   16  C   UNL     1      29.261  43.548  54.073  1.00  0.00     0.033 A 
HETATM   17  C   UNL     1      30.387  43.122  54.787  1.00  0.00     0.020 A 
HETATM   18  C   UNL     1      30.855  43.878  55.868  1.00  0.00     0.038 A 
HETATM   19  C   UNL     1      30.212  45.057  56.257  1.00  0.00     0.068 A 
HETATM   20  C   UNL     1      29.078  45.472  55.563  1.00  0.00     0.038 A 
HETATM   21  C   UNL     1      28.607  44.720  54.480  1.00  0.00     0.020 A 
BRANCH  19  22
HETATM   22  O   UNL     1      30.781  45.698  57.322  1.00  0.00    -0.356 OA
HETATM   23  C   UNL     1      30.125  45.563  58.577  1.00  0.00     0.210 C 
ENDBRANCH  19  22
ENDBRANCH  13  16
ENDBRANCH   1  12
BRANCH   5  24
HETATM   24  C   UNL     1      24.107  45.892  49.534  1.00  0.00     0.137 C 
BRANCH  24  25
HETATM   25  C   UNL     1      24.596  47.015  50.458  1.00  0.00     0.059 C 
BRANCH  25  26
HETATM   26  C   UNL     1      25.351  48.080  49.700  1.00  0.00    -0.057 A 
HETATM   27  C   UNL     1      24.672  48.992  48.880  1.00  0.00     0.007 A 
HETATM   28  C   UNL     1      25.379  49.960  48.163  1.00  0.00     0.001 A 
HETATM   29  C   UNL     1      26.767  50.031  48.265  1.00  0.00     0.000 A 
HETATM   30  C   UNL     1      27.450  49.136  49.086  1.00  0.00     0.001 A 
HETATM   31  C   UNL     1      26.746  48.164  49.799  1.00  0.00     0.007 A 
ENDBRANCH  25  26
ENDBRANCH  24  25
ENDBRANCH   5  24
TORSDOF 6
ENDMDL
MODEL 6
REMARK VINA RESULT:      -8.8      2.237      9.062
REMARK  6 active torsions:
REMARK  status: ('A' for Active; 'I' for Inactive)
REMARK    1  A    between atoms: O_2  and  C_3 
REMARK    2  A    between atoms: C_6  and  C_7 
REMARK       I    between atoms: C_7  and  N_8 
REMARK    3  A    between atoms: N_8  and  N_9 
REMARK    4  A    between atoms: N_13  and  C_14 
REMARK    5  A    between atoms: C_14  and  C_15 
REMARK    6  A    between atoms: C_15  and  C_16 
ROOT
HETATM    1  N   UNL     1      27.243  43.184  50.987  1.00  0.00    -0.166 NA
HETATM    2  C   UNL     1      26.308  43.966  50.554  1.00  0.00     0.157 A 
HETATM    3  C   UNL     1      25.958  45.379  51.015  1.00  0.00     0.279 A 
HETATM    4  O   UNL     1      26.523  45.956  51.922  1.00  0.00    -0.265 OA
HETATM    5  N   UNL     1      24.917  45.791  50.198  1.00  0.00    -0.311 N 
HETATM    6  C   UNL     1      25.375  43.646  49.483  1.00  0.00     0.027 A 
HETATM    7  C   UNL     1      24.565  44.767  49.296  1.00  0.00     0.050 A 
HETATM    8  C   UNL     1      23.574  44.749  48.333  1.00  0.00     0.031 A 
HETATM    9  C   UNL     1      23.413  43.578  47.577  1.00  0.00     0.002 A 
HETATM   10  C   UNL     1      24.235  42.455  47.786  1.00  0.00     0.001 A 
HETATM   11  C   UNL     1      25.240  42.482  48.753  1.00  0.00     0.016 A 
ENDROOT
BRANCH   1  12
HETATM   12  N   UNL     1      28.019  43.651  52.009  1.00  0.00    -0.242 N 
HETATM   13  C   UNL     1      28.190  42.876  53.146  1.00  0.00     0.271 C 
HETATM   14  O   UNL     1      27.703  41.758  53.299  1.00  0.00    -0.266 OA
HETATM   15  H   UNL     1      28.403  44.591  51.931  1.00  0.00     0.192 HD
BRANCH  13  16
HETATM   16  C   UNL     1      28.998  43.471  54.256  1.00  0.00     0.033 A 
HETATM   17  C   UNL     1      30.180  42.903  54.747  1.00  0.00     0.020 A 
HETATM   18  C   UNL     1      30.884  43.537  55.779  1.00  0.00     0.038 A 
HETATM   19  C   UNL     1      30.425  44.733  56.337  1.00  0.00     0.068 A 
HETATM   20  C   UNL     1      29.237  45.290  55.866  1.00  0.00     0.038 A 
HETATM   21  C   UNL     1      28.531  44.661  54.834  1.00  0.00     0.020 A 
BRANCH  19  22
HETATM   22  O   UNL     1      31.214  45.245  57.328  1.00  0.00    -0.356 OA
HETATM   23  C   UNL     1      30.588  46.119  58.260  1.00  0.00     0.210 C 
ENDBRANCH  19  22
ENDBRANCH  13  16
ENDBRANCH   1  12
BRANCH   5  24
HETATM   24  C   UNL     1      24.269  47.081  50.301  1.00  0.00     0.137 C 
BRANCH  24  25
HETATM   25  C   UNL     1      24.744  48.059  49.218  1.00  0.00     0.059 C 
BRANCH  25  26
HETATM   26  C   UNL     1      23.626  48.953  48.737  1.00  0.00    -0.057 A 
HETATM   27  C   UNL     1      23.763  50.348  48.765  1.00  0.00     0.007 A 
HETATM   28  C   UNL     1      22.716  51.169  48.341  1.00  0.00     0.001 A 
HETATM   29  C   UNL     1      21.528  50.606  47.879  1.00  0.00     0.000 A 
HETATM   30  C   UNL     1      21.386  49.220  47.838  1.00  0.00     0.001 A 
HETATM   31  C   UNL     1      22.429  48.397  48.266  1.00  0.00     0.007 A 
ENDBRANCH  25  26
ENDBRANCH  24  25
ENDBRANCH   5  24
TORSDOF 6
ENDMDL
MODEL 7
REMARK VINA RESULT:      -8.7      1.897      5.281
REMARK  6 active torsions:
REMARK  status: ('A' for Active; 'I' for Inactive)
REMARK    1  A    between atoms: O_2  and  C_3 
REMARK    2  A    between atoms: C_6  and  C_7 
REMARK       I    between atoms: C_7  and  N_8 
REMARK    3  A    between atoms: N_8  and  N_9 
REMARK    4  A    between atoms: N_13  and  C_14 
REMARK    5  A    between atoms: C_14  and  C_15 
REMARK    6  A    between atoms: C_15  and  C_16 
ROOT
HETATM    1  N   UNL     1      26.561  46.030  53.625  1.00  0.00    -0.166 NA
HETATM    2  C   UNL     1      27.504  45.148  53.705  1.00  0.00     0.157 A 
HETATM    3  C   UNL     1      27.794  43.975  52.771  1.00  0.00     0.279 A 
HETATM    4  O   UNL     1      27.112  43.691  51.807  1.00  0.00    -0.265 OA
HETATM    5  N   UNL     1      28.938  43.375  53.271  1.00  0.00    -0.311 N 
HETATM    6  C   UNL     1      28.529  45.107  54.738  1.00  0.00     0.027 A 
HETATM    7  C   UNL     1      29.372  44.036  54.437  1.00  0.00     0.050 A 
HETATM    8  C   UNL     1      30.447  43.754  55.259  1.00  0.00     0.031 A 
HETATM    9  C   UNL     1      30.643  44.563  56.388  1.00  0.00     0.002 A 
HETATM   10  C   UNL     1      29.777  45.634  56.678  1.00  0.00     0.001 A 
HETATM   11  C   UNL     1      28.699  45.921  55.840  1.00  0.00     0.016 A 
ENDROOT
BRANCH   1  12
HETATM   12  N   UNL     1      25.680  45.904  52.588  1.00  0.00    -0.242 N 
HETATM   13  C   UNL     1      25.678  46.850  51.575  1.00  0.00     0.271 C 
HETATM   14  O   UNL     1      26.447  47.808  51.523  1.00  0.00    -0.266 OA
HETATM   15  H   UNL     1      25.002  45.145  52.623  1.00  0.00     0.192 HD
BRANCH  13  16
HETATM   16  C   UNL     1      24.646  46.692  50.503  1.00  0.00     0.033 A 
HETATM   17  C   UNL     1      24.007  47.767  49.875  1.00  0.00     0.020 A 
HETATM   18  C   UNL     1      23.064  47.528  48.867  1.00  0.00     0.038 A 
HETATM   19  C   UNL     1      22.742  46.226  48.475  1.00  0.00     0.068 A 
HETATM   20  C   UNL     1      23.359  45.152  49.113  1.00  0.00     0.038 A 
HETATM   21  C   UNL     1      24.303  45.386  50.119  1.00  0.00     0.020 A 
BRANCH  19  22
HETATM   22  O   UNL     1      21.813  46.140  47.474  1.00  0.00    -0.356 OA
HETATM   23  C   UNL     1      20.549  45.586  47.818  1.00  0.00     0.210 C 
ENDBRANCH  19  22
ENDBRANCH  13  16
ENDBRANCH   1  12
BRANCH   5  24
HETATM   24  C   UNL     1      29.562  42.208  52.686  1.00  0.00     0.137 C 
BRANCH  24  25
HETATM   25  C   UNL     1      28.653  40.972  52.740  1.00  0.00     0.059 C 
BRANCH  25  26
HETATM   26  C   UNL     1      28.748  40.148  51.479  1.00  0.00    -0.057 A 
HETATM   27  C   UNL     1      28.061  40.531  50.318  1.00  0.00     0.007 A 
HETATM   28  C   UNL     1      28.134  39.751  49.163  1.00  0.00     0.001 A 
HETATM   29  C   UNL     1      28.898  38.586  49.152  1.00  0.00     0.000 A 
HETATM   30  C   UNL     1      29.594  38.201  50.298  1.00  0.00     0.001 A 
HETATM   31  C   UNL     1      29.518  38.977  51.456  1.00  0.00     0.007 A 
ENDBRANCH  25  26
ENDBRANCH  24  25
ENDBRANCH   5  24
TORSDOF 6
ENDMDL
MODEL 8
REMARK VINA RESULT:      -8.7      3.031      8.802
REMARK  6 active torsions:
REMARK  status: ('A' for Active; 'I' for Inactive)
REMARK    1  A    between atoms: O_2  and  C_3 
REMARK    2  A    between atoms: C_6  and  C_7 
REMARK       I    between atoms: C_7  and  N_8 
REMARK    3  A    between atoms: N_8  and  N_9 
REMARK    4  A    between atoms: N_13  and  C_14 
REMARK    5  A    between atoms: C_14  and  C_15 
REMARK    6  A    between atoms: C_15  and  C_16 
ROOT
HETATM    1  N   UNL     1      28.711  43.253  53.102  1.00  0.00    -0.166 NA
HETATM    2  C   UNL     1      27.943  44.288  52.984  1.00  0.00     0.157 A 
HETATM    3  C   UNL     1      27.030  44.670  51.821  1.00  0.00     0.279 A 
HETATM    4  O   UNL     1      26.941  44.032  50.791  1.00  0.00    -0.265 OA
HETATM    5  N   UNL     1      26.391  45.833  52.216  1.00  0.00    -0.311 N 
HETATM    6  C   UNL     1      27.777  45.328  53.988  1.00  0.00     0.027 A 
HETATM    7  C   UNL     1      26.834  46.230  53.493  1.00  0.00     0.050 A 
HETATM    8  C   UNL     1      26.476  47.334  54.243  1.00  0.00     0.031 A 
HETATM    9  C   UNL     1      27.096  47.512  55.489  1.00  0.00     0.002 A 
HETATM   10  C   UNL     1      28.051  46.596  55.968  1.00  0.00     0.001 A 
HETATM   11  C   UNL     1      28.401  45.477  55.211  1.00  0.00     0.016 A 
ENDROOT
BRANCH   1  12
HETATM   12  N   UNL     1      28.747  42.384  52.048  1.00  0.00    -0.242 N 
HETATM   13  C   UNL     1      28.629  41.023  52.283  1.00  0.00     0.271 C 
HETATM   14  O   UNL     1      28.464  40.525  53.395  1.00  0.00    -0.266 OA
HETATM   15  H   UNL     1      28.924  42.761  51.119  1.00  0.00     0.192 HD
BRANCH  13  16
HETATM   16  C   UNL     1      28.741  40.119  51.095  1.00  0.00     0.033 A 
HETATM   17  C   UNL     1      29.351  38.859  51.132  1.00  0.00     0.020 A 
HETATM   18  C   UNL     1      29.396  38.070  49.976  1.00  0.00     0.038 A 
HETATM   19  C   UNL     1      28.845  38.520  48.773  1.00  0.00     0.068 A 
HETATM   20  C   UNL     1      28.257  39.783  48.727  1.00  0.00     0.038 A 
HETATM   21  C   UNL     1      28.207  40.574  49.880  1.00  0.00     0.020 A 
BRANCH  19  22
HETATM   22  O   UNL     1      28.951  37.645  47.728  1.00  0.00    -0.356 OA
HETATM   23  C   UNL     1      27.769  36.950  47.351  1.00  0.00     0.210 C 
ENDBRANCH  19  22
ENDBRANCH  13  16
ENDBRANCH   1  12
BRANCH   5  24
HETATM   24  C   UNL     1      25.434  46.548  51.399  1.00  0.00     0.137 C 
BRANCH  24  25
HETATM   25  C   UNL     1      26.112  47.419  50.333  1.00  0.00     0.059 C 
BRANCH  25  26
HETATM   26  C   UNL     1      25.112  48.235  49.551  1.00  0.00    -0.057 A 
HETATM   27  C   UNL     1      23.748  47.909  49.572  1.00  0.00     0.007 A 
HETATM   28  C   UNL     1      22.832  48.654  48.827  1.00  0.00     0.001 A 
HETATM   29  C   UNL     1      23.266  49.734  48.061  1.00  0.00     0.000 A 
HETATM   30  C   UNL     1      24.618  50.073  48.041  1.00  0.00     0.001 A 
HETATM   31  C   UNL     1      25.537  49.326  48.781  1.00  0.00     0.007 A 
ENDBRANCH  25  26
ENDBRANCH  24  25
ENDBRANCH   5  24
TORSDOF 6
ENDMDL
MODEL 9
REMARK VINA RESULT:      -8.4      1.482      2.049
REMARK  6 active torsions:
REMARK  status: ('A' for Active; 'I' for Inactive)
REMARK    1  A    between atoms: O_2  and  C_3 
REMARK    2  A    between atoms: C_6  and  C_7 
REMARK       I    between atoms: C_7  and  N_8 
REMARK    3  A    between atoms: N_8  and  N_9 
REMARK    4  A    between atoms: N_13  and  C_14 
REMARK    5  A    between atoms: C_14  and  C_15 
REMARK    6  A    between atoms: C_15  and  C_16 
ROOT
HETATM    1  N   UNL     1      24.967  43.396  48.957  1.00  0.00    -0.166 NA
HETATM    2  C   UNL     1      25.978  43.086  49.702  1.00  0.00     0.157 A 
HETATM    3  C   UNL     1      26.777  43.981  50.647  1.00  0.00     0.279 A 
HETATM    4  O   UNL     1      26.571  45.169  50.790  1.00  0.00    -0.265 OA
HETATM    5  N   UNL     1      27.714  43.152  51.242  1.00  0.00    -0.311 N 
HETATM    6  C   UNL     1      26.569  41.759  49.804  1.00  0.00     0.027 A 
HETATM    7  C   UNL     1      27.600  41.840  50.742  1.00  0.00     0.050 A 
HETATM    8  C   UNL     1      28.347  40.717  51.044  1.00  0.00     0.031 A 
HETATM    9  C   UNL     1      28.040  39.523  50.374  1.00  0.00     0.002 A 
HETATM   10  C   UNL     1      27.001  39.464  49.426  1.00  0.00     0.001 A 
HETATM   11  C   UNL     1      26.244  40.597  49.133  1.00  0.00     0.016 A 
ENDROOT
BRANCH   1  12
HETATM   12  N   UNL     1      24.554  44.698  48.982  1.00  0.00    -0.242 N 
HETATM   13  C   UNL     1      23.204  44.989  48.862  1.00  0.00     0.271 C 
HETATM   14  O   UNL     1      22.321  44.139  48.759  1.00  0.00    -0.266 OA
HETATM   15  H   UNL     1      25.264  45.427  49.025  1.00  0.00     0.192 HD
BRANCH  13  16
HETATM   16  C   UNL     1      22.823  46.436  48.832  1.00  0.00     0.033 A 
HETATM   17  C   UNL     1      23.626  47.461  49.346  1.00  0.00     0.020 A 
HETATM   18  C   UNL     1      23.199  48.792  49.260  1.00  0.00     0.038 A 
HETATM   19  C   UNL     1      21.975  49.121  48.671  1.00  0.00     0.068 A 
HETATM   20  C   UNL     1      21.163  48.101  48.178  1.00  0.00     0.038 A 
HETATM   21  C   UNL     1      21.586  46.770  48.260  1.00  0.00     0.020 A 
BRANCH  19  22
HETATM   22  O   UNL     1      21.689  50.458  48.647  1.00  0.00    -0.356 OA
HETATM   23  C   UNL     1      20.966  50.979  49.755  1.00  0.00     0.210 C 
ENDBRANCH  19  22
ENDBRANCH  13  16
ENDBRANCH   1  12
BRANCH   5  24
HETATM   24  C   UNL     1      28.692  43.601  52.210  1.00  0.00     0.137 C 
BRANCH  24  25
HETATM   25  C   UNL     1      28.048  44.024  53.536  1.00  0.00     0.059 C 
BRANCH  25  26
HETATM   26  C   UNL     1      29.069  44.163  54.640  1.00  0.00    -0.057 A 
HETATM   27  C   UNL     1      29.118  45.320  55.429  1.00  0.00     0.007 A 
HETATM   28  C   UNL     1      30.080  45.452  56.432  1.00  0.00     0.001 A 
HETATM   29  C   UNL     1      30.997  44.427  56.661  1.00  0.00     0.000 A 
HETATM   30  C   UNL     1      30.951  43.267  55.889  1.00  0.00     0.001 A 
HETATM   31  C   UNL     1      29.993  43.136  54.881  1.00  0.00     0.007 A 
ENDBRANCH  25  26
ENDBRANCH  24  25
ENDBRANCH   5  24
TORSDOF 6
ENDMDL
MODEL 10
REMARK VINA RESULT:      -8.4      2.015      4.991
REMARK  6 active torsions:
REMARK  status: ('A' for Active; 'I' for Inactive)
REMARK    1  A    between atoms: O_2  and  C_3 
REMARK    2  A    between atoms: C_6  and  C_7 
REMARK       I    between atoms: C_7  and  N_8 
REMARK    3  A    between atoms: N_8  and  N_9 
REMARK    4  A    between atoms: N_13  and  C_14 
REMARK    5  A    between atoms: C_14  and  C_15 
REMARK    6  A    between atoms: C_15  and  C_16 
ROOT
HETATM    1  N   UNL     1      25.820  46.131  52.308  1.00  0.00    -0.166 NA
HETATM    2  C   UNL     1      26.297  44.928  52.300  1.00  0.00     0.157 A 
HETATM    3  C   UNL     1      25.887  43.746  51.425  1.00  0.00     0.279 A 
HETATM    4  O   UNL     1      24.985  43.784  50.613  1.00  0.00    -0.265 OA
HETATM    5  N   UNL     1      26.738  42.710  51.774  1.00  0.00    -0.311 N 
HETATM    6  C   UNL     1      27.378  44.448  53.149  1.00  0.00     0.027 A 
HETATM    7  C   UNL     1      27.617  43.119  52.797  1.00  0.00     0.050 A 
HETATM    8  C   UNL     1      28.601  42.400  53.448  1.00  0.00     0.031 A 
HETATM    9  C   UNL     1      29.325  43.044  54.463  1.00  0.00     0.002 A 
HETATM   10  C   UNL     1      29.064  44.384  54.808  1.00  0.00     0.001 A 
HETATM   11  C   UNL     1      28.076  45.108  54.141  1.00  0.00     0.016 A 
ENDROOT
BRANCH   1  12
HETATM   12  N   UNL     1      24.795  46.398  51.445  1.00  0.00    -0.242 N 
HETATM   13  C   UNL     1      24.962  47.363  50.465  1.00  0.00     0.271 C 
HETATM   14  O   UNL     1      26.001  47.998  50.291  1.00  0.00    -0.266 OA
HETATM   15  H   UNL     1      23.908  45.919  51.589  1.00  0.00     0.192 HD
BRANCH  13  16
HETATM   16  C   UNL     1      23.781  47.655  49.593  1.00  0.00     0.033 A 
HETATM   17  C   UNL     1      23.084  46.675  48.876  1.00  0.00     0.020 A 
HETATM   18  C   UNL     1      21.978  47.033  48.097  1.00  0.00     0.038 A 
HETATM   19  C   UNL     1      21.553  48.362  48.015  1.00  0.00     0.068 A 
HETATM   20  C   UNL     1      22.258  49.344  48.708  1.00  0.00     0.038 A 
HETATM   21  C   UNL     1      23.363  48.990  49.490  1.00  0.00     0.020 A 
BRANCH  19  22
HETATM   22  O   UNL     1      20.455  48.567  47.226  1.00  0.00    -0.356 OA
HETATM   23  C   UNL     1      19.913  49.882  47.212  1.00  0.00     0.210 C 
ENDBRANCH  19  22
ENDBRANCH  13  16
ENDBRANCH   1  12
BRANCH   5  24
HETATM   24  C   UNL     1      26.690  41.389  51.186  1.00  0.00     0.137 C 
BRANCH  24  25
HETATM   25  C   UNL     1      27.521  41.292  49.900  1.00  0.00     0.059 C 
BRANCH  25  26
HETATM   26  C   UNL     1      28.382  40.053  49.878  1.00  0.00    -0.057 A 
HETATM   27  C   UNL     1      28.908  39.524  51.065  1.00  0.00     0.007 A 
HETATM   28  C   UNL     1      29.724  38.391  51.034  1.00  0.00     0.001 A 
HETATM   29  C   UNL     1      30.016  37.772  49.820  1.00  0.00     0.000 A 
HETATM   30  C   UNL     1      29.489  38.283  48.635  1.00  0.00     0.001 A 
HETATM   31  C   UNL     1      28.678  39.419  48.663  1.00  0.00     0.007 A 
ENDBRANCH  25  26
ENDBRANCH  24  25
ENDBRANCH   5  24
TORSDOF 6
ENDMDL
