MODEL 1
REMARK VINA RESULT:      -9.4      0.000      0.000
REMARK  9 active torsions:
REMARK  status: ('A' for Active; 'I' for Inactive)
REMARK    1  A    between atoms: C_2  and  O_3 
REMARK    2  A    between atoms: O_3  and  C_4 
REMARK    3  A    between atoms: C_4  and  C_5 
REMARK    4  A    between atoms: C_8  and  N_9 
REMARK       I    between atoms: N_9  and  C_10 
REMARK    5  A    between atoms: C_10  and  C_11 
REMARK    6  A    between atoms: C_13  and  N_14 
REMARK    7  A    between atoms: N_17  and  C_19 
REMARK    8  A    between atoms: C_19  and  C_20 
REMARK    9  A    between atoms: C_19  and  C_26 
ROOT
HETATM    1  C   UNL     1      23.265  43.840  46.717  1.00  0.00     0.200 C 
HETATM    2  N   UNL     1      22.114  44.706  46.515  1.00  0.00    -0.211 N 
HETATM    3  C   UNL     1      20.867  44.182  46.586  1.00  0.00     0.702 C 
HETATM    4  N   UNL     1      20.577  42.927  46.600  1.00  0.00    -0.028 NA
HETATM    5  C   UNL     1      21.618  42.028  46.619  1.00  0.00     0.263 C 
HETATM    6  O   UNL     1      21.451  40.859  46.956  1.00  0.00    -0.271 OA
HETATM    7  C   UNL     1      22.965  42.483  46.116  1.00  0.00     0.141 C 
HETATM    8  H   UNL     1      22.223  45.653  46.859  1.00  0.00     0.178 HD
ENDROOT
BRANCH   3   9
HETATM    9  N   UNL     1      19.895  45.155  46.567  1.00  0.00    -0.213 N 
HETATM   10  C   UNL     1      20.224  46.407  45.845  1.00  0.00     0.169 C 
HETATM   11  C   UNL     1      20.996  47.392  46.750  1.00  0.00     0.256 C 
HETATM   12  N   UNL     1      20.162  47.690  47.998  1.00  0.00    -0.056 N 
HETATM   13  H   UNL     1      19.230  47.986  47.699  1.00  0.00     0.281 HD
HETATM   14  C   UNL     1      19.936  46.382  48.761  1.00  0.00     0.256 C 
HETATM   15  C   UNL     1      19.182  45.393  47.846  1.00  0.00     0.169 C 
BRANCH  12  16
HETATM   16  C   UNL     1      20.672  48.829  48.877  1.00  0.00     0.254 C 
BRANCH  16  17
HETATM   17  C   UNL     1      22.165  49.096  48.731  1.00  0.00    -0.023 A 
HETATM   18  C   UNL     1      22.654  50.185  47.987  1.00  0.00     0.009 A 
HETATM   19  C   UNL     1      24.027  50.402  47.861  1.00  0.00     0.001 A 
HETATM   20  C   UNL     1      24.930  49.539  48.475  1.00  0.00     0.000 A 
HETATM   21  C   UNL     1      24.465  48.460  49.220  1.00  0.00     0.001 A 
HETATM   22  C   UNL     1      23.093  48.237  49.348  1.00  0.00     0.009 A 
ENDBRANCH  16  17
BRANCH  16  23
HETATM   23  C   UNL     1      19.799  50.095  48.857  1.00  0.00    -0.023 A 
HETATM   24  C   UNL     1      19.542  50.898  49.984  1.00  0.00     0.009 A 
HETATM   25  C   UNL     1      18.765  52.058  49.878  1.00  0.00     0.001 A 
HETATM   26  C   UNL     1      18.229  52.436  48.652  1.00  0.00     0.000 A 
HETATM   27  C   UNL     1      18.469  51.662  47.524  1.00  0.00     0.001 A 
HETATM   28  C   UNL     1      19.250  50.507  47.624  1.00  0.00     0.009 A 
ENDBRANCH  16  23
ENDBRANCH  12  16
ENDBRANCH   3   9
BRANCH   1  29
HETATM   29  C   UNL     1      23.643  43.734  48.214  1.00  0.00     0.246 C 
HETATM   30  N   UNL     1      24.696  44.575  48.548  1.00  0.00    -0.325 N 
HETATM   31  H   UNL     1      25.035  45.207  47.831  1.00  0.00     0.169 HD
HETATM   32  O   UNL     1      23.028  42.992  48.977  1.00  0.00    -0.271 OA
BRANCH  30  33
HETATM   33  C   UNL     1      25.382  44.664  49.777  1.00  0.00     0.034 A 
HETATM   34  C   UNL     1      24.870  45.270  50.923  1.00  0.00     0.030 A 
HETATM   35  C   UNL     1      25.602  45.252  52.120  1.00  0.00     0.020 A 
HETATM   36  C   UNL     1      26.852  44.626  52.186  1.00  0.00     0.039 A 
HETATM   37  C   UNL     1      27.380  44.041  51.030  1.00  0.00     0.020 A 
HETATM   38  C   UNL     1      26.649  44.062  49.837  1.00  0.00     0.030 A 
BRANCH  36  39
HETATM   39  C   UNL     1      27.559  44.582  53.495  1.00  0.00     0.293 C 
HETATM   40  O   UNL     1      27.750  45.567  54.188  1.00  0.00    -0.259 OA
BRANCH  39  41
HETATM   41  O   UNL     1      27.905  43.307  53.801  1.00  0.00    -0.318 OA
BRANCH  41  42
HETATM   42  C   UNL     1      29.232  43.119  54.314  1.00  0.00     0.174 C 
HETATM   43  C   UNL     1      30.194  42.795  53.187  1.00  0.00     0.034 C 
ENDBRANCH  41  42
ENDBRANCH  39  41
ENDBRANCH  36  39
ENDBRANCH  30  33
ENDBRANCH   1  29
TORSDOF 9
ENDMDL
MODEL 2
REMARK VINA RESULT:      -9.2      3.023      7.655
REMARK  9 active torsions:
REMARK  status: ('A' for Active; 'I' for Inactive)
REMARK    1  A    between atoms: C_2  and  O_3 
REMARK    2  A    between atoms: O_3  and  C_4 
REMARK    3  A    between atoms: C_4  and  C_5 
REMARK    4  A    between atoms: C_8  and  N_9 
REMARK       I    between atoms: N_9  and  C_10 
REMARK    5  A    between atoms: C_10  and  C_11 
REMARK    6  A    between atoms: C_13  and  N_14 
REMARK    7  A    between atoms: N_17  and  C_19 
REMARK    8  A    between atoms: C_19  and  C_20 
REMARK    9  A    between atoms: C_19  and  C_26 
ROOT
HETATM    1  C   UNL     1      20.847  43.924  46.495  1.00  0.00     0.200 C 
HETATM    2  N   UNL     1      21.655  43.401  47.587  1.00  0.00    -0.211 N 
HETATM    3  C   UNL     1      23.005  43.419  47.482  1.00  0.00     0.702 C 
HETATM    4  N   UNL     1      23.674  43.657  46.408  1.00  0.00    -0.028 NA
HETATM    5  C   UNL     1      22.971  43.996  45.275  1.00  0.00     0.263 C 
HETATM    6  O   UNL     1      23.515  44.543  44.321  1.00  0.00    -0.271 OA
HETATM    7  C   UNL     1      21.523  43.585  45.184  1.00  0.00     0.141 C 
HETATM    8  H   UNL     1      21.275  43.551  48.513  1.00  0.00     0.178 HD
ENDROOT
BRANCH   3   9
HETATM    9  N   UNL     1      23.620  43.075  48.663  1.00  0.00    -0.213 N 
HETATM   10  C   UNL     1      22.877  43.374  49.910  1.00  0.00     0.169 C 
HETATM   11  C   UNL     1      23.117  44.829  50.371  1.00  0.00     0.256 C 
HETATM   12  N   UNL     1      24.618  45.054  50.568  1.00  0.00    -0.056 N 
HETATM   13  H   UNL     1      24.976  44.319  51.183  1.00  0.00     0.281 HD
HETATM   14  C   UNL     1      25.327  44.830  49.230  1.00  0.00     0.256 C 
HETATM   15  C   UNL     1      25.068  43.381  48.762  1.00  0.00     0.169 C 
BRANCH  12  16
HETATM   16  C   UNL     1      25.006  46.362  51.254  1.00  0.00     0.254 C 
BRANCH  16  17
HETATM   17  C   UNL     1      25.940  46.177  52.443  1.00  0.00    -0.023 A 
HETATM   18  C   UNL     1      26.046  47.145  53.459  1.00  0.00     0.009 A 
HETATM   19  C   UNL     1      26.917  46.956  54.533  1.00  0.00     0.001 A 
HETATM   20  C   UNL     1      27.692  45.801  54.611  1.00  0.00     0.000 A 
HETATM   21  C   UNL     1      27.596  44.831  53.618  1.00  0.00     0.001 A 
HETATM   22  C   UNL     1      26.728  45.015  52.541  1.00  0.00     0.009 A 
ENDBRANCH  16  17
BRANCH  16  23
HETATM   23  C   UNL     1      25.420  47.490  50.295  1.00  0.00    -0.023 A 
HETATM   24  C   UNL     1      26.753  47.818  49.986  1.00  0.00     0.009 A 
HETATM   25  C   UNL     1      27.051  48.838  49.075  1.00  0.00     0.001 A 
HETATM   26  C   UNL     1      26.028  49.550  48.457  1.00  0.00     0.000 A 
HETATM   27  C   UNL     1      24.703  49.244  48.743  1.00  0.00     0.001 A 
HETATM   28  C   UNL     1      24.402  48.223  49.647  1.00  0.00     0.009 A 
ENDBRANCH  16  23
ENDBRANCH  12  16
ENDBRANCH   3   9
BRANCH   1  29
HETATM   29  C   UNL     1      20.608  45.446  46.642  1.00  0.00     0.246 C 
HETATM   30  N   UNL     1      20.442  45.824  47.967  1.00  0.00    -0.325 N 
HETATM   31  H   UNL     1      20.578  45.112  48.677  1.00  0.00     0.169 HD
HETATM   32  O   UNL     1      20.602  46.188  45.663  1.00  0.00    -0.271 OA
BRANCH  30  33
HETATM   33  C   UNL     1      20.093  47.093  48.473  1.00  0.00     0.034 A 
HETATM   34  C   UNL     1      20.999  48.131  48.689  1.00  0.00     0.030 A 
HETATM   35  C   UNL     1      20.546  49.382  49.134  1.00  0.00     0.020 A 
HETATM   36  C   UNL     1      19.185  49.611  49.366  1.00  0.00     0.039 A 
HETATM   37  C   UNL     1      18.279  48.563  49.176  1.00  0.00     0.020 A 
HETATM   38  C   UNL     1      18.733  47.316  48.733  1.00  0.00     0.030 A 
BRANCH  36  39
HETATM   39  C   UNL     1      18.751  50.974  49.778  1.00  0.00     0.293 C 
HETATM   40  O   UNL     1      19.441  51.970  49.635  1.00  0.00    -0.259 OA
BRANCH  39  41
HETATM   41  O   UNL     1      17.491  50.937  50.279  1.00  0.00    -0.318 OA
BRANCH  41  42
HETATM   42  C   UNL     1      16.580  51.921  49.767  1.00  0.00     0.174 C 
HETATM   43  C   UNL     1      16.147  51.559  48.359  1.00  0.00     0.034 C 
ENDBRANCH  41  42
ENDBRANCH  39  41
ENDBRANCH  36  39
ENDBRANCH  30  33
ENDBRANCH   1  29
TORSDOF 9
ENDMDL
MODEL 3
REMARK VINA RESULT:      -8.7      4.651      9.186
REMARK  9 active torsions:
REMARK  status: ('A' for Active; 'I' for Inactive)
REMARK    1  A    between atoms: C_2  and  O_3 
REMARK    2  A    between atoms: O_3  and  C_4 
REMARK    3  A    between atoms: C_4  and  C_5 
REMARK    4  A    between atoms: C_8  and  N_9 
REMARK       I    between atoms: N_9  and  C_10 
REMARK    5  A    between atoms: C_10  and  C_11 
REMARK    6  A    between atoms: C_13  and  N_14 
REMARK    7  A    between atoms: N_17  and  C_19 
REMARK    8  A    between atoms: C_19  and  C_20 
REMARK    9  A    between atoms: C_19  and  C_26 
ROOT
HETATM    1  C   UNL     1      22.040  47.437  48.642  1.00  0.00     0.200 C 
HETATM    2  N   UNL     1      21.119  48.161  49.505  1.00  0.00    -0.211 N 
HETATM    3  C   UNL     1      21.021  49.507  49.392  1.00  0.00     0.702 C 
HETATM    4  N   UNL     1      21.827  50.268  48.737  1.00  0.00    -0.028 NA
HETATM    5  C   UNL     1      22.839  49.669  48.024  1.00  0.00     0.263 C 
HETATM    6  O   UNL     1      23.437  50.265  47.133  1.00  0.00    -0.271 OA
HETATM    7  C   UNL     1      23.276  48.284  48.430  1.00  0.00     0.141 C 
HETATM    8  H   UNL     1      20.265  47.667  49.734  1.00  0.00     0.178 HD
ENDROOT
BRANCH   3   9
HETATM    9  N   UNL     1      19.978  50.013  50.133  1.00  0.00    -0.213 N 
HETATM   10  C   UNL     1      18.709  49.249  50.102  1.00  0.00     0.169 C 
HETATM   11  C   UNL     1      17.848  49.640  48.880  1.00  0.00     0.256 C 
HETATM   12  N   UNL     1      17.572  51.145  48.917  1.00  0.00    -0.056 N 
HETATM   13  H   UNL     1      17.188  51.378  49.836  1.00  0.00     0.281 HD
HETATM   14  C   UNL     1      18.908  51.889  48.847  1.00  0.00     0.256 C 
HETATM   15  C   UNL     1      19.774  51.481  50.058  1.00  0.00     0.169 C 
BRANCH  12  16
HETATM   16  C   UNL     1      16.536  51.652  47.918  1.00  0.00     0.254 C 
BRANCH  16  17
HETATM   17  C   UNL     1      15.999  50.571  46.989  1.00  0.00    -0.023 A 
HETATM   18  C   UNL     1      15.212  49.507  47.465  1.00  0.00     0.009 A 
HETATM   19  C   UNL     1      14.740  48.525  46.594  1.00  0.00     0.001 A 
HETATM   20  C   UNL     1      15.044  48.589  45.237  1.00  0.00     0.000 A 
HETATM   21  C   UNL     1      15.818  49.636  44.746  1.00  0.00     0.001 A 
HETATM   22  C   UNL     1      16.293  50.621  45.613  1.00  0.00     0.009 A 
ENDBRANCH  16  17
BRANCH  16  23
HETATM   23  C   UNL     1      15.453  52.560  48.523  1.00  0.00    -0.023 A 
HETATM   24  C   UNL     1      14.727  53.521  47.794  1.00  0.00     0.009 A 
HETATM   25  C   UNL     1      13.729  54.287  48.408  1.00  0.00     0.001 A 
HETATM   26  C   UNL     1      13.438  54.112  49.757  1.00  0.00     0.000 A 
HETATM   27  C   UNL     1      14.139  53.168  50.498  1.00  0.00     0.001 A 
HETATM   28  C   UNL     1      15.131  52.397  49.888  1.00  0.00     0.009 A 
ENDBRANCH  16  23
ENDBRANCH  12  16
ENDBRANCH   3   9
BRANCH   1  29
HETATM   29  C   UNL     1      21.374  47.045  47.302  1.00  0.00     0.246 C 
HETATM   30  N   UNL     1      19.994  47.187  47.340  1.00  0.00    -0.325 N 
HETATM   31  H   UNL     1      19.590  47.599  48.175  1.00  0.00     0.169 HD
HETATM   32  O   UNL     1      22.046  46.680  46.339  1.00  0.00    -0.271 OA
BRANCH  30  33
HETATM   33  C   UNL     1      19.053  46.819  46.357  1.00  0.00     0.034 A 
HETATM   34  C   UNL     1      19.022  47.337  45.063  1.00  0.00     0.030 A 
HETATM   35  C   UNL     1      18.087  46.860  44.133  1.00  0.00     0.020 A 
HETATM   36  C   UNL     1      17.174  45.858  44.484  1.00  0.00     0.039 A 
HETATM   37  C   UNL     1      17.185  45.357  45.789  1.00  0.00     0.020 A 
HETATM   38  C   UNL     1      18.118  45.836  46.716  1.00  0.00     0.030 A 
BRANCH  36  39
HETATM   39  C   UNL     1      16.243  45.344  43.442  1.00  0.00     0.293 C 
HETATM   40  O   UNL     1      16.515  45.320  42.253  1.00  0.00    -0.259 OA
BRANCH  39  41
HETATM   41  O   UNL     1      15.103  44.883  44.014  1.00  0.00    -0.318 OA
BRANCH  41  42
HETATM   42  C   UNL     1      13.881  45.476  43.550  1.00  0.00     0.174 C 
HETATM   43  C   UNL     1      12.686  44.702  44.073  1.00  0.00     0.034 C 
ENDBRANCH  41  42
ENDBRANCH  39  41
ENDBRANCH  36  39
ENDBRANCH  30  33
ENDBRANCH   1  29
TORSDOF 9
ENDMDL
MODEL 4
REMARK VINA RESULT:      -8.7      1.883      3.942
REMARK  9 active torsions:
REMARK  status: ('A' for Active; 'I' for Inactive)
REMARK    1  A    between atoms: C_2  and  O_3 
REMARK    2  A    between atoms: O_3  and  C_4 
REMARK    3  A    between atoms: C_4  and  C_5 
REMARK    4  A    between atoms: C_8  and  N_9 
REMARK       I    between atoms: N_9  and  C_10 
REMARK    5  A    between atoms: C_10  and  C_11 
REMARK    6  A    between atoms: C_13  and  N_14 
REMARK    7  A    between atoms: N_17  and  C_19 
REMARK    8  A    between atoms: C_19  and  C_20 
REMARK    9  A    between atoms: C_19  and  C_26 
ROOT
HETATM    1  C   UNL     1      21.260  45.335  45.820  1.00  0.00     0.200 C 
HETATM    2  N   UNL     1      20.084  45.924  46.441  1.00  0.00    -0.211 N 
HETATM    3  C   UNL     1      19.137  45.114  46.971  1.00  0.00     0.702 C 
HETATM    4  N   UNL     1      19.050  43.841  46.795  1.00  0.00    -0.028 NA
HETATM    5  C   UNL     1      20.041  43.224  46.067  1.00  0.00     0.263 C 
HETATM    6  O   UNL     1      20.218  42.011  46.121  1.00  0.00    -0.271 OA
HETATM    7  C   UNL     1      20.852  44.063  45.110  1.00  0.00     0.141 C 
HETATM    8  H   UNL     1      20.245  46.801  46.923  1.00  0.00     0.178 HD
ENDROOT
BRANCH   3   9
HETATM    9  N   UNL     1      18.195  45.817  47.685  1.00  0.00    -0.213 N 
HETATM   10  C   UNL     1      17.310  46.718  46.909  1.00  0.00     0.169 C 
HETATM   11  C   UNL     1      17.969  48.097  46.686  1.00  0.00     0.256 C 
HETATM   12  N   UNL     1      18.316  48.716  48.043  1.00  0.00    -0.056 N 
HETATM   13  H   UNL     1      17.475  48.705  48.626  1.00  0.00     0.281 HD
HETATM   14  C   UNL     1      19.308  47.798  48.761  1.00  0.00     0.256 C 
HETATM   15  C   UNL     1      18.654  46.414  48.964  1.00  0.00     0.169 C 
BRANCH  12  16
HETATM   16  C   UNL     1      18.750  50.179  48.010  1.00  0.00     0.254 C 
BRANCH  16  17
HETATM   17  C   UNL     1      17.741  51.133  48.638  1.00  0.00    -0.023 A 
HETATM   18  C   UNL     1      18.143  52.312  49.292  1.00  0.00     0.009 A 
HETATM   19  C   UNL     1      17.200  53.164  49.867  1.00  0.00     0.001 A 
HETATM   20  C   UNL     1      15.844  52.854  49.797  1.00  0.00     0.000 A 
HETATM   21  C   UNL     1      15.427  51.695  49.150  1.00  0.00     0.001 A 
HETATM   22  C   UNL     1      16.367  50.838  48.575  1.00  0.00     0.009 A 
ENDBRANCH  16  17
BRANCH  16  23
HETATM   23  C   UNL     1      20.205  50.425  48.442  1.00  0.00    -0.023 A 
HETATM   24  C   UNL     1      20.606  50.683  49.766  1.00  0.00     0.009 A 
HETATM   25  C   UNL     1      21.957  50.863  50.087  1.00  0.00     0.001 A 
HETATM   26  C   UNL     1      22.930  50.791  49.097  1.00  0.00     0.000 A 
HETATM   27  C   UNL     1      22.561  50.536  47.782  1.00  0.00     0.001 A 
HETATM   28  C   UNL     1      21.215  50.350  47.459  1.00  0.00     0.009 A 
ENDBRANCH  16  23
ENDBRANCH  12  16
ENDBRANCH   3   9
BRANCH   1  29
HETATM   29  C   UNL     1      22.384  45.082  46.853  1.00  0.00     0.246 C 
HETATM   30  N   UNL     1      22.226  45.852  47.998  1.00  0.00    -0.325 N 
HETATM   31  H   UNL     1      21.382  46.409  48.073  1.00  0.00     0.169 HD
HETATM   32  O   UNL     1      23.273  44.261  46.640  1.00  0.00    -0.271 OA
BRANCH  30  33
HETATM   33  C   UNL     1      23.107  45.974  49.092  1.00  0.00     0.034 A 
HETATM   34  C   UNL     1      23.553  44.905  49.868  1.00  0.00     0.030 A 
HETATM   35  C   UNL     1      24.482  45.118  50.897  1.00  0.00     0.020 A 
HETATM   36  C   UNL     1      24.977  46.401  51.162  1.00  0.00     0.039 A 
HETATM   37  C   UNL     1      24.510  47.478  50.403  1.00  0.00     0.020 A 
HETATM   38  C   UNL     1      23.582  47.263  49.378  1.00  0.00     0.030 A 
BRANCH  36  39
HETATM   39  C   UNL     1      26.006  46.562  52.225  1.00  0.00     0.293 C 
HETATM   40  O   UNL     1      26.101  47.559  52.921  1.00  0.00    -0.259 OA
BRANCH  39  41
HETATM   41  O   UNL     1      26.765  45.442  52.321  1.00  0.00    -0.318 OA
BRANCH  41  42
HETATM   42  C   UNL     1      27.049  44.984  53.651  1.00  0.00     0.174 C 
HETATM   43  C   UNL     1      25.812  44.366  54.274  1.00  0.00     0.034 C 
ENDBRANCH  41  42
ENDBRANCH  39  41
ENDBRANCH  36  39
ENDBRANCH  30  33
ENDBRANCH   1  29
TORSDOF 9
ENDMDL
MODEL 5
REMARK VINA RESULT:      -8.5      3.290      9.837
REMARK  9 active torsions:
REMARK  status: ('A' for Active; 'I' for Inactive)
REMARK    1  A    between atoms: C_2  and  O_3 
REMARK    2  A    between atoms: O_3  and  C_4 
REMARK    3  A    between atoms: C_4  and  C_5 
REMARK    4  A    between atoms: C_8  and  N_9 
REMARK       I    between atoms: N_9  and  C_10 
REMARK    5  A    between atoms: C_10  and  C_11 
REMARK    6  A    between atoms: C_13  and  N_14 
REMARK    7  A    between atoms: N_17  and  C_19 
REMARK    8  A    between atoms: C_19  and  C_20 
REMARK    9  A    between atoms: C_19  and  C_26 
ROOT
HETATM    1  C   UNL     1      21.422  44.479  48.750  1.00  0.00     0.200 C 
HETATM    2  N   UNL     1      22.590  44.818  49.549  1.00  0.00    -0.211 N 
HETATM    3  C   UNL     1      23.775  45.043  48.932  1.00  0.00     0.702 C 
HETATM    4  N   UNL     1      24.046  44.776  47.702  1.00  0.00    -0.028 NA
HETATM    5  C   UNL     1      23.031  44.286  46.912  1.00  0.00     0.263 C 
HETATM    6  O   UNL     1      23.101  44.312  45.687  1.00  0.00    -0.271 OA
HETATM    7  C   UNL     1      21.861  43.616  47.587  1.00  0.00     0.141 C 
HETATM    8  H   UNL     1      22.400  45.375  50.373  1.00  0.00     0.178 HD
ENDROOT
BRANCH   3   9
HETATM    9  N   UNL     1      24.722  45.537  49.798  1.00  0.00    -0.213 N 
HETATM   10  C   UNL     1      26.136  45.217  49.487  1.00  0.00     0.169 C 
HETATM   11  C   UNL     1      26.537  43.838  50.056  1.00  0.00     0.256 C 
HETATM   12  N   UNL     1      26.299  43.826  51.568  1.00  0.00    -0.056 N 
HETATM   13  H   UNL     1      26.770  44.638  51.974  1.00  0.00     0.281 HD
HETATM   14  C   UNL     1      24.809  44.062  51.831  1.00  0.00     0.256 C 
HETATM   15  C   UNL     1      24.407  45.432  51.243  1.00  0.00     0.169 C 
BRANCH  12  16
HETATM   16  C   UNL     1      26.869  42.626  52.318  1.00  0.00     0.254 C 
BRANCH  16  17
HETATM   17  C   UNL     1      27.174  41.431  51.422  1.00  0.00    -0.023 A 
HETATM   18  C   UNL     1      26.151  40.673  50.824  1.00  0.00     0.009 A 
HETATM   19  C   UNL     1      26.457  39.577  50.016  1.00  0.00     0.001 A 
HETATM   20  C   UNL     1      27.785  39.223  49.792  1.00  0.00     0.000 A 
HETATM   21  C   UNL     1      28.811  39.963  50.372  1.00  0.00     0.001 A 
HETATM   22  C   UNL     1      28.510  41.060  51.182  1.00  0.00     0.009 A 
ENDBRANCH  16  17
BRANCH  16  23
HETATM   23  C   UNL     1      27.986  42.966  53.318  1.00  0.00    -0.023 A 
HETATM   24  C   UNL     1      28.991  42.066  53.720  1.00  0.00     0.009 A 
HETATM   25  C   UNL     1      29.997  42.462  54.609  1.00  0.00     0.001 A 
HETATM   26  C   UNL     1      30.019  43.757  55.116  1.00  0.00     0.000 A 
HETATM   27  C   UNL     1      29.040  44.665  54.734  1.00  0.00     0.001 A 
HETATM   28  C   UNL     1      28.038  44.276  53.841  1.00  0.00     0.009 A 
ENDBRANCH  16  23
ENDBRANCH  12  16
ENDBRANCH   3   9
BRANCH   1  29
HETATM   29  C   UNL     1      20.671  45.746  48.274  1.00  0.00     0.246 C 
HETATM   30  N   UNL     1      20.808  46.801  49.164  1.00  0.00    -0.325 N 
HETATM   31  H   UNL     1      21.430  46.668  49.954  1.00  0.00     0.169 HD
HETATM   32  O   UNL     1      20.061  45.762  47.207  1.00  0.00    -0.271 OA
BRANCH  30  33
HETATM   33  C   UNL     1      20.175  48.061  49.125  1.00  0.00     0.034 A 
HETATM   34  C   UNL     1      19.074  48.414  49.904  1.00  0.00     0.030 A 
HETATM   35  C   UNL     1      18.553  49.716  49.842  1.00  0.00     0.020 A 
HETATM   36  C   UNL     1      19.128  50.678  49.003  1.00  0.00     0.039 A 
HETATM   37  C   UNL     1      20.214  50.318  48.201  1.00  0.00     0.020 A 
HETATM   38  C   UNL     1      20.731  49.019  48.263  1.00  0.00     0.030 A 
BRANCH  36  39
HETATM   39  C   UNL     1      18.575  52.060  49.022  1.00  0.00     0.293 C 
HETATM   40  O   UNL     1      19.001  52.963  48.321  1.00  0.00    -0.259 OA
BRANCH  39  41
HETATM   41  O   UNL     1      17.527  52.138  49.880  1.00  0.00    -0.318 OA
BRANCH  41  42
HETATM   42  C   UNL     1      16.271  52.530  49.308  1.00  0.00     0.174 C 
HETATM   43  C   UNL     1      15.394  53.188  50.355  1.00  0.00     0.034 C 
ENDBRANCH  41  42
ENDBRANCH  39  41
ENDBRANCH  36  39
ENDBRANCH  30  33
ENDBRANCH   1  29
TORSDOF 9
ENDMDL
MODEL 6
REMARK VINA RESULT:      -8.4      5.138      9.111
REMARK  9 active torsions:
REMARK  status: ('A' for Active; 'I' for Inactive)
REMARK    1  A    between atoms: C_2  and  O_3 
REMARK    2  A    between atoms: O_3  and  C_4 
REMARK    3  A    between atoms: C_4  and  C_5 
REMARK    4  A    between atoms: C_8  and  N_9 
REMARK       I    between atoms: N_9  and  C_10 
REMARK    5  A    between atoms: C_10  and  C_11 
REMARK    6  A    between atoms: C_13  and  N_14 
REMARK    7  A    between atoms: N_17  and  C_19 
REMARK    8  A    between atoms: C_19  and  C_20 
REMARK    9  A    between atoms: C_19  and  C_26 
ROOT
HETATM    1  C   UNL     1      24.392  44.917  50.986  1.00  0.00     0.200 C 
HETATM    2  N   UNL     1      24.130  43.577  50.484  1.00  0.00    -0.211 N 
HETATM    3  C   UNL     1      25.109  42.910  49.827  1.00  0.00     0.702 C 
HETATM    4  N   UNL     1      26.209  43.421  49.396  1.00  0.00    -0.028 NA
HETATM    5  C   UNL     1      26.460  44.743  49.684  1.00  0.00     0.263 C 
HETATM    6  O   UNL     1      27.591  45.215  49.605  1.00  0.00    -0.271 OA
HETATM    7  C   UNL     1      25.290  45.639  50.005  1.00  0.00     0.141 C 
HETATM    8  H   UNL     1      23.511  43.016  51.057  1.00  0.00     0.178 HD
ENDROOT
BRANCH   3   9
HETATM    9  N   UNL     1      24.771  41.598  49.590  1.00  0.00    -0.213 N 
HETATM   10  C   UNL     1      25.785  40.577  49.948  1.00  0.00     0.169 C 
HETATM   11  C   UNL     1      26.806  40.376  48.806  1.00  0.00     0.256 C 
HETATM   12  N   UNL     1      26.063  39.976  47.529  1.00  0.00    -0.056 N 
HETATM   13  H   UNL     1      25.460  39.178  47.744  1.00  0.00     0.281 HD
HETATM   14  C   UNL     1      25.102  41.105  47.148  1.00  0.00     0.256 C 
HETATM   15  C   UNL     1      24.096  41.319  48.299  1.00  0.00     0.169 C 
BRANCH  12  16
HETATM   16  C   UNL     1      26.941  39.504  46.373  1.00  0.00     0.254 C 
BRANCH  16  17
HETATM   17  C   UNL     1      27.100  37.990  46.302  1.00  0.00    -0.023 A 
HETATM   18  C   UNL     1      26.381  37.128  47.150  1.00  0.00     0.009 A 
HETATM   19  C   UNL     1      26.553  35.746  47.071  1.00  0.00     0.001 A 
HETATM   20  C   UNL     1      27.441  35.203  46.146  1.00  0.00     0.000 A 
HETATM   21  C   UNL     1      28.158  36.040  45.295  1.00  0.00     0.001 A 
HETATM   22  C   UNL     1      27.990  37.424  45.371  1.00  0.00     0.009 A 
ENDBRANCH  16  17
BRANCH  16  23
HETATM   23  C   UNL     1      26.635  40.171  45.022  1.00  0.00    -0.023 A 
HETATM   24  C   UNL     1      25.461  39.952  44.278  1.00  0.00     0.009 A 
HETATM   25  C   UNL     1      25.238  40.625  43.071  1.00  0.00     0.001 A 
HETATM   26  C   UNL     1      26.180  41.524  42.582  1.00  0.00     0.000 A 
HETATM   27  C   UNL     1      27.347  41.759  43.299  1.00  0.00     0.001 A 
HETATM   28  C   UNL     1      27.570  41.095  44.507  1.00  0.00     0.009 A 
ENDBRANCH  16  23
ENDBRANCH  12  16
ENDBRANCH   3   9
BRANCH   1  29
HETATM   29  C   UNL     1      25.003  44.882  52.407  1.00  0.00     0.246 C 
HETATM   30  N   UNL     1      26.121  45.698  52.517  1.00  0.00    -0.325 N 
HETATM   31  H   UNL     1      26.358  46.275  51.717  1.00  0.00     0.169 HD
HETATM   32  O   UNL     1      24.498  44.210  53.303  1.00  0.00    -0.271 OA
BRANCH  30  33
HETATM   33  C   UNL     1      26.998  45.830  53.612  1.00  0.00     0.034 A 
HETATM   34  C   UNL     1      27.014  46.919  54.483  1.00  0.00     0.030 A 
HETATM   35  C   UNL     1      27.881  46.931  55.585  1.00  0.00     0.020 A 
HETATM   36  C   UNL     1      28.741  45.854  55.832  1.00  0.00     0.039 A 
HETATM   37  C   UNL     1      28.746  44.773  54.945  1.00  0.00     0.020 A 
HETATM   38  C   UNL     1      27.881  44.765  53.845  1.00  0.00     0.030 A 
BRANCH  36  39
HETATM   39  C   UNL     1      29.597  45.889  57.049  1.00  0.00     0.293 C 
HETATM   40  O   UNL     1      29.241  46.385  58.105  1.00  0.00    -0.259 OA
BRANCH  39  41
HETATM   41  O   UNL     1      30.776  45.262  56.815  1.00  0.00    -0.318 OA
BRANCH  41  42
HETATM   42  C   UNL     1      31.145  44.241  57.755  1.00  0.00     0.174 C 
HETATM   43  C   UNL     1      32.109  43.259  57.118  1.00  0.00     0.034 C 
ENDBRANCH  41  42
ENDBRANCH  39  41
ENDBRANCH  36  39
ENDBRANCH  30  33
ENDBRANCH   1  29
TORSDOF 9
ENDMDL
MODEL 7
REMARK VINA RESULT:      -8.2      3.170      6.000
REMARK  9 active torsions:
REMARK  status: ('A' for Active; 'I' for Inactive)
REMARK    1  A    between atoms: C_2  and  O_3 
REMARK    2  A    between atoms: O_3  and  C_4 
REMARK    3  A    between atoms: C_4  and  C_5 
REMARK    4  A    between atoms: C_8  and  N_9 
REMARK       I    between atoms: N_9  and  C_10 
REMARK    5  A    between atoms: C_10  and  C_11 
REMARK    6  A    between atoms: C_13  and  N_14 
REMARK    7  A    between atoms: N_17  and  C_19 
REMARK    8  A    between atoms: C_19  and  C_20 
REMARK    9  A    between atoms: C_19  and  C_26 
ROOT
HETATM    1  C   UNL     1      24.651  46.414  51.058  1.00  0.00     0.200 C 
HETATM    2  N   UNL     1      23.874  45.368  50.411  1.00  0.00    -0.211 N 
HETATM    3  C   UNL     1      24.493  44.498  49.578  1.00  0.00     0.702 C 
HETATM    4  N   UNL     1      25.687  44.623  49.112  1.00  0.00    -0.028 NA
HETATM    5  C   UNL     1      26.438  45.691  49.546  1.00  0.00     0.263 C 
HETATM    6  O   UNL     1      27.659  45.712  49.418  1.00  0.00    -0.271 OA
HETATM    7  C   UNL     1      25.716  46.895  50.097  1.00  0.00     0.141 C 
HETATM    8  H   UNL     1      23.111  44.994  50.963  1.00  0.00     0.178 HD
ENDROOT
BRANCH   3   9
HETATM    9  N   UNL     1      23.668  43.463  49.204  1.00  0.00    -0.213 N 
HETATM   10  C   UNL     1      23.920  42.862  47.873  1.00  0.00     0.169 C 
HETATM   11  C   UNL     1      23.205  43.652  46.755  1.00  0.00     0.256 C 
HETATM   12  N   UNL     1      21.704  43.700  47.052  1.00  0.00    -0.056 N 
HETATM   13  H   UNL     1      21.377  42.744  47.211  1.00  0.00     0.281 HD
HETATM   14  C   UNL     1      21.491  44.418  48.387  1.00  0.00     0.256 C 
HETATM   15  C   UNL     1      22.225  43.637  49.499  1.00  0.00     0.169 C 
BRANCH  12  16
HETATM   16  C   UNL     1      20.824  44.233  45.925  1.00  0.00     0.254 C 
BRANCH  16  17
HETATM   17  C   UNL     1      20.247  43.143  45.029  1.00  0.00    -0.023 A 
HETATM   18  C   UNL     1      19.714  43.432  43.760  1.00  0.00     0.009 A 
HETATM   19  C   UNL     1      19.182  42.417  42.963  1.00  0.00     0.001 A 
HETATM   20  C   UNL     1      19.176  41.101  43.419  1.00  0.00     0.000 A 
HETATM   21  C   UNL     1      19.704  40.795  44.670  1.00  0.00     0.001 A 
HETATM   22  C   UNL     1      20.235  41.807  45.471  1.00  0.00     0.009 A 
ENDBRANCH  16  17
BRANCH  16  23
HETATM   23  C   UNL     1      19.805  45.300  46.356  1.00  0.00    -0.023 A 
HETATM   24  C   UNL     1      20.000  46.686  46.212  1.00  0.00     0.009 A 
HETATM   25  C   UNL     1      19.008  47.596  46.596  1.00  0.00     0.001 A 
HETATM   26  C   UNL     1      17.808  47.144  47.133  1.00  0.00     0.000 A 
HETATM   27  C   UNL     1      17.590  45.780  47.285  1.00  0.00     0.001 A 
HETATM   28  C   UNL     1      18.574  44.868  46.896  1.00  0.00     0.009 A 
ENDBRANCH  16  23
ENDBRANCH  12  16
ENDBRANCH   3   9
BRANCH   1  29
HETATM   29  C   UNL     1      25.260  45.926  52.394  1.00  0.00     0.246 C 
HETATM   30  N   UNL     1      26.226  46.797  52.878  1.00  0.00    -0.325 N 
HETATM   31  H   UNL     1      26.364  47.667  52.376  1.00  0.00     0.169 HD
HETATM   32  O   UNL     1      24.874  44.890  52.931  1.00  0.00    -0.271 OA
BRANCH  30  33
HETATM   33  C   UNL     1      27.070  46.627  53.995  1.00  0.00     0.034 A 
HETATM   34  C   UNL     1      27.068  47.456  55.117  1.00  0.00     0.030 A 
HETATM   35  C   UNL     1      27.900  47.168  56.209  1.00  0.00     0.020 A 
HETATM   36  C   UNL     1      28.742  46.049  56.194  1.00  0.00     0.039 A 
HETATM   37  C   UNL     1      28.765  45.233  55.059  1.00  0.00     0.020 A 
HETATM   38  C   UNL     1      27.935  45.523  53.970  1.00  0.00     0.030 A 
BRANCH  36  39
HETATM   39  C   UNL     1      29.559  45.755  57.403  1.00  0.00     0.293 C 
HETATM   40  O   UNL     1      29.119  45.810  58.540  1.00  0.00    -0.259 OA
BRANCH  39  41
HETATM   41  O   UNL     1      30.814  45.386  57.046  1.00  0.00    -0.318 OA
BRANCH  41  42
HETATM   42  C   UNL     1      31.404  44.329  57.817  1.00  0.00     0.174 C 
HETATM   43  C   UNL     1      31.430  43.041  57.017  1.00  0.00     0.034 C 
ENDBRANCH  41  42
ENDBRANCH  39  41
ENDBRANCH  36  39
ENDBRANCH  30  33
ENDBRANCH   1  29
TORSDOF 9
ENDMDL
MODEL 8
REMARK VINA RESULT:      -8.2      4.645      9.019
REMARK  9 active torsions:
REMARK  status: ('A' for Active; 'I' for Inactive)
REMARK    1  A    between atoms: C_2  and  O_3 
REMARK    2  A    between atoms: O_3  and  C_4 
REMARK    3  A    between atoms: C_4  and  C_5 
REMARK    4  A    between atoms: C_8  and  N_9 
REMARK       I    between atoms: N_9  and  C_10 
REMARK    5  A    between atoms: C_10  and  C_11 
REMARK    6  A    between atoms: C_13  and  N_14 
REMARK    7  A    between atoms: N_17  and  C_19 
REMARK    8  A    between atoms: C_19  and  C_20 
REMARK    9  A    between atoms: C_19  and  C_26 
ROOT
HETATM    1  C   UNL     1      22.121  47.774  48.941  1.00  0.00     0.200 C 
HETATM    2  N   UNL     1      21.164  48.577  49.686  1.00  0.00    -0.211 N 
HETATM    3  C   UNL     1      20.999  49.882  49.365  1.00  0.00     0.702 C 
HETATM    4  N   UNL     1      21.768  50.571  48.595  1.00  0.00    -0.028 NA
HETATM    5  C   UNL     1      22.810  49.919  47.978  1.00  0.00     0.263 C 
HETATM    6  O   UNL     1      23.380  50.398  47.002  1.00  0.00    -0.271 OA
HETATM    7  C   UNL     1      23.315  48.637  48.593  1.00  0.00     0.141 C 
HETATM    8  H   UNL     1      20.335  48.083  49.993  1.00  0.00     0.178 HD
ENDROOT
BRANCH   3   9
HETATM    9  N   UNL     1      19.931  50.446  50.023  1.00  0.00    -0.213 N 
HETATM   10  C   UNL     1      18.762  49.567  50.266  1.00  0.00     0.169 C 
HETATM   11  C   UNL     1      17.817  49.540  49.044  1.00  0.00     0.256 C 
HETATM   12  N   UNL     1      17.364  50.967  48.725  1.00  0.00    -0.056 N 
HETATM   13  H   UNL     1      16.987  51.384  49.580  1.00  0.00     0.281 HD
HETATM   14  C   UNL     1      18.597  51.808  48.385  1.00  0.00     0.256 C 
HETATM   15  C   UNL     1      19.549  51.815  49.600  1.00  0.00     0.169 C 
BRANCH  12  16
HETATM   16  C   UNL     1      16.239  51.090  47.701  1.00  0.00     0.254 C 
BRANCH  16  17
HETATM   17  C   UNL     1      15.414  52.363  47.846  1.00  0.00    -0.023 A 
HETATM   18  C   UNL     1      14.889  53.037  46.728  1.00  0.00     0.009 A 
HETATM   19  C   UNL     1      14.145  54.207  46.888  1.00  0.00     0.001 A 
HETATM   20  C   UNL     1      13.912  54.719  48.161  1.00  0.00     0.000 A 
HETATM   21  C   UNL     1      14.419  54.063  49.279  1.00  0.00     0.001 A 
HETATM   22  C   UNL     1      15.165  52.894  49.125  1.00  0.00     0.009 A 
ENDBRANCH  16  17
BRANCH  16  23
HETATM   23  C   UNL     1      16.649  50.764  46.256  1.00  0.00    -0.023 A 
HETATM   24  C   UNL     1      17.698  51.401  45.567  1.00  0.00     0.009 A 
HETATM   25  C   UNL     1      18.035  51.024  44.262  1.00  0.00     0.001 A 
HETATM   26  C   UNL     1      17.333  50.010  43.619  1.00  0.00     0.000 A 
HETATM   27  C   UNL     1      16.294  49.365  44.277  1.00  0.00     0.001 A 
HETATM   28  C   UNL     1      15.959  49.733  45.582  1.00  0.00     0.009 A 
ENDBRANCH  16  23
ENDBRANCH  12  16
ENDBRANCH   3   9
BRANCH   1  29
HETATM   29  C   UNL     1      21.479  47.145  47.681  1.00  0.00     0.246 C 
HETATM   30  N   UNL     1      20.100  47.038  47.794  1.00  0.00    -0.325 N 
HETATM   31  H   UNL     1      19.666  47.446  48.615  1.00  0.00     0.169 HD
HETATM   32  O   UNL     1      22.162  46.821  46.712  1.00  0.00    -0.271 OA
BRANCH  30  33
HETATM   33  C   UNL     1      19.200  46.415  46.905  1.00  0.00     0.034 A 
HETATM   34  C   UNL     1      18.390  45.330  47.237  1.00  0.00     0.030 A 
HETATM   35  C   UNL     1      17.476  44.819  46.303  1.00  0.00     0.020 A 
HETATM   36  C   UNL     1      17.361  45.387  45.028  1.00  0.00     0.039 A 
HETATM   37  C   UNL     1      18.192  46.458  44.685  1.00  0.00     0.020 A 
HETATM   38  C   UNL     1      19.103  46.965  45.618  1.00  0.00     0.030 A 
BRANCH  36  39
HETATM   39  C   UNL     1      16.333  44.846  44.097  1.00  0.00     0.293 C 
HETATM   40  O   UNL     1      15.247  45.371  43.918  1.00  0.00    -0.259 OA
BRANCH  39  41
HETATM   41  O   UNL     1      16.802  43.739  43.469  1.00  0.00    -0.318 OA
BRANCH  41  42
HETATM   42  C   UNL     1      16.670  43.722  42.039  1.00  0.00     0.174 C 
HETATM   43  C   UNL     1      17.741  44.583  41.398  1.00  0.00     0.034 C 
ENDBRANCH  41  42
ENDBRANCH  39  41
ENDBRANCH  36  39
ENDBRANCH  30  33
ENDBRANCH   1  29
TORSDOF 9
ENDMDL
MODEL 9
REMARK VINA RESULT:      -8.2      4.994      8.674
REMARK  9 active torsions:
REMARK  status: ('A' for Active; 'I' for Inactive)
REMARK    1  A    between atoms: C_2  and  O_3 
REMARK    2  A    between atoms: O_3  and  C_4 
REMARK    3  A    between atoms: C_4  and  C_5 
REMARK    4  A    between atoms: C_8  and  N_9 
REMARK       I    between atoms: N_9  and  C_10 
REMARK    5  A    between atoms: C_10  and  C_11 
REMARK    6  A    between atoms: C_13  and  N_14 
REMARK    7  A    between atoms: N_17  and  C_19 
REMARK    8  A    between atoms: C_19  and  C_20 
REMARK    9  A    between atoms: C_19  and  C_26 
ROOT
HETATM    1  C   UNL     1      24.757  46.130  51.024  1.00  0.00     0.200 C 
HETATM    2  N   UNL     1      24.826  44.681  50.911  1.00  0.00    -0.211 N 
HETATM    3  C   UNL     1      25.875  44.113  50.270  1.00  0.00     0.702 C 
HETATM    4  N   UNL     1      26.737  44.733  49.541  1.00  0.00    -0.028 NA
HETATM    5  C   UNL     1      26.640  46.102  49.455  1.00  0.00     0.263 C 
HETATM    6  O   UNL     1      27.579  46.791  49.066  1.00  0.00    -0.271 OA
HETATM    7  C   UNL     1      25.308  46.744  49.755  1.00  0.00     0.141 C 
HETATM    8  H   UNL     1      24.454  44.170  51.703  1.00  0.00     0.178 HD
ENDROOT
BRANCH   3   9
HETATM    9  N   UNL     1      25.893  42.746  50.418  1.00  0.00    -0.213 N 
HETATM   10  C   UNL     1      27.157  42.057  50.065  1.00  0.00     0.169 C 
HETATM   11  C   UNL     1      27.227  41.754  48.551  1.00  0.00     0.256 C 
HETATM   12  N   UNL     1      26.018  40.907  48.149  1.00  0.00    -0.056 N 
HETATM   13  H   UNL     1      25.972  40.096  48.771  1.00  0.00     0.281 HD
HETATM   14  C   UNL     1      24.743  41.703  48.442  1.00  0.00     0.256 C 
HETATM   15  C   UNL     1      24.686  42.021  49.952  1.00  0.00     0.169 C 
BRANCH  12  16
HETATM   16  C   UNL     1      26.061  40.319  46.742  1.00  0.00     0.254 C 
BRANCH  16  17
HETATM   17  C   UNL     1      27.079  39.197  46.576  1.00  0.00    -0.023 A 
HETATM   18  C   UNL     1      27.683  38.921  45.336  1.00  0.00     0.009 A 
HETATM   19  C   UNL     1      28.605  37.880  45.210  1.00  0.00     0.001 A 
HETATM   20  C   UNL     1      28.938  37.103  46.316  1.00  0.00     0.000 A 
HETATM   21  C   UNL     1      28.354  37.365  47.552  1.00  0.00     0.001 A 
HETATM   22  C   UNL     1      27.431  38.403  47.684  1.00  0.00     0.009 A 
ENDBRANCH  16  17
BRANCH  16  23
HETATM   23  C   UNL     1      24.684  40.017  46.130  1.00  0.00    -0.023 A 
HETATM   24  C   UNL     1      23.853  38.954  46.534  1.00  0.00     0.009 A 
HETATM   25  C   UNL     1      22.594  38.764  45.952  1.00  0.00     0.001 A 
HETATM   26  C   UNL     1      22.141  39.626  44.959  1.00  0.00     0.000 A 
HETATM   27  C   UNL     1      22.940  40.683  44.543  1.00  0.00     0.001 A 
HETATM   28  C   UNL     1      24.195  40.880  45.126  1.00  0.00     0.009 A 
ENDBRANCH  16  23
ENDBRANCH  12  16
ENDBRANCH   3   9
BRANCH   1  29
HETATM   29  C   UNL     1      25.504  46.640  52.280  1.00  0.00     0.246 C 
HETATM   30  N   UNL     1      26.513  45.773  52.677  1.00  0.00    -0.325 N 
HETATM   31  H   UNL     1      26.707  44.977  52.079  1.00  0.00     0.169 HD
HETATM   32  O   UNL     1      25.209  47.710  52.807  1.00  0.00    -0.271 OA
BRANCH  30  33
HETATM   33  C   UNL     1      27.318  45.846  53.832  1.00  0.00     0.034 A 
HETATM   34  C   UNL     1      27.255  46.875  54.772  1.00  0.00     0.030 A 
HETATM   35  C   UNL     1      28.052  46.827  55.926  1.00  0.00     0.020 A 
HETATM   36  C   UNL     1      28.918  45.751  56.155  1.00  0.00     0.039 A 
HETATM   37  C   UNL     1      29.002  44.733  55.200  1.00  0.00     0.020 A 
HETATM   38  C   UNL     1      28.207  44.783  54.049  1.00  0.00     0.030 A 
BRANCH  36  39
HETATM   39  C   UNL     1      29.696  45.719  57.424  1.00  0.00     0.293 C 
HETATM   40  O   UNL     1      29.198  45.914  58.520  1.00  0.00    -0.259 OA
BRANCH  39  41
HETATM   41  O   UNL     1      30.991  45.405  57.175  1.00  0.00    -0.318 OA
BRANCH  41  42
HETATM   42  C   UNL     1      31.544  44.339  57.961  1.00  0.00     0.174 C 
HETATM   43  C   UNL     1      31.605  43.060  57.150  1.00  0.00     0.034 C 
ENDBRANCH  41  42
ENDBRANCH  39  41
ENDBRANCH  36  39
ENDBRANCH  30  33
ENDBRANCH   1  29
TORSDOF 9
ENDMDL
MODEL 10
REMARK VINA RESULT:      -8.2      1.303      3.255
REMARK  9 active torsions:
REMARK  status: ('A' for Active; 'I' for Inactive)
REMARK    1  A    between atoms: C_2  and  O_3 
REMARK    2  A    between atoms: O_3  and  C_4 
REMARK    3  A    between atoms: C_4  and  C_5 
REMARK    4  A    between atoms: C_8  and  N_9 
REMARK       I    between atoms: N_9  and  C_10 
REMARK    5  A    between atoms: C_10  and  C_11 
REMARK    6  A    between atoms: C_13  and  N_14 
REMARK    7  A    between atoms: N_17  and  C_19 
REMARK    8  A    between atoms: C_19  and  C_20 
REMARK    9  A    between atoms: C_19  and  C_26 
ROOT
HETATM    1  C   UNL     1      22.895  44.396  46.481  1.00  0.00     0.200 C 
HETATM    2  N   UNL     1      21.682  45.019  46.988  1.00  0.00    -0.211 N 
HETATM    3  C   UNL     1      20.565  44.269  47.142  1.00  0.00     0.702 C 
HETATM    4  N   UNL     1      20.385  43.082  46.676  1.00  0.00    -0.028 NA
HETATM    5  C   UNL     1      21.438  42.480  46.027  1.00  0.00     0.263 C 
HETATM    6  O   UNL     1      21.471  41.267  45.844  1.00  0.00    -0.271 OA
HETATM    7  C   UNL     1      22.515  43.360  45.445  1.00  0.00     0.141 C 
HETATM    8  H   UNL     1      21.828  45.752  47.672  1.00  0.00     0.178 HD
ENDROOT
BRANCH   3   9
HETATM    9  N   UNL     1      19.572  44.950  47.806  1.00  0.00    -0.213 N 
HETATM   10  C   UNL     1      18.510  45.558  46.970  1.00  0.00     0.169 C 
HETATM   11  C   UNL     1      18.930  46.952  46.454  1.00  0.00     0.256 C 
HETATM   12  N   UNL     1      19.261  47.853  47.647  1.00  0.00    -0.056 N 
HETATM   13  H   UNL     1      18.471  47.829  48.297  1.00  0.00     0.281 HD
HETATM   14  C   UNL     1      20.428  47.233  48.420  1.00  0.00     0.256 C 
HETATM   15  C   UNL     1      20.012  45.831  48.916  1.00  0.00     0.169 C 
BRANCH  12  16
HETATM   16  C   UNL     1      19.459  49.331  47.324  1.00  0.00     0.254 C 
BRANCH  16  17
HETATM   17  C   UNL     1      18.172  50.146  47.367  1.00  0.00    -0.023 A 
HETATM   18  C   UNL     1      17.978  51.269  46.542  1.00  0.00     0.009 A 
HETATM   19  C   UNL     1      16.794  52.005  46.608  1.00  0.00     0.001 A 
HETATM   20  C   UNL     1      15.786  51.630  47.493  1.00  0.00     0.000 A 
HETATM   21  C   UNL     1      15.958  50.519  48.313  1.00  0.00     0.001 A 
HETATM   22  C   UNL     1      17.141  49.781  48.252  1.00  0.00     0.009 A 
ENDBRANCH  16  17
BRANCH  16  23
HETATM   23  C   UNL     1      20.647  49.991  48.042  1.00  0.00    -0.023 A 
HETATM   24  C   UNL     1      20.613  50.455  49.371  1.00  0.00     0.009 A 
HETATM   25  C   UNL     1      21.749  51.013  49.968  1.00  0.00     0.001 A 
HETATM   26  C   UNL     1      22.937  51.122  49.254  1.00  0.00     0.000 A 
HETATM   27  C   UNL     1      22.998  50.671  47.941  1.00  0.00     0.001 A 
HETATM   28  C   UNL     1      21.869  50.106  47.344  1.00  0.00     0.009 A 
ENDBRANCH  16  23
ENDBRANCH  12  16
ENDBRANCH   3   9
BRANCH   1  29
HETATM   29  C   UNL     1      23.741  43.784  47.623  1.00  0.00     0.246 C 
HETATM   30  N   UNL     1      24.068  44.721  48.593  1.00  0.00    -0.325 N 
HETATM   31  H   UNL     1      23.663  45.647  48.504  1.00  0.00     0.169 HD
HETATM   32  O   UNL     1      24.037  42.591  47.628  1.00  0.00    -0.271 OA
BRANCH  30  33
HETATM   33  C   UNL     1      24.916  44.560  49.708  1.00  0.00     0.034 A 
HETATM   34  C   UNL     1      26.306  44.478  49.635  1.00  0.00     0.030 A 
HETATM   35  C   UNL     1      27.071  44.383  50.807  1.00  0.00     0.020 A 
HETATM   36  C   UNL     1      26.456  44.372  52.065  1.00  0.00     0.039 A 
HETATM   37  C   UNL     1      25.061  44.427  52.139  1.00  0.00     0.020 A 
HETATM   38  C   UNL     1      24.300  44.519  50.968  1.00  0.00     0.030 A 
BRANCH  36  39
HETATM   39  C   UNL     1      27.317  44.332  53.279  1.00  0.00     0.293 C 
HETATM   40  O   UNL     1      27.556  45.313  53.965  1.00  0.00    -0.259 OA
BRANCH  39  41
HETATM   41  O   UNL     1      27.740  43.066  53.516  1.00  0.00    -0.318 OA
BRANCH  41  42
HETATM   42  C   UNL     1      28.998  42.937  54.195  1.00  0.00     0.174 C 
HETATM   43  C   UNL     1      30.122  42.747  53.195  1.00  0.00     0.034 C 
ENDBRANCH  41  42
ENDBRANCH  39  41
ENDBRANCH  36  39
ENDBRANCH  30  33
ENDBRANCH   1  29
TORSDOF 9
ENDMDL
