MODEL 1
REMARK VINA RESULT:      -9.4      0.000      0.000
REMARK  7 active torsions:
REMARK  status: ('A' for Active; 'I' for Inactive)
REMARK    1  A    between atoms: O_2  and  C_3 
REMARK    2  A    between atoms: C_5  and  N_6 
REMARK    3  A    between atoms: C_7  and  O_8 
REMARK    4  A    between atoms: C_7  and  C_9 
REMARK       I    between atoms: C_9  and  N_10 
REMARK    5  A    between atoms: N_10  and  C_11 
REMARK    6  A    between atoms: C_11  and  C_12 
REMARK    7  A    between atoms: C_12  and  C_13 
ROOT
HETATM    1  N   UNL     1      25.102  43.334  50.147  1.00  0.00    -0.254 N 
HETATM    2  C   UNL     1      26.311  42.639  49.680  1.00  0.00     0.256 C 
HETATM    3  C   UNL     1      26.043  41.689  48.528  1.00  0.00     0.034 A 
HETATM    4  C   UNL     1      24.765  41.161  48.395  1.00  0.00     0.048 A 
HETATM    5  N   UNL     1      23.771  41.610  49.254  1.00  0.00    -0.308 N 
HETATM    6  C   UNL     1      23.870  42.698  50.073  1.00  0.00     0.330 C 
HETATM    7  O   UNL     1      22.853  43.033  50.681  1.00  0.00    -0.246 OA
HETATM    8  C   UNL     1      27.049  41.237  47.657  1.00  0.00     0.015 A 
HETATM    9  C   UNL     1      26.764  40.283  46.679  1.00  0.00     0.001 A 
HETATM   10  C   UNL     1      25.477  39.759  46.570  1.00  0.00     0.002 A 
HETATM   11  C   UNL     1      24.473  40.195  47.434  1.00  0.00     0.030 A 
HETATM   12  H   UNL     1      22.831  41.242  49.172  1.00  0.00     0.170 HD
ENDROOT
BRANCH   2  13
HETATM   13  O   UNL     1      27.227  43.610  49.163  1.00  0.00    -0.359 OA
HETATM   14  H   UNL     1      27.873  43.763  49.879  1.00  0.00     0.213 HD
ENDBRANCH   2  13
BRANCH   2  15
HETATM   15  C   UNL     1      26.979  41.821  50.862  1.00  0.00     0.279 C 
HETATM   16  N   UNL     1      28.130  42.340  51.424  1.00  0.00    -0.356 N 
HETATM   17  H   UNL     1      28.355  43.311  51.231  1.00  0.00     0.162 HD
HETATM   18  O   UNL     1      26.472  40.767  51.261  1.00  0.00    -0.268 OA
BRANCH  16  19
HETATM   19  C   UNL     1      28.710  41.726  52.603  1.00  0.00     0.127 C 
BRANCH  19  20
HETATM   20  C   UNL     1      30.034  42.370  53.024  1.00  0.00     0.058 C 
BRANCH  20  21
HETATM   21  C   UNL     1      29.899  43.345  54.173  1.00  0.00    -0.057 A 
HETATM   22  C   UNL     1      28.830  44.252  54.225  1.00  0.00     0.009 A 
HETATM   23  C   UNL     1      28.704  45.143  55.293  1.00  0.00     0.024 A 
HETATM   24  C   UNL     1      29.640  45.125  56.324  1.00  0.00     0.034 A 
HETATM   25 CL   UNL     1      29.482  46.217  57.643  1.00  0.00    -0.084 Cl
HETATM   26  C   UNL     1      30.699  44.221  56.295  1.00  0.00     0.024 A 
HETATM   27  C   UNL     1      30.829  43.333  55.224  1.00  0.00     0.009 A 
ENDBRANCH  20  21
ENDBRANCH  19  20
ENDBRANCH  16  19
ENDBRANCH   2  15
BRANCH   1  28
HETATM   28  C   UNL     1      25.195  44.604  50.821  1.00  0.00     0.045 A 
HETATM   29  C   UNL     1      24.820  45.816  50.215  1.00  0.00     0.066 A 
HETATM   30  C   UNL     1      24.899  47.029  50.909  1.00  0.00     0.070 A 
HETATM   31  C   UNL     1      25.320  47.035  52.239  1.00  0.00     0.037 A 
HETATM   32  C   UNL     1      25.698  45.849  52.858  1.00  0.00     0.005 A 
HETATM   33  C   UNL     1      25.646  44.647  52.149  1.00  0.00     0.030 A 
BRANCH  30  34
HETATM   34  O   UNL     1      24.585  48.262  50.405  1.00  0.00    -0.356 OA
HETATM   35  C   UNL     1      23.821  48.287  49.204  1.00  0.00     0.210 C 
ENDBRANCH  30  34
ENDBRANCH   1  28
TORSDOF 7
ENDMDL
MODEL 2
REMARK VINA RESULT:      -8.5      7.186     11.089
REMARK  7 active torsions:
REMARK  status: ('A' for Active; 'I' for Inactive)
REMARK    1  A    between atoms: O_2  and  C_3 
REMARK    2  A    between atoms: C_5  and  N_6 
REMARK    3  A    between atoms: C_7  and  O_8 
REMARK    4  A    between atoms: C_7  and  C_9 
REMARK       I    between atoms: C_9  and  N_10 
REMARK    5  A    between atoms: N_10  and  C_11 
REMARK    6  A    between atoms: C_11  and  C_12 
REMARK    7  A    between atoms: C_12  and  C_13 
ROOT
HETATM    1  N   UNL     1      22.015  49.792  49.023  1.00  0.00    -0.254 N 
HETATM    2  C   UNL     1      21.028  49.236  48.084  1.00  0.00     0.256 C 
HETATM    3  C   UNL     1      19.990  50.250  47.642  1.00  0.00     0.034 A 
HETATM    4  C   UNL     1      19.717  51.321  48.485  1.00  0.00     0.048 A 
HETATM    5  N   UNL     1      20.480  51.469  49.635  1.00  0.00    -0.308 N 
HETATM    6  C   UNL     1      21.636  50.795  49.905  1.00  0.00     0.330 C 
HETATM    7  O   UNL     1      22.256  51.133  50.913  1.00  0.00    -0.246 OA
HETATM    8  C   UNL     1      19.220  50.100  46.477  1.00  0.00     0.015 A 
HETATM    9  C   UNL     1      18.207  51.012  46.175  1.00  0.00     0.001 A 
HETATM   10  C   UNL     1      17.943  52.073  47.039  1.00  0.00     0.002 A 
HETATM   11  C   UNL     1      18.696  52.227  48.202  1.00  0.00     0.030 A 
HETATM   12  H   UNL     1      20.301  52.245  50.261  1.00  0.00     0.170 HD
ENDROOT
BRANCH   2  13
HETATM   13  O   UNL     1      21.707  48.843  46.886  1.00  0.00    -0.359 OA
HETATM   14  H   UNL     1      21.426  49.485  46.207  1.00  0.00     0.213 HD
ENDBRANCH   2  13
BRANCH   2  15
HETATM   15  C   UNL     1      20.280  47.997  48.729  1.00  0.00     0.279 C 
HETATM   16  N   UNL     1      20.295  46.807  48.025  1.00  0.00    -0.356 N 
HETATM   17  H   UNL     1      20.970  46.712  47.273  1.00  0.00     0.162 HD
HETATM   18  O   UNL     1      19.715  48.104  49.823  1.00  0.00    -0.268 OA
BRANCH  16  19
HETATM   19  C   UNL     1      19.761  45.598  48.620  1.00  0.00     0.127 C 
BRANCH  19  20
HETATM   20  C   UNL     1      18.489  45.101  47.928  1.00  0.00     0.058 C 
BRANCH  20  21
HETATM   21  C   UNL     1      17.536  46.208  47.535  1.00  0.00    -0.057 A 
HETATM   22  C   UNL     1      16.837  46.936  48.511  1.00  0.00     0.009 A 
HETATM   23  C   UNL     1      15.967  47.964  48.143  1.00  0.00     0.024 A 
HETATM   24  C   UNL     1      15.798  48.281  46.798  1.00  0.00     0.034 A 
HETATM   25 CL   UNL     1      14.731  49.551  46.345  1.00  0.00    -0.084 Cl
HETATM   26  C   UNL     1      16.494  47.578  45.818  1.00  0.00     0.024 A 
HETATM   27  C   UNL     1      17.361  46.545  46.185  1.00  0.00     0.009 A 
ENDBRANCH  20  21
ENDBRANCH  19  20
ENDBRANCH  16  19
ENDBRANCH   2  15
BRANCH   1  28
HETATM   28  C   UNL     1      23.326  49.209  49.146  1.00  0.00     0.045 A 
HETATM   29  C   UNL     1      24.491  49.852  48.691  1.00  0.00     0.066 A 
HETATM   30  C   UNL     1      25.752  49.267  48.852  1.00  0.00     0.070 A 
HETATM   31  C   UNL     1      25.864  48.042  49.509  1.00  0.00     0.037 A 
HETATM   32  C   UNL     1      24.726  47.386  49.964  1.00  0.00     0.005 A 
HETATM   33  C   UNL     1      23.468  47.962  49.773  1.00  0.00     0.030 A 
BRANCH  30  34
HETATM   34  O   UNL     1      26.941  49.796  48.424  1.00  0.00    -0.356 OA
HETATM   35  C   UNL     1      28.104  49.435  49.160  1.00  0.00     0.210 C 
ENDBRANCH  30  34
ENDBRANCH   1  28
TORSDOF 7
ENDMDL
MODEL 3
REMARK VINA RESULT:      -8.3     11.687     14.222
REMARK  7 active torsions:
REMARK  status: ('A' for Active; 'I' for Inactive)
REMARK    1  A    between atoms: O_2  and  C_3 
REMARK    2  A    between atoms: C_5  and  N_6 
REMARK    3  A    between atoms: C_7  and  O_8 
REMARK    4  A    between atoms: C_7  and  C_9 
REMARK       I    between atoms: C_9  and  N_10 
REMARK    5  A    between atoms: N_10  and  C_11 
REMARK    6  A    between atoms: C_11  and  C_12 
REMARK    7  A    between atoms: C_12  and  C_13 
ROOT
HETATM    1  N   UNL     1      27.962  48.307  39.362  1.00  0.00    -0.254 N 
HETATM    2  C   UNL     1      29.358  48.683  39.094  1.00  0.00     0.256 C 
HETATM    3  C   UNL     1      30.257  48.536  40.308  1.00  0.00     0.034 A 
HETATM    4  C   UNL     1      29.677  48.617  41.568  1.00  0.00     0.048 A 
HETATM    5  N   UNL     1      28.296  48.718  41.656  1.00  0.00    -0.308 N 
HETATM    6  C   UNL     1      27.424  48.512  40.626  1.00  0.00     0.330 C 
HETATM    7  O   UNL     1      26.224  48.520  40.900  1.00  0.00    -0.246 OA
HETATM    8  C   UNL     1      31.655  48.432  40.218  1.00  0.00     0.015 A 
HETATM    9  C   UNL     1      32.439  48.404  41.373  1.00  0.00     0.001 A 
HETATM   10  C   UNL     1      31.838  48.496  42.626  1.00  0.00     0.002 A 
HETATM   11  C   UNL     1      30.452  48.608  42.727  1.00  0.00     0.030 A 
HETATM   12  H   UNL     1      27.852  48.773  42.565  1.00  0.00     0.170 HD
ENDROOT
BRANCH   2  13
HETATM   13  O   UNL     1      29.895  47.785  38.116  1.00  0.00    -0.359 OA
HETATM   14  H   UNL     1      29.131  47.499  37.582  1.00  0.00     0.213 HD
ENDBRANCH   2  13
BRANCH   2  15
HETATM   15  C   UNL     1      29.446  50.179  38.580  1.00  0.00     0.279 C 
HETATM   16  N   UNL     1      28.614  51.107  39.179  1.00  0.00    -0.356 N 
HETATM   17  H   UNL     1      28.176  50.852  40.059  1.00  0.00     0.162 HD
HETATM   18  O   UNL     1      30.238  50.491  37.684  1.00  0.00    -0.268 OA
BRANCH  16  19
HETATM   19  C   UNL     1      28.744  52.517  38.864  1.00  0.00     0.127 C 
BRANCH  19  20
HETATM   20  C   UNL     1      29.110  53.371  40.081  1.00  0.00     0.058 C 
BRANCH  20  21
HETATM   21  C   UNL     1      30.328  52.876  40.830  1.00  0.00    -0.057 A 
HETATM   22  C   UNL     1      30.265  52.603  42.205  1.00  0.00     0.009 A 
HETATM   23  C   UNL     1      31.389  52.135  42.889  1.00  0.00     0.024 A 
HETATM   24  C   UNL     1      32.581  51.926  42.201  1.00  0.00     0.034 A 
HETATM   25 CL   UNL     1      33.964  51.345  43.041  1.00  0.00    -0.084 Cl
HETATM   26  C   UNL     1      32.657  52.179  40.834  1.00  0.00     0.024 A 
HETATM   27  C   UNL     1      31.534  52.652  40.149  1.00  0.00     0.009 A 
ENDBRANCH  20  21
ENDBRANCH  19  20
ENDBRANCH  16  19
ENDBRANCH   2  15
BRANCH   1  28
HETATM   28  C   UNL     1      27.097  47.870  38.296  1.00  0.00     0.045 A 
HETATM   29  C   UNL     1      26.796  46.517  38.066  1.00  0.00     0.066 A 
HETATM   30  C   UNL     1      25.930  46.132  37.035  1.00  0.00     0.070 A 
HETATM   31  C   UNL     1      25.323  47.107  36.245  1.00  0.00     0.037 A 
HETATM   32  C   UNL     1      25.609  48.452  36.452  1.00  0.00     0.005 A 
HETATM   33  C   UNL     1      26.497  48.827  37.462  1.00  0.00     0.030 A 
BRANCH  30  34
HETATM   34  O   UNL     1      25.592  44.844  36.713  1.00  0.00    -0.356 OA
HETATM   35  C   UNL     1      26.666  43.932  36.511  1.00  0.00     0.210 C 
ENDBRANCH  30  34
ENDBRANCH   1  28
TORSDOF 7
ENDMDL
MODEL 4
REMARK VINA RESULT:      -8.1     12.921     15.608
REMARK  7 active torsions:
REMARK  status: ('A' for Active; 'I' for Inactive)
REMARK    1  A    between atoms: O_2  and  C_3 
REMARK    2  A    between atoms: C_5  and  N_6 
REMARK    3  A    between atoms: C_7  and  O_8 
REMARK    4  A    between atoms: C_7  and  C_9 
REMARK       I    between atoms: C_9  and  N_10 
REMARK    5  A    between atoms: N_10  and  C_11 
REMARK    6  A    between atoms: C_11  and  C_12 
REMARK    7  A    between atoms: C_12  and  C_13 
ROOT
HETATM    1  N   UNL     1      33.189  50.351  41.616  1.00  0.00    -0.254 N 
HETATM    2  C   UNL     1      34.186  51.134  40.870  1.00  0.00     0.256 C 
HETATM    3  C   UNL     1      35.299  51.672  41.749  1.00  0.00     0.034 A 
HETATM    4  C   UNL     1      35.033  51.870  43.098  1.00  0.00     0.048 A 
HETATM    5  N   UNL     1      33.802  51.467  43.596  1.00  0.00    -0.308 N 
HETATM    6  C   UNL     1      32.906  50.676  42.936  1.00  0.00     0.330 C 
HETATM    7  O   UNL     1      31.915  50.309  43.567  1.00  0.00    -0.246 OA
HETATM    8  C   UNL     1      36.545  52.078  41.244  1.00  0.00     0.015 A 
HETATM    9  C   UNL     1      37.494  52.663  42.086  1.00  0.00     0.001 A 
HETATM   10  C   UNL     1      37.203  52.861  43.434  1.00  0.00     0.002 A 
HETATM   11  C   UNL     1      35.966  52.469  43.944  1.00  0.00     0.030 A 
HETATM   12  H   UNL     1      33.589  51.598  44.578  1.00  0.00     0.170 HD
ENDROOT
BRANCH   2  13
HETATM   13  O   UNL     1      34.832  50.273  39.926  1.00  0.00    -0.359 OA
HETATM   14  H   UNL     1      34.521  50.569  39.051  1.00  0.00     0.213 HD
ENDBRANCH   2  13
BRANCH   2  15
HETATM   15  C   UNL     1      33.497  52.353  40.127  1.00  0.00     0.279 C 
HETATM   16  N   UNL     1      32.374  52.905  40.715  1.00  0.00    -0.356 N 
HETATM   17  H   UNL     1      32.189  52.677  41.687  1.00  0.00     0.162 HD
HETATM   18  O   UNL     1      33.962  52.787  39.067  1.00  0.00    -0.268 OA
BRANCH  16  19
HETATM   19  C   UNL     1      31.781  54.111  40.171  1.00  0.00     0.127 C 
BRANCH  19  20
HETATM   20  C   UNL     1      30.364  54.369  40.690  1.00  0.00     0.058 C 
BRANCH  20  21
HETATM   21  C   UNL     1      29.414  53.211  40.469  1.00  0.00    -0.057 A 
HETATM   22  C   UNL     1      28.985  52.418  41.544  1.00  0.00     0.009 A 
HETATM   23  C   UNL     1      28.100  51.358  41.336  1.00  0.00     0.024 A 
HETATM   24  C   UNL     1      27.629  51.090  40.054  1.00  0.00     0.034 A 
HETATM   25 CL   UNL     1      26.535  49.789  39.798  1.00  0.00    -0.084 Cl
HETATM   26  C   UNL     1      28.035  51.876  38.978  1.00  0.00     0.024 A 
HETATM   27  C   UNL     1      28.924  52.934  39.184  1.00  0.00     0.009 A 
ENDBRANCH  20  21
ENDBRANCH  19  20
ENDBRANCH  16  19
ENDBRANCH   2  15
BRANCH   1  28
HETATM   28  C   UNL     1      32.392  49.349  40.955  1.00  0.00     0.045 A 
HETATM   29  C   UNL     1      31.420  49.665  39.990  1.00  0.00     0.066 A 
HETATM   30  C   UNL     1      30.682  48.662  39.350  1.00  0.00     0.070 A 
HETATM   31  C   UNL     1      30.940  47.323  39.642  1.00  0.00     0.037 A 
HETATM   32  C   UNL     1      31.895  46.988  40.596  1.00  0.00     0.005 A 
HETATM   33  C   UNL     1      32.605  47.994  41.253  1.00  0.00     0.030 A 
BRANCH  30  34
HETATM   34  O   UNL     1      29.699  48.863  38.418  1.00  0.00    -0.356 OA
HETATM   35  C   UNL     1      28.801  47.783  38.192  1.00  0.00     0.210 C 
ENDBRANCH  30  34
ENDBRANCH   1  28
TORSDOF 7
ENDMDL
MODEL 5
REMARK VINA RESULT:      -8.0      4.011      6.220
REMARK  7 active torsions:
REMARK  status: ('A' for Active; 'I' for Inactive)
REMARK    1  A    between atoms: O_2  and  C_3 
REMARK    2  A    between atoms: C_5  and  N_6 
REMARK    3  A    between atoms: C_7  and  O_8 
REMARK    4  A    between atoms: C_7  and  C_9 
REMARK       I    between atoms: C_9  and  N_10 
REMARK    5  A    between atoms: N_10  and  C_11 
REMARK    6  A    between atoms: C_11  and  C_12 
REMARK    7  A    between atoms: C_12  and  C_13 
ROOT
HETATM    1  N   UNL     1      21.154  47.401  48.254  1.00  0.00    -0.254 N 
HETATM    2  C   UNL     1      21.266  46.142  47.502  1.00  0.00     0.256 C 
HETATM    3  C   UNL     1      19.934  45.644  46.974  1.00  0.00     0.034 A 
HETATM    4  C   UNL     1      18.777  46.031  47.639  1.00  0.00     0.048 A 
HETATM    5  N   UNL     1      18.887  46.937  48.685  1.00  0.00    -0.308 N 
HETATM    6  C   UNL     1      20.001  47.671  48.978  1.00  0.00     0.330 C 
HETATM    7  O   UNL     1      19.893  48.520  49.863  1.00  0.00    -0.246 OA
HETATM    8  C   UNL     1      19.824  44.729  45.914  1.00  0.00     0.015 A 
HETATM    9  C   UNL     1      18.576  44.226  45.539  1.00  0.00     0.001 A 
HETATM   10  C   UNL     1      17.430  44.620  46.227  1.00  0.00     0.002 A 
HETATM   11  C   UNL     1      17.529  45.522  47.285  1.00  0.00     0.030 A 
HETATM   12  H   UNL     1      18.056  47.236  49.181  1.00  0.00     0.170 HD
ENDROOT
BRANCH   2  13
HETATM   13  O   UNL     1      22.071  46.371  46.341  1.00  0.00    -0.359 OA
HETATM   14  H   UNL     1      22.279  47.324  46.355  1.00  0.00     0.213 HD
ENDBRANCH   2  13
BRANCH   2  15
HETATM   15  C   UNL     1      21.906  45.007  48.405  1.00  0.00     0.279 C 
HETATM   16  N   UNL     1      23.241  44.712  48.205  1.00  0.00    -0.356 N 
HETATM   17  H   UNL     1      23.800  45.379  47.681  1.00  0.00     0.162 HD
HETATM   18  O   UNL     1      21.226  44.424  49.257  1.00  0.00    -0.268 OA
BRANCH  16  19
HETATM   19  C   UNL     1      23.929  43.794  49.092  1.00  0.00     0.127 C 
BRANCH  19  20
HETATM   20  C   UNL     1      25.429  44.077  49.202  1.00  0.00     0.058 C 
BRANCH  20  21
HETATM   21  C   UNL     1      25.865  44.528  50.579  1.00  0.00    -0.057 A 
HETATM   22  C   UNL     1      25.124  45.484  51.290  1.00  0.00     0.009 A 
HETATM   23  C   UNL     1      25.525  45.889  52.565  1.00  0.00     0.024 A 
HETATM   24  C   UNL     1      26.663  45.333  53.143  1.00  0.00     0.034 A 
HETATM   25 CL   UNL     1      27.154  45.827  54.715  1.00  0.00    -0.084 Cl
HETATM   26  C   UNL     1      27.402  44.374  52.456  1.00  0.00     0.024 A 
HETATM   27  C   UNL     1      27.005  43.971  51.178  1.00  0.00     0.009 A 
ENDBRANCH  20  21
ENDBRANCH  19  20
ENDBRANCH  16  19
ENDBRANCH   2  15
BRANCH   1  28
HETATM   28  C   UNL     1      22.280  48.292  48.374  1.00  0.00     0.045 A 
HETATM   29  C   UNL     1      23.451  47.948  49.073  1.00  0.00     0.066 A 
HETATM   30  C   UNL     1      24.536  48.829  49.147  1.00  0.00     0.070 A 
HETATM   31  C   UNL     1      24.475  50.055  48.485  1.00  0.00     0.037 A 
HETATM   32  C   UNL     1      23.326  50.417  47.790  1.00  0.00     0.005 A 
HETATM   33  C   UNL     1      22.236  49.546  47.746  1.00  0.00     0.030 A 
BRANCH  30  34
HETATM   34  O   UNL     1      25.706  48.603  49.821  1.00  0.00    -0.356 OA
HETATM   35  C   UNL     1      26.913  48.794  49.090  1.00  0.00     0.210 C 
ENDBRANCH  30  34
ENDBRANCH   1  28
TORSDOF 7
ENDMDL
MODEL 6
REMARK VINA RESULT:      -8.0     11.423     13.774
REMARK  7 active torsions:
REMARK  status: ('A' for Active; 'I' for Inactive)
REMARK    1  A    between atoms: O_2  and  C_3 
REMARK    2  A    between atoms: C_5  and  N_6 
REMARK    3  A    between atoms: C_7  and  O_8 
REMARK    4  A    between atoms: C_7  and  C_9 
REMARK       I    between atoms: C_9  and  N_10 
REMARK    5  A    between atoms: N_10  and  C_11 
REMARK    6  A    between atoms: C_11  and  C_12 
REMARK    7  A    between atoms: C_12  and  C_13 
ROOT
HETATM    1  N   UNL     1      27.316  48.693  40.084  1.00  0.00    -0.254 N 
HETATM    2  C   UNL     1      28.096  49.541  40.998  1.00  0.00     0.256 C 
HETATM    3  C   UNL     1      28.374  50.922  40.436  1.00  0.00     0.034 A 
HETATM    4  C   UNL     1      28.390  51.079  39.055  1.00  0.00     0.048 A 
HETATM    5  N   UNL     1      28.046  49.993  38.262  1.00  0.00    -0.308 N 
HETATM    6  C   UNL     1      27.463  48.843  38.712  1.00  0.00     0.330 C 
HETATM    7  O   UNL     1      27.109  48.027  37.860  1.00  0.00    -0.246 OA
HETATM    8  C   UNL     1      28.721  52.022  41.239  1.00  0.00     0.015 A 
HETATM    9  C   UNL     1      29.067  53.243  40.658  1.00  0.00     0.001 A 
HETATM   10  C   UNL     1      29.086  53.375  39.271  1.00  0.00     0.002 A 
HETATM   11  C   UNL     1      28.751  52.288  38.464  1.00  0.00     0.030 A 
HETATM   12  H   UNL     1      28.046  50.086  37.253  1.00  0.00     0.170 HD
ENDROOT
BRANCH   2  13
HETATM   13  O   UNL     1      27.327  49.764  42.185  1.00  0.00    -0.359 OA
HETATM   14  H   UNL     1      27.672  50.594  42.564  1.00  0.00     0.213 HD
ENDBRANCH   2  13
BRANCH   2  15
HETATM   15  C   UNL     1      29.479  48.855  41.355  1.00  0.00     0.279 C 
HETATM   16  N   UNL     1      30.453  48.838  40.374  1.00  0.00    -0.356 N 
HETATM   17  H   UNL     1      30.336  49.461  39.581  1.00  0.00     0.162 HD
HETATM   18  O   UNL     1      29.667  48.365  42.474  1.00  0.00    -0.268 OA
BRANCH  16  19
HETATM   19  C   UNL     1      31.788  48.361  40.677  1.00  0.00     0.127 C 
BRANCH  19  20
HETATM   20  C   UNL     1      32.553  49.285  41.629  1.00  0.00     0.058 C 
BRANCH  20  21
HETATM   21  C   UNL     1      33.179  50.481  40.946  1.00  0.00    -0.057 A 
HETATM   22  C   UNL     1      32.378  51.479  40.369  1.00  0.00     0.009 A 
HETATM   23  C   UNL     1      32.961  52.587  39.749  1.00  0.00     0.024 A 
HETATM   24  C   UNL     1      34.347  52.711  39.712  1.00  0.00     0.034 A 
HETATM   25 CL   UNL     1      35.064  54.078  38.955  1.00  0.00    -0.084 Cl
HETATM   26  C   UNL     1      35.155  51.737  40.292  1.00  0.00     0.024 A 
HETATM   27  C   UNL     1      34.573  50.625  40.908  1.00  0.00     0.009 A 
ENDBRANCH  20  21
ENDBRANCH  19  20
ENDBRANCH  16  19
ENDBRANCH   2  15
BRANCH   1  28
HETATM   28  C   UNL     1      26.516  47.606  40.588  1.00  0.00     0.045 A 
HETATM   29  C   UNL     1      27.072  46.393  41.030  1.00  0.00     0.066 A 
HETATM   30  C   UNL     1      26.265  45.368  41.538  1.00  0.00     0.070 A 
HETATM   31  C   UNL     1      24.888  45.564  41.646  1.00  0.00     0.037 A 
HETATM   32  C   UNL     1      24.316  46.755  41.213  1.00  0.00     0.005 A 
HETATM   33  C   UNL     1      25.124  47.761  40.679  1.00  0.00     0.030 A 
BRANCH  30  34
HETATM   34  O   UNL     1      26.702  44.144  41.969  1.00  0.00    -0.356 OA
HETATM   35  C   UNL     1      25.820  43.409  42.811  1.00  0.00     0.210 C 
ENDBRANCH  30  34
ENDBRANCH   1  28
TORSDOF 7
ENDMDL
MODEL 7
REMARK VINA RESULT:      -7.9     11.841     13.392
REMARK  7 active torsions:
REMARK  status: ('A' for Active; 'I' for Inactive)
REMARK    1  A    between atoms: O_2  and  C_3 
REMARK    2  A    between atoms: C_5  and  N_6 
REMARK    3  A    between atoms: C_7  and  O_8 
REMARK    4  A    between atoms: C_7  and  C_9 
REMARK       I    between atoms: C_9  and  N_10 
REMARK    5  A    between atoms: N_10  and  C_11 
REMARK    6  A    between atoms: C_11  and  C_12 
REMARK    7  A    between atoms: C_12  and  C_13 
ROOT
HETATM    1  N   UNL     1      26.671  49.351  39.390  1.00  0.00    -0.254 N 
HETATM    2  C   UNL     1      27.705  49.498  40.426  1.00  0.00     0.256 C 
HETATM    3  C   UNL     1      28.312  50.887  40.467  1.00  0.00     0.034 A 
HETATM    4  C   UNL     1      28.287  51.651  39.307  1.00  0.00     0.048 A 
HETATM    5  N   UNL     1      27.614  51.150  38.200  1.00  0.00    -0.308 N 
HETATM    6  C   UNL     1      26.770  50.077  38.210  1.00  0.00     0.330 C 
HETATM    7  O   UNL     1      26.158  49.839  37.169  1.00  0.00    -0.246 OA
HETATM    8  C   UNL     1      28.991  51.393  41.588  1.00  0.00     0.015 A 
HETATM    9  C   UNL     1      29.620  52.639  41.533  1.00  0.00     0.001 A 
HETATM   10  C   UNL     1      29.590  53.383  40.355  1.00  0.00     0.002 A 
HETATM   11  C   UNL     1      28.926  52.887  39.235  1.00  0.00     0.030 A 
HETATM   12  H   UNL     1      27.579  51.692  37.345  1.00  0.00     0.170 HD
ENDROOT
BRANCH   2  13
HETATM   13  O   UNL     1      27.098  49.312  41.709  1.00  0.00    -0.359 OA
HETATM   14  H   UNL     1      27.800  48.943  42.276  1.00  0.00     0.213 HD
ENDBRANCH   2  13
BRANCH   2  15
HETATM   15  C   UNL     1      28.869  48.445  40.206  1.00  0.00     0.279 C 
HETATM   16  N   UNL     1      30.001  48.878  39.541  1.00  0.00    -0.356 N 
HETATM   17  H   UNL     1      30.139  49.879  39.443  1.00  0.00     0.162 HD
HETATM   18  O   UNL     1      28.758  47.288  40.626  1.00  0.00    -0.268 OA
BRANCH  16  19
HETATM   19  C   UNL     1      31.162  48.016  39.435  1.00  0.00     0.127 C 
BRANCH  19  20
HETATM   20  C   UNL     1      31.718  47.589  40.796  1.00  0.00     0.058 C 
BRANCH  20  21
HETATM   21  C   UNL     1      32.281  48.734  41.611  1.00  0.00    -0.057 A 
HETATM   22  C   UNL     1      33.528  49.295  41.296  1.00  0.00     0.009 A 
HETATM   23  C   UNL     1      34.038  50.359  42.044  1.00  0.00     0.024 A 
HETATM   24  C   UNL     1      33.300  50.875  43.105  1.00  0.00     0.034 A 
HETATM   25 CL   UNL     1      33.925  52.188  44.023  1.00  0.00    -0.084 Cl
HETATM   26  C   UNL     1      32.055  50.339  43.422  1.00  0.00     0.024 A 
HETATM   27  C   UNL     1      31.546  49.271  42.678  1.00  0.00     0.009 A 
ENDBRANCH  20  21
ENDBRANCH  19  20
ENDBRANCH  16  19
ENDBRANCH   2  15
BRANCH   1  28
HETATM   28  C   UNL     1      25.638  48.355  39.514  1.00  0.00     0.045 A 
HETATM   29  C   UNL     1      24.332  48.660  39.935  1.00  0.00     0.066 A 
HETATM   30  C   UNL     1      23.347  47.669  40.018  1.00  0.00     0.070 A 
HETATM   31  C   UNL     1      23.651  46.361  39.641  1.00  0.00     0.037 A 
HETATM   32  C   UNL     1      24.937  46.035  39.224  1.00  0.00     0.005 A 
HETATM   33  C   UNL     1      25.923  47.023  39.172  1.00  0.00     0.030 A 
BRANCH  30  34
HETATM   34  O   UNL     1      22.057  47.856  40.439  1.00  0.00    -0.356 OA
HETATM   35  C   UNL     1      21.248  48.725  39.655  1.00  0.00     0.210 C 
ENDBRANCH  30  34
ENDBRANCH   1  28
TORSDOF 7
ENDMDL
MODEL 8
REMARK VINA RESULT:      -7.9     17.136     19.374
REMARK  7 active torsions:
REMARK  status: ('A' for Active; 'I' for Inactive)
REMARK    1  A    between atoms: O_2  and  C_3 
REMARK    2  A    between atoms: C_5  and  N_6 
REMARK    3  A    between atoms: C_7  and  O_8 
REMARK    4  A    between atoms: C_7  and  C_9 
REMARK       I    between atoms: C_9  and  N_10 
REMARK    5  A    between atoms: N_10  and  C_11 
REMARK    6  A    between atoms: C_11  and  C_12 
REMARK    7  A    between atoms: C_12  and  C_13 
ROOT
HETATM    1  N   UNL     1      36.984  45.795  65.502  1.00  0.00    -0.254 N 
HETATM    2  C   UNL     1      37.711  46.319  66.668  1.00  0.00     0.256 C 
HETATM    3  C   UNL     1      37.740  47.834  66.719  1.00  0.00     0.034 A 
HETATM    4  C   UNL     1      37.614  48.535  65.526  1.00  0.00     0.048 A 
HETATM    5  N   UNL     1      37.360  47.821  64.363  1.00  0.00    -0.308 N 
HETATM    6  C   UNL     1      36.988  46.508  64.310  1.00  0.00     0.330 C 
HETATM    7  O   UNL     1      36.680  46.059  63.206  1.00  0.00    -0.246 OA
HETATM    8  C   UNL     1      37.996  48.557  67.897  1.00  0.00     0.015 A 
HETATM    9  C   UNL     1      38.113  49.947  67.863  1.00  0.00     0.001 A 
HETATM   10  C   UNL     1      37.993  50.629  66.654  1.00  0.00     0.002 A 
HETATM   11  C   UNL     1      37.747  49.922  65.478  1.00  0.00     0.030 A 
HETATM   12  H   UNL     1      37.259  48.312  63.483  1.00  0.00     0.170 HD
ENDROOT
BRANCH   2  13
HETATM   13  O   UNL     1      37.024  45.914  67.857  1.00  0.00    -0.359 OA
HETATM   14  H   UNL     1      36.374  46.619  68.033  1.00  0.00     0.213 HD
ENDBRANCH   2  13
BRANCH   2  15
HETATM   15  C   UNL     1      39.204  45.785  66.681  1.00  0.00     0.279 C 
HETATM   16  N   UNL     1      40.043  46.216  65.671  1.00  0.00    -0.356 N 
HETATM   17  H   UNL     1      39.751  47.021  65.125  1.00  0.00     0.162 HD
HETATM   18  O   UNL     1      39.589  45.020  67.572  1.00  0.00    -0.268 OA
BRANCH  16  19
HETATM   19  C   UNL     1      41.455  45.889  65.703  1.00  0.00     0.127 C 
BRANCH  19  20
HETATM   20  C   UNL     1      41.919  45.117  64.464  1.00  0.00     0.058 C 
BRANCH  20  21
HETATM   21  C   UNL     1      41.254  43.768  64.301  1.00  0.00    -0.057 A 
HETATM   22  C   UNL     1      41.418  42.764  65.268  1.00  0.00     0.009 A 
HETATM   23  C   UNL     1      40.792  41.524  65.118  1.00  0.00     0.024 A 
HETATM   24  C   UNL     1      39.990  41.283  64.007  1.00  0.00     0.034 A 
HETATM   25 CL   UNL     1      39.215  39.759  63.824  1.00  0.00    -0.084 Cl
HETATM   26  C   UNL     1      39.806  42.273  63.045  1.00  0.00     0.024 A 
HETATM   27  C   UNL     1      40.435  43.513  63.191  1.00  0.00     0.009 A 
ENDBRANCH  20  21
ENDBRANCH  19  20
ENDBRANCH  16  19
ENDBRANCH   2  15
BRANCH   1  28
HETATM   28  C   UNL     1      36.393  44.481  65.530  1.00  0.00     0.045 A 
HETATM   29  C   UNL     1      35.047  44.259  65.870  1.00  0.00     0.066 A 
HETATM   30  C   UNL     1      34.500  42.970  65.861  1.00  0.00     0.070 A 
HETATM   31  C   UNL     1      35.290  41.890  65.470  1.00  0.00     0.037 A 
HETATM   32  C   UNL     1      36.625  42.085  65.132  1.00  0.00     0.005 A 
HETATM   33  C   UNL     1      37.172  43.369  65.173  1.00  0.00     0.030 A 
BRANCH  30  34
HETATM   34  O   UNL     1      33.214  42.644  66.199  1.00  0.00    -0.356 OA
HETATM   35  C   UNL     1      32.911  42.592  67.588  1.00  0.00     0.210 C 
ENDBRANCH  30  34
ENDBRANCH   1  28
TORSDOF 7
ENDMDL
MODEL 9
REMARK VINA RESULT:      -7.9     17.156     20.918
REMARK  7 active torsions:
REMARK  status: ('A' for Active; 'I' for Inactive)
REMARK    1  A    between atoms: O_2  and  C_3 
REMARK    2  A    between atoms: C_5  and  N_6 
REMARK    3  A    between atoms: C_7  and  O_8 
REMARK    4  A    between atoms: C_7  and  C_9 
REMARK       I    between atoms: C_9  and  N_10 
REMARK    5  A    between atoms: N_10  and  C_11 
REMARK    6  A    between atoms: C_11  and  C_12 
REMARK    7  A    between atoms: C_12  and  C_13 
ROOT
HETATM    1  N   UNL     1      40.610  47.538  66.335  1.00  0.00    -0.254 N 
HETATM    2  C   UNL     1      39.501  48.170  65.605  1.00  0.00     0.256 C 
HETATM    3  C   UNL     1      38.991  49.432  66.275  1.00  0.00     0.034 A 
HETATM    4  C   UNL     1      39.173  49.568  67.646  1.00  0.00     0.048 A 
HETATM    5  N   UNL     1      39.904  48.597  68.316  1.00  0.00    -0.308 N 
HETATM    6  C   UNL     1      40.668  47.634  67.719  1.00  0.00     0.330 C 
HETATM    7  O   UNL     1      41.352  46.927  68.459  1.00  0.00    -0.246 OA
HETATM    8  C   UNL     1      38.252  50.415  65.596  1.00  0.00     0.015 A 
HETATM    9  C   UNL     1      37.720  51.505  66.288  1.00  0.00     0.001 A 
HETATM   10  C   UNL     1      37.906  51.616  67.664  1.00  0.00     0.002 A 
HETATM   11  C   UNL     1      38.631  50.642  68.349  1.00  0.00     0.030 A 
HETATM   12  H   UNL     1      40.053  48.679  69.315  1.00  0.00     0.170 HD
ENDROOT
BRANCH   2  13
HETATM   13  O   UNL     1      39.978  48.590  64.322  1.00  0.00    -0.359 OA
HETATM   14  H   UNL     1      39.320  49.234  64.000  1.00  0.00     0.213 HD
ENDBRANCH   2  13
BRANCH   2  15
HETATM   15  C   UNL     1      38.290  47.161  65.444  1.00  0.00     0.279 C 
HETATM   16  N   UNL     1      38.101  46.587  64.201  1.00  0.00    -0.356 N 
HETATM   17  H   UNL     1      38.864  46.642  63.533  1.00  0.00     0.162 HD
HETATM   18  O   UNL     1      37.557  46.900  66.405  1.00  0.00    -0.268 OA
BRANCH  16  19
HETATM   19  C   UNL     1      37.109  45.546  64.018  1.00  0.00     0.127 C 
BRANCH  19  20
HETATM   20  C   UNL     1      37.468  44.564  62.900  1.00  0.00     0.058 C 
BRANCH  20  21
HETATM   21  C   UNL     1      37.896  43.201  63.399  1.00  0.00    -0.057 A 
HETATM   22  C   UNL     1      39.073  42.600  62.927  1.00  0.00     0.009 A 
HETATM   23  C   UNL     1      39.469  41.346  63.400  1.00  0.00     0.024 A 
HETATM   24  C   UNL     1      38.698  40.691  64.355  1.00  0.00     0.034 A 
HETATM   25 CL   UNL     1      39.188  39.151  64.942  1.00  0.00    -0.084 Cl
HETATM   26  C   UNL     1      37.535  41.281  64.844  1.00  0.00     0.024 A 
HETATM   27  C   UNL     1      37.135  42.532  64.368  1.00  0.00     0.009 A 
ENDBRANCH  20  21
ENDBRANCH  19  20
ENDBRANCH  16  19
ENDBRANCH   2  15
BRANCH   1  28
HETATM   28  C   UNL     1      41.556  46.692  65.653  1.00  0.00     0.045 A 
HETATM   29  C   UNL     1      42.867  47.101  65.355  1.00  0.00     0.066 A 
HETATM   30  C   UNL     1      43.767  46.242  64.714  1.00  0.00     0.070 A 
HETATM   31  C   UNL     1      43.372  44.942  64.398  1.00  0.00     0.037 A 
HETATM   32  C   UNL     1      42.079  44.516  64.681  1.00  0.00     0.005 A 
HETATM   33  C   UNL     1      41.177  45.389  65.293  1.00  0.00     0.030 A 
BRANCH  30  34
HETATM   34  O   UNL     1      45.053  46.551  64.357  1.00  0.00    -0.356 OA
HETATM   35  C   UNL     1      45.685  47.596  65.086  1.00  0.00     0.210 C 
ENDBRANCH  30  34
ENDBRANCH   1  28
TORSDOF 7
ENDMDL
MODEL 10
REMARK VINA RESULT:      -7.8      2.267      4.983
REMARK  7 active torsions:
REMARK  status: ('A' for Active; 'I' for Inactive)
REMARK    1  A    between atoms: O_2  and  C_3 
REMARK    2  A    between atoms: C_5  and  N_6 
REMARK    3  A    between atoms: C_7  and  O_8 
REMARK    4  A    between atoms: C_7  and  C_9 
REMARK       I    between atoms: C_9  and  N_10 
REMARK    5  A    between atoms: N_10  and  C_11 
REMARK    6  A    between atoms: C_11  and  C_12 
REMARK    7  A    between atoms: C_12  and  C_13 
ROOT
HETATM    1  N   UNL     1      24.558  45.975  50.154  1.00  0.00    -0.254 N 
HETATM    2  C   UNL     1      24.503  44.760  50.981  1.00  0.00     0.256 C 
HETATM    3  C   UNL     1      25.233  44.907  52.303  1.00  0.00     0.034 A 
HETATM    4  C   UNL     1      26.264  45.834  52.385  1.00  0.00     0.048 A 
HETATM    5  N   UNL     1      26.504  46.655  51.291  1.00  0.00    -0.308 N 
HETATM    6  C   UNL     1      25.672  46.803  50.219  1.00  0.00     0.330 C 
HETATM    7  O   UNL     1      25.973  47.663  49.393  1.00  0.00    -0.246 OA
HETATM    8  C   UNL     1      24.987  44.077  53.410  1.00  0.00     0.015 A 
HETATM    9  C   UNL     1      25.762  44.191  54.565  1.00  0.00     0.001 A 
HETATM   10  C   UNL     1      26.798  45.121  54.622  1.00  0.00     0.002 A 
HETATM   11  C   UNL     1      27.055  45.944  53.527  1.00  0.00     0.030 A 
HETATM   12  H   UNL     1      27.248  47.342  51.331  1.00  0.00     0.170 HD
ENDROOT
BRANCH   2  13
HETATM   13  O   UNL     1      23.138  44.506  51.330  1.00  0.00    -0.359 OA
HETATM   14  H   UNL     1      22.704  45.379  51.332  1.00  0.00     0.213 HD
ENDBRANCH   2  13
BRANCH   2  15
HETATM   15  C   UNL     1      25.116  43.525  50.201  1.00  0.00     0.279 C 
HETATM   16  N   UNL     1      26.488  43.493  50.037  1.00  0.00    -0.356 N 
HETATM   17  H   UNL     1      27.048  44.111  50.617  1.00  0.00     0.162 HD
HETATM   18  O   UNL     1      24.382  42.628  49.769  1.00  0.00    -0.268 OA
BRANCH  16  19
HETATM   19  C   UNL     1      27.129  42.324  49.466  1.00  0.00     0.127 C 
BRANCH  19  20
HETATM   20  C   UNL     1      27.440  41.243  50.505  1.00  0.00     0.058 C 
BRANCH  20  21
HETATM   21  C   UNL     1      28.155  41.764  51.733  1.00  0.00    -0.057 A 
HETATM   22  C   UNL     1      28.993  42.887  51.654  1.00  0.00     0.009 A 
HETATM   23  C   UNL     1      29.642  43.370  52.793  1.00  0.00     0.024 A 
HETATM   24  C   UNL     1      29.448  42.742  54.019  1.00  0.00     0.034 A 
HETATM   25 CL   UNL     1      30.242  43.340  55.423  1.00  0.00    -0.084 Cl
HETATM   26  C   UNL     1      28.609  41.635  54.117  1.00  0.00     0.024 A 
HETATM   27  C   UNL     1      27.963  41.147  52.978  1.00  0.00     0.009 A 
ENDBRANCH  20  21
ENDBRANCH  19  20
ENDBRANCH  16  19
ENDBRANCH   2  15
BRANCH   1  28
HETATM   28  C   UNL     1      23.544  46.243  49.166  1.00  0.00     0.045 A 
HETATM   29  C   UNL     1      22.785  47.425  49.156  1.00  0.00     0.066 A 
HETATM   30  C   UNL     1      21.826  47.662  48.164  1.00  0.00     0.070 A 
HETATM   31  C   UNL     1      21.645  46.729  47.144  1.00  0.00     0.037 A 
HETATM   32  C   UNL     1      22.383  45.550  47.135  1.00  0.00     0.005 A 
HETATM   33  C   UNL     1      23.316  45.307  48.145  1.00  0.00     0.030 A 
BRANCH  30  34
HETATM   34  O   UNL     1      21.018  48.765  48.078  1.00  0.00    -0.356 OA
HETATM   35  C   UNL     1      21.401  49.899  48.848  1.00  0.00     0.210 C 
ENDBRANCH  30  34
ENDBRANCH   1  28
TORSDOF 7
ENDMDL
