MODEL 1
REMARK VINA RESULT:     -10.4      0.000      0.000
REMARK  6 active torsions:
REMARK  status: ('A' for Active; 'I' for Inactive)
REMARK    1  A    between atoms: C_5  and  N_6 
REMARK    2  A    between atoms: C_17  and  N_18 
REMARK    3  A    between atoms: C_17  and  C_29 
REMARK       I    between atoms: N_18  and  C_19 
REMARK    4  A    between atoms: C_19  and  C_20 
REMARK    5  A    between atoms: C_20  and  C_21 
REMARK    6  A    between atoms: C_21  and  C_22 
ROOT
HETATM    1  N   UNL     1      24.039  48.817  48.967  1.00  0.00    -0.248 N 
HETATM    2  C   UNL     1      25.010  49.646  48.356  1.00  0.00     0.335 A 
HETATM    3  O   UNL     1      24.791  50.650  47.679  1.00  0.00    -0.246 OA
HETATM    4  N   UNL     1      26.327  49.298  48.581  1.00  0.00    -0.274 N 
HETATM    5  C   UNL     1      26.790  48.298  49.384  1.00  0.00     0.262 A 
HETATM    6  O   UNL     1      27.975  48.100  49.613  1.00  0.00    -0.267 OA
HETATM    7  C   UNL     1      25.754  47.463  49.948  1.00  0.00     0.101 A 
HETATM    8  C   UNL     1      24.470  47.747  49.729  1.00  0.00     0.134 A 
HETATM    9  N   UNL     1      23.710  46.782  50.313  1.00  0.00    -0.309 N 
HETATM   10  C   UNL     1      24.488  45.859  51.001  1.00  0.00     0.266 A 
HETATM   11  O   UNL     1      24.048  44.946  51.682  1.00  0.00    -0.270 OA
HETATM   12  C   UNL     1      25.962  46.210  50.744  1.00  0.00     0.249 A 
HETATM   13  H   UNL     1      27.013  49.921  48.179  1.00  0.00     0.173 HD
HETATM   14  H   UNL     1      22.701  46.736  50.309  1.00  0.00     0.170 HD
ENDROOT
BRANCH  12  15
HETATM   15  N   UNL     1      26.744  46.433  51.975  1.00  0.00    -0.332 N 
HETATM   16  C   UNL     1      26.321  47.231  53.009  1.00  0.00     0.219 C 
HETATM   17  O   UNL     1      25.205  47.734  53.054  1.00  0.00    -0.274 OA
HETATM   18  H   UNL     1      27.727  46.183  51.940  1.00  0.00     0.164 HD
BRANCH  16  19
HETATM   19  C   UNL     1      27.376  47.481  54.062  1.00  0.00     0.107 C 
BRANCH  19  20
HETATM   20  C   UNL     1      27.257  46.445  55.178  1.00  0.00     0.047 C 
BRANCH  20  21
HETATM   21  C   UNL     1      28.374  45.430  55.154  1.00  0.00    -0.058 A 
HETATM   22  C   UNL     1      29.508  45.604  55.961  1.00  0.00     0.007 A 
HETATM   23  C   UNL     1      30.536  44.660  55.951  1.00  0.00     0.001 A 
HETATM   24  C   UNL     1      30.443  43.533  55.136  1.00  0.00     0.000 A 
HETATM   25  C   UNL     1      29.319  43.348  54.334  1.00  0.00     0.001 A 
HETATM   26  C   UNL     1      28.288  44.289  54.344  1.00  0.00     0.007 A 
ENDBRANCH  20  21
ENDBRANCH  19  20
ENDBRANCH  16  19
ENDBRANCH  12  15
BRANCH  12  27
HETATM   27  C   UNL     1      26.494  45.062  49.875  1.00  0.00     0.426 C 
HETATM   28  F   UNL     1      27.751  45.285  49.424  1.00  0.00    -0.167 F 
HETATM   29  F   UNL     1      26.528  43.900  50.574  1.00  0.00    -0.167 F 
HETATM   30  F   UNL     1      25.707  44.828  48.800  1.00  0.00    -0.167 F 
ENDBRANCH  12  27
BRANCH   1  31
HETATM   31  C   UNL     1      22.647  49.129  48.771  1.00  0.00     0.045 A 
HETATM   32  C   UNL     1      22.025  50.137  49.520  1.00  0.00     0.031 A 
HETATM   33  C   UNL     1      20.684  50.474  49.305  1.00  0.00     0.009 A 
HETATM   34  C   UNL     1      19.926  49.795  48.348  1.00  0.00    -0.062 A 
HETATM   35  C   UNL     1      18.501  50.185  48.096  1.00  0.00     0.048 C 
HETATM   36  C   UNL     1      20.535  48.780  47.604  1.00  0.00     0.009 A 
HETATM   37  C   UNL     1      21.877  48.445  47.820  1.00  0.00     0.031 A 
ENDBRANCH   1  31
TORSDOF 6
ENDMDL
MODEL 2
REMARK VINA RESULT:      -9.7      1.666      2.205
REMARK  6 active torsions:
REMARK  status: ('A' for Active; 'I' for Inactive)
REMARK    1  A    between atoms: C_5  and  N_6 
REMARK    2  A    between atoms: C_17  and  N_18 
REMARK    3  A    between atoms: C_17  and  C_29 
REMARK       I    between atoms: N_18  and  C_19 
REMARK    4  A    between atoms: C_19  and  C_20 
REMARK    5  A    between atoms: C_20  and  C_21 
REMARK    6  A    between atoms: C_21  and  C_22 
ROOT
HETATM    1  N   UNL     1      24.573  47.661  49.311  1.00  0.00    -0.248 N 
HETATM    2  C   UNL     1      25.889  48.135  49.100  1.00  0.00     0.335 A 
HETATM    3  O   UNL     1      26.211  49.276  48.767  1.00  0.00    -0.246 OA
HETATM    4  N   UNL     1      26.902  47.225  49.327  1.00  0.00    -0.274 N 
HETATM    5  C   UNL     1      26.776  45.953  49.804  1.00  0.00     0.262 A 
HETATM    6  O   UNL     1      27.722  45.227  50.071  1.00  0.00    -0.267 OA
HETATM    7  C   UNL     1      25.408  45.513  49.963  1.00  0.00     0.101 A 
HETATM    8  C   UNL     1      24.401  46.353  49.723  1.00  0.00     0.134 A 
HETATM    9  N   UNL     1      23.230  45.680  49.885  1.00  0.00    -0.309 N 
HETATM   10  C   UNL     1      23.442  44.373  50.309  1.00  0.00     0.266 A 
HETATM   11  O   UNL     1      22.559  43.586  50.612  1.00  0.00    -0.270 OA
HETATM   12  C   UNL     1      24.960  44.129  50.325  1.00  0.00     0.249 A 
HETATM   13  H   UNL     1      27.840  47.584  49.219  1.00  0.00     0.173 HD
HETATM   14  H   UNL     1      22.303  46.061  49.767  1.00  0.00     0.170 HD
ENDROOT
BRANCH  12  15
HETATM   15  N   UNL     1      25.477  43.682  51.632  1.00  0.00    -0.332 N 
HETATM   16  C   UNL     1      25.428  44.447  52.771  1.00  0.00     0.219 C 
HETATM   17  O   UNL     1      24.846  45.523  52.831  1.00  0.00    -0.274 OA
HETATM   18  H   UNL     1      26.103  42.883  51.623  1.00  0.00     0.164 HD
BRANCH  16  19
HETATM   19  C   UNL     1      26.208  43.871  53.931  1.00  0.00     0.107 C 
BRANCH  19  20
HETATM   20  C   UNL     1      27.591  43.426  53.461  1.00  0.00     0.047 C 
BRANCH  20  21
HETATM   21  C   UNL     1      28.691  43.837  54.410  1.00  0.00    -0.058 A 
HETATM   22  C   UNL     1      29.769  42.977  54.661  1.00  0.00     0.007 A 
HETATM   23  C   UNL     1      30.794  43.360  55.527  1.00  0.00     0.001 A 
HETATM   24  C   UNL     1      30.754  44.606  56.150  1.00  0.00     0.000 A 
HETATM   25  C   UNL     1      29.690  45.470  55.904  1.00  0.00     0.001 A 
HETATM   26  C   UNL     1      28.664  45.090  55.037  1.00  0.00     0.007 A 
ENDBRANCH  20  21
ENDBRANCH  19  20
ENDBRANCH  16  19
ENDBRANCH  12  15
BRANCH  12  27
HETATM   27  C   UNL     1      25.210  43.130  49.187  1.00  0.00     0.426 C 
HETATM   28  F   UNL     1      26.525  42.968  48.913  1.00  0.00    -0.167 F 
HETATM   29  F   UNL     1      24.720  41.905  49.502  1.00  0.00    -0.167 F 
HETATM   30  F   UNL     1      24.592  43.496  48.041  1.00  0.00    -0.167 F 
ENDBRANCH  12  27
BRANCH   1  31
HETATM   31  C   UNL     1      23.474  48.564  49.092  1.00  0.00     0.045 A 
HETATM   32  C   UNL     1      23.283  49.679  49.921  1.00  0.00     0.031 A 
HETATM   33  C   UNL     1      22.242  50.584  49.687  1.00  0.00     0.009 A 
HETATM   34  C   UNL     1      21.352  50.384  48.630  1.00  0.00    -0.062 A 
HETATM   35  C   UNL     1      20.260  51.377  48.361  1.00  0.00     0.048 C 
HETATM   36  C   UNL     1      21.526  49.270  47.804  1.00  0.00     0.009 A 
HETATM   37  C   UNL     1      22.570  48.366  48.038  1.00  0.00     0.031 A 
ENDBRANCH   1  31
TORSDOF 6
ENDMDL
MODEL 3
REMARK VINA RESULT:      -8.7     11.274     13.265
REMARK  6 active torsions:
REMARK  status: ('A' for Active; 'I' for Inactive)
REMARK    1  A    between atoms: C_5  and  N_6 
REMARK    2  A    between atoms: C_17  and  N_18 
REMARK    3  A    between atoms: C_17  and  C_29 
REMARK       I    between atoms: N_18  and  C_19 
REMARK    4  A    between atoms: C_19  and  C_20 
REMARK    5  A    between atoms: C_20  and  C_21 
REMARK    6  A    between atoms: C_21  and  C_22 
ROOT
HETATM    1  N   UNL     1      28.032  48.021  39.622  1.00  0.00    -0.248 N 
HETATM    2  C   UNL     1      26.977  48.129  40.558  1.00  0.00     0.335 A 
HETATM    3  O   UNL     1      26.221  47.226  40.915  1.00  0.00    -0.246 OA
HETATM    4  N   UNL     1      26.816  49.368  41.146  1.00  0.00    -0.274 N 
HETATM    5  C   UNL     1      27.606  50.468  40.980  1.00  0.00     0.262 A 
HETATM    6  O   UNL     1      27.463  51.511  41.601  1.00  0.00    -0.267 OA
HETATM    7  C   UNL     1      28.642  50.309  39.984  1.00  0.00     0.101 A 
HETATM    8  C   UNL     1      28.809  49.136  39.371  1.00  0.00     0.134 A 
HETATM    9  N   UNL     1      29.797  49.271  38.447  1.00  0.00    -0.309 N 
HETATM   10  C   UNL     1      30.361  50.541  38.475  1.00  0.00     0.266 A 
HETATM   11  O   UNL     1      31.321  50.893  37.809  1.00  0.00    -0.270 OA
HETATM   12  C   UNL     1      29.561  51.382  39.484  1.00  0.00     0.249 A 
HETATM   13  H   UNL     1      26.091  49.424  41.846  1.00  0.00     0.173 HD
HETATM   14  H   UNL     1      30.139  48.547  37.831  1.00  0.00     0.170 HD
ENDROOT
BRANCH  12  15
HETATM   15  N   UNL     1      30.388  51.974  40.552  1.00  0.00    -0.332 N 
HETATM   16  C   UNL     1      31.199  51.239  41.382  1.00  0.00     0.219 C 
HETATM   17  O   UNL     1      31.397  50.040  41.233  1.00  0.00    -0.274 OA
HETATM   18  H   UNL     1      30.157  52.922  40.833  1.00  0.00     0.164 HD
BRANCH  16  19
HETATM   19  C   UNL     1      31.778  52.030  42.532  1.00  0.00     0.107 C 
BRANCH  19  20
HETATM   20  C   UNL     1      32.628  51.120  43.416  1.00  0.00     0.047 C 
BRANCH  20  21
HETATM   21  C   UNL     1      34.109  51.343  43.233  1.00  0.00    -0.058 A 
HETATM   22  C   UNL     1      34.804  50.682  42.209  1.00  0.00     0.007 A 
HETATM   23  C   UNL     1      36.171  50.897  42.028  1.00  0.00     0.001 A 
HETATM   24  C   UNL     1      36.858  51.774  42.866  1.00  0.00     0.000 A 
HETATM   25  C   UNL     1      36.177  52.439  43.883  1.00  0.00     0.001 A 
HETATM   26  C   UNL     1      34.809  52.227  44.065  1.00  0.00     0.007 A 
ENDBRANCH  20  21
ENDBRANCH  19  20
ENDBRANCH  16  19
ENDBRANCH  12  15
BRANCH  12  27
HETATM   27  C   UNL     1      28.819  52.420  38.631  1.00  0.00     0.426 C 
HETATM   28  F   UNL     1      28.699  53.617  39.250  1.00  0.00    -0.167 F 
HETATM   29  F   UNL     1      29.472  52.643  37.463  1.00  0.00    -0.167 F 
HETATM   30  F   UNL     1      27.577  52.007  38.290  1.00  0.00    -0.167 F 
ENDBRANCH  12  27
BRANCH   1  31
HETATM   31  C   UNL     1      28.252  46.753  38.977  1.00  0.00     0.045 A 
HETATM   32  C   UNL     1      27.571  46.420  37.797  1.00  0.00     0.031 A 
HETATM   33  C   UNL     1      27.811  45.207  37.142  1.00  0.00     0.009 A 
HETATM   34  C   UNL     1      28.724  44.287  37.664  1.00  0.00    -0.062 A 
HETATM   35  C   UNL     1      29.005  43.005  36.938  1.00  0.00     0.048 C 
HETATM   36  C   UNL     1      29.400  44.605  38.845  1.00  0.00     0.009 A 
HETATM   37  C   UNL     1      29.159  45.820  39.499  1.00  0.00     0.031 A 
ENDBRANCH   1  31
TORSDOF 6
ENDMDL
MODEL 4
REMARK VINA RESULT:      -8.5      4.981      7.665
REMARK  6 active torsions:
REMARK  status: ('A' for Active; 'I' for Inactive)
REMARK    1  A    between atoms: C_5  and  N_6 
REMARK    2  A    between atoms: C_17  and  N_18 
REMARK    3  A    between atoms: C_17  and  C_29 
REMARK       I    between atoms: N_18  and  C_19 
REMARK    4  A    between atoms: C_19  and  C_20 
REMARK    5  A    between atoms: C_20  and  C_21 
REMARK    6  A    between atoms: C_21  and  C_22 
ROOT
HETATM    1  N   UNL     1      18.063  49.373  45.844  1.00  0.00    -0.248 N 
HETATM    2  C   UNL     1      17.403  48.131  45.681  1.00  0.00     0.335 A 
HETATM    3  O   UNL     1      16.704  47.795  44.726  1.00  0.00    -0.246 OA
HETATM    4  N   UNL     1      17.603  47.206  46.686  1.00  0.00    -0.274 N 
HETATM    5  C   UNL     1      18.421  47.330  47.770  1.00  0.00     0.262 A 
HETATM    6  O   UNL     1      18.625  46.435  48.578  1.00  0.00    -0.267 OA
HETATM    7  C   UNL     1      19.036  48.632  47.903  1.00  0.00     0.101 A 
HETATM    8  C   UNL     1      18.842  49.563  46.968  1.00  0.00     0.134 A 
HETATM    9  N   UNL     1      19.474  50.703  47.360  1.00  0.00    -0.309 N 
HETATM   10  C   UNL     1      20.167  50.525  48.551  1.00  0.00     0.266 A 
HETATM   11  O   UNL     1      20.886  51.363  49.071  1.00  0.00    -0.270 OA
HETATM   12  C   UNL     1      19.862  49.107  49.060  1.00  0.00     0.249 A 
HETATM   13  H   UNL     1      17.166  46.307  46.540  1.00  0.00     0.173 HD
HETATM   14  H   UNL     1      19.497  51.575  46.850  1.00  0.00     0.170 HD
ENDROOT
BRANCH  12  15
HETATM   15  N   UNL     1      21.064  48.284  49.285  1.00  0.00    -0.332 N 
HETATM   16  C   UNL     1      22.062  48.125  48.355  1.00  0.00     0.219 C 
HETATM   17  O   UNL     1      22.099  48.746  47.300  1.00  0.00    -0.274 OA
HETATM   18  H   UNL     1      21.026  47.625  50.056  1.00  0.00     0.164 HD
BRANCH  16  19
HETATM   19  C   UNL     1      23.081  47.071  48.722  1.00  0.00     0.107 C 
BRANCH  19  20
HETATM   20  C   UNL     1      23.920  47.545  49.907  1.00  0.00     0.047 C 
BRANCH  20  21
HETATM   21  C   UNL     1      25.176  48.265  49.483  1.00  0.00    -0.058 A 
HETATM   22  C   UNL     1      26.436  47.755  49.827  1.00  0.00     0.007 A 
HETATM   23  C   UNL     1      27.600  48.411  49.424  1.00  0.00     0.001 A 
HETATM   24  C   UNL     1      27.518  49.583  48.674  1.00  0.00     0.000 A 
HETATM   25  C   UNL     1      26.271  50.096  48.323  1.00  0.00     0.001 A 
HETATM   26  C   UNL     1      25.106  49.440  48.722  1.00  0.00     0.007 A 
ENDBRANCH  20  21
ENDBRANCH  19  20
ENDBRANCH  16  19
ENDBRANCH  12  15
BRANCH  12  27
HETATM   27  C   UNL     1      19.012  49.316  50.321  1.00  0.00     0.426 C 
HETATM   28  F   UNL     1      19.542  50.233  51.163  1.00  0.00    -0.167 F 
HETATM   29  F   UNL     1      17.767  49.749  50.000  1.00  0.00    -0.167 F 
HETATM   30  F   UNL     1      18.840  48.169  51.017  1.00  0.00    -0.167 F 
ENDBRANCH  12  27
BRANCH   1  31
HETATM   31  C   UNL     1      17.895  50.379  44.827  1.00  0.00     0.045 A 
HETATM   32  C   UNL     1      16.997  51.440  45.008  1.00  0.00     0.031 A 
HETATM   33  C   UNL     1      16.860  52.443  44.043  1.00  0.00     0.009 A 
HETATM   34  C   UNL     1      17.604  52.398  42.862  1.00  0.00    -0.062 A 
HETATM   35  C   UNL     1      17.482  53.496  41.848  1.00  0.00     0.048 C 
HETATM   36  C   UNL     1      18.495  51.338  42.667  1.00  0.00     0.009 A 
HETATM   37  C   UNL     1      18.631  50.336  43.635  1.00  0.00     0.031 A 
ENDBRANCH   1  31
TORSDOF 6
ENDMDL
MODEL 5
REMARK VINA RESULT:      -8.5      2.167      2.729
REMARK  6 active torsions:
REMARK  status: ('A' for Active; 'I' for Inactive)
REMARK    1  A    between atoms: C_5  and  N_6 
REMARK    2  A    between atoms: C_17  and  N_18 
REMARK    3  A    between atoms: C_17  and  C_29 
REMARK       I    between atoms: N_18  and  C_19 
REMARK    4  A    between atoms: C_19  and  C_20 
REMARK    5  A    between atoms: C_20  and  C_21 
REMARK    6  A    between atoms: C_21  and  C_22 
ROOT
HETATM    1  N   UNL     1      23.129  46.420  48.891  1.00  0.00    -0.248 N 
HETATM    2  C   UNL     1      23.376  47.811  48.815  1.00  0.00     0.335 A 
HETATM    3  O   UNL     1      22.651  48.655  48.291  1.00  0.00    -0.246 OA
HETATM    4  N   UNL     1      24.534  48.252  49.426  1.00  0.00    -0.274 N 
HETATM    5  C   UNL     1      25.416  47.509  50.154  1.00  0.00     0.262 A 
HETATM    6  O   UNL     1      26.376  47.978  50.748  1.00  0.00    -0.267 OA
HETATM    7  C   UNL     1      25.133  46.092  50.163  1.00  0.00     0.101 A 
HETATM    8  C   UNL     1      24.041  45.623  49.557  1.00  0.00     0.134 A 
HETATM    9  N   UNL     1      24.042  44.267  49.659  1.00  0.00    -0.309 N 
HETATM   10  C   UNL     1      25.120  43.806  50.406  1.00  0.00     0.266 A 
HETATM   11  O   UNL     1      25.304  42.641  50.719  1.00  0.00    -0.270 OA
HETATM   12  C   UNL     1      25.999  45.019  50.750  1.00  0.00     0.249 A 
HETATM   13  H   UNL     1      24.679  49.251  49.407  1.00  0.00     0.173 HD
HETATM   14  H   UNL     1      23.338  43.642  49.291  1.00  0.00     0.170 HD
ENDROOT
BRANCH  12  15
HETATM   15  N   UNL     1      26.230  45.195  52.196  1.00  0.00    -0.332 N 
HETATM   16  C   UNL     1      25.280  44.943  53.154  1.00  0.00     0.219 C 
HETATM   17  O   UNL     1      24.192  44.439  52.902  1.00  0.00    -0.274 OA
HETATM   18  H   UNL     1      27.037  45.750  52.462  1.00  0.00     0.164 HD
BRANCH  16  19
HETATM   19  C   UNL     1      25.671  45.398  54.541  1.00  0.00     0.107 C 
BRANCH  19  20
HETATM   20  C   UNL     1      26.891  46.314  54.466  1.00  0.00     0.047 C 
BRANCH  20  21
HETATM   21  C   UNL     1      28.145  45.662  54.996  1.00  0.00    -0.058 A 
HETATM   22  C   UNL     1      28.845  46.236  56.066  1.00  0.00     0.007 A 
HETATM   23  C   UNL     1      29.997  45.627  56.567  1.00  0.00     0.001 A 
HETATM   24  C   UNL     1      30.461  44.439  56.005  1.00  0.00     0.000 A 
HETATM   25  C   UNL     1      29.770  43.858  54.944  1.00  0.00     0.001 A 
HETATM   26  C   UNL     1      28.617  44.463  54.443  1.00  0.00     0.007 A 
ENDBRANCH  20  21
ENDBRANCH  19  20
ENDBRANCH  16  19
ENDBRANCH  12  15
BRANCH  12  27
HETATM   27  C   UNL     1      27.286  44.815  49.939  1.00  0.00     0.426 C 
HETATM   28  F   UNL     1      28.333  44.431  50.706  1.00  0.00    -0.167 F 
HETATM   29  F   UNL     1      27.117  43.857  48.995  1.00  0.00    -0.167 F 
HETATM   30  F   UNL     1      27.652  45.934  49.273  1.00  0.00    -0.167 F 
ENDBRANCH  12  27
BRANCH   1  31
HETATM   31  C   UNL     1      21.937  45.899  48.275  1.00  0.00     0.045 A 
HETATM   32  C   UNL     1      20.721  45.873  48.971  1.00  0.00     0.031 A 
HETATM   33  C   UNL     1      19.550  45.408  48.363  1.00  0.00     0.009 A 
HETATM   34  C   UNL     1      19.571  44.937  47.048  1.00  0.00    -0.062 A 
HETATM   35  C   UNL     1      18.306  44.474  46.389  1.00  0.00     0.048 C 
HETATM   36  C   UNL     1      20.781  44.949  46.348  1.00  0.00     0.009 A 
HETATM   37  C   UNL     1      21.952  45.416  46.958  1.00  0.00     0.031 A 
ENDBRANCH   1  31
TORSDOF 6
ENDMDL
MODEL 6
REMARK VINA RESULT:      -8.5     10.904     12.754
REMARK  6 active torsions:
REMARK  status: ('A' for Active; 'I' for Inactive)
REMARK    1  A    between atoms: C_5  and  N_6 
REMARK    2  A    between atoms: C_17  and  N_18 
REMARK    3  A    between atoms: C_17  and  C_29 
REMARK       I    between atoms: N_18  and  C_19 
REMARK    4  A    between atoms: C_19  and  C_20 
REMARK    5  A    between atoms: C_20  and  C_21 
REMARK    6  A    between atoms: C_21  and  C_22 
ROOT
HETATM    1  N   UNL     1      26.950  48.667  39.646  1.00  0.00    -0.248 N 
HETATM    2  C   UNL     1      27.154  47.850  40.784  1.00  0.00     0.335 A 
HETATM    3  O   UNL     1      26.627  46.761  41.006  1.00  0.00    -0.246 OA
HETATM    4  N   UNL     1      28.063  48.323  41.710  1.00  0.00    -0.274 N 
HETATM    5  C   UNL     1      28.836  49.442  41.610  1.00  0.00     0.262 A 
HETATM    6  O   UNL     1      29.691  49.757  42.425  1.00  0.00    -0.267 OA
HETATM    7  C   UNL     1      28.556  50.254  40.447  1.00  0.00     0.101 A 
HETATM    8  C   UNL     1      27.661  49.847  39.545  1.00  0.00     0.134 A 
HETATM    9  N   UNL     1      27.542  50.811  38.593  1.00  0.00    -0.309 N 
HETATM   10  C   UNL     1      28.421  51.865  38.814  1.00  0.00     0.266 A 
HETATM   11  O   UNL     1      28.575  52.813  38.060  1.00  0.00    -0.270 OA
HETATM   12  C   UNL     1      29.137  51.602  40.148  1.00  0.00     0.249 A 
HETATM   13  H   UNL     1      28.236  47.713  42.496  1.00  0.00     0.173 HD
HETATM   14  H   UNL     1      26.936  50.778  37.786  1.00  0.00     0.170 HD
ENDROOT
BRANCH  12  15
HETATM   15  N   UNL     1      30.608  51.583  40.040  1.00  0.00    -0.332 N 
HETATM   16  C   UNL     1      31.295  50.797  39.149  1.00  0.00     0.219 C 
HETATM   17  O   UNL     1      30.743  50.128  38.284  1.00  0.00    -0.274 OA
HETATM   18  H   UNL     1      31.125  51.983  40.816  1.00  0.00     0.164 HD
BRANCH  16  19
HETATM   19  C   UNL     1      32.790  50.784  39.367  1.00  0.00     0.107 C 
BRANCH  19  20
HETATM   20  C   UNL     1      33.137  49.882  40.550  1.00  0.00     0.047 C 
BRANCH  20  21
HETATM   21  C   UNL     1      33.603  50.656  41.759  1.00  0.00    -0.058 A 
HETATM   22  C   UNL     1      32.716  50.932  42.809  1.00  0.00     0.007 A 
HETATM   23  C   UNL     1      33.147  51.636  43.934  1.00  0.00     0.001 A 
HETATM   24  C   UNL     1      34.469  52.072  44.022  1.00  0.00     0.000 A 
HETATM   25  C   UNL     1      35.359  51.800  42.986  1.00  0.00     0.001 A 
HETATM   26  C   UNL     1      34.931  51.093  41.861  1.00  0.00     0.007 A 
ENDBRANCH  20  21
ENDBRANCH  19  20
ENDBRANCH  16  19
ENDBRANCH  12  15
BRANCH  12  27
HETATM   27  C   UNL     1      28.602  52.680  41.101  1.00  0.00     0.426 C 
HETATM   28  F   UNL     1      28.731  53.931  40.602  1.00  0.00    -0.167 F 
HETATM   29  F   UNL     1      27.283  52.491  41.354  1.00  0.00    -0.167 F 
HETATM   30  F   UNL     1      29.220  52.651  42.303  1.00  0.00    -0.167 F 
ENDBRANCH  12  27
BRANCH   1  31
HETATM   31  C   UNL     1      26.015  48.227  38.644  1.00  0.00     0.045 A 
HETATM   32  C   UNL     1      26.431  47.411  37.583  1.00  0.00     0.031 A 
HETATM   33  C   UNL     1      25.519  46.945  36.629  1.00  0.00     0.009 A 
HETATM   34  C   UNL     1      24.171  47.303  36.702  1.00  0.00    -0.062 A 
HETATM   35  C   UNL     1      23.191  46.772  35.699  1.00  0.00     0.048 C 
HETATM   36  C   UNL     1      23.748  48.126  37.750  1.00  0.00     0.009 A 
HETATM   37  C   UNL     1      24.662  48.589  38.705  1.00  0.00     0.031 A 
ENDBRANCH   1  31
TORSDOF 6
ENDMDL
MODEL 7
REMARK VINA RESULT:      -8.5      6.790     10.549
REMARK  6 active torsions:
REMARK  status: ('A' for Active; 'I' for Inactive)
REMARK    1  A    between atoms: C_5  and  N_6 
REMARK    2  A    between atoms: C_17  and  N_18 
REMARK    3  A    between atoms: C_17  and  C_29 
REMARK       I    between atoms: N_18  and  C_19 
REMARK    4  A    between atoms: C_19  and  C_20 
REMARK    5  A    between atoms: C_20  and  C_21 
REMARK    6  A    between atoms: C_21  and  C_22 
ROOT
HETATM    1  N   UNL     1      27.127  41.484  50.939  1.00  0.00    -0.248 N 
HETATM    2  C   UNL     1      25.826  42.020  50.797  1.00  0.00     0.335 A 
HETATM    3  O   UNL     1      25.315  42.895  51.494  1.00  0.00    -0.246 OA
HETATM    4  N   UNL     1      25.082  41.525  49.743  1.00  0.00    -0.274 N 
HETATM    5  C   UNL     1      25.491  40.639  48.790  1.00  0.00     0.262 A 
HETATM    6  O   UNL     1      24.812  40.310  47.828  1.00  0.00    -0.267 OA
HETATM    7  C   UNL     1      26.813  40.099  49.011  1.00  0.00     0.101 A 
HETATM    8  C   UNL     1      27.551  40.529  50.035  1.00  0.00     0.134 A 
HETATM    9  N   UNL     1      28.714  39.824  50.053  1.00  0.00    -0.309 N 
HETATM   10  C   UNL     1      28.800  38.943  48.982  1.00  0.00     0.266 A 
HETATM   11  O   UNL     1      29.776  38.258  48.718  1.00  0.00    -0.270 OA
HETATM   12  C   UNL     1      27.467  39.007  48.219  1.00  0.00     0.249 A 
HETATM   13  H   UNL     1      24.172  41.945  49.621  1.00  0.00     0.173 HD
HETATM   14  H   UNL     1      29.466  39.933  50.720  1.00  0.00     0.170 HD
ENDROOT
BRANCH  12  15
HETATM   15  N   UNL     1      27.614  39.342  46.790  1.00  0.00    -0.332 N 
HETATM   16  C   UNL     1      28.139  40.527  46.338  1.00  0.00     0.219 C 
HETATM   17  O   UNL     1      28.639  41.365  47.079  1.00  0.00    -0.274 OA
HETATM   18  H   UNL     1      27.086  38.776  46.135  1.00  0.00     0.164 HD
BRANCH  16  19
HETATM   19  C   UNL     1      27.991  40.735  44.848  1.00  0.00     0.107 C 
BRANCH  19  20
HETATM   20  C   UNL     1      27.842  39.387  44.145  1.00  0.00     0.047 C 
BRANCH  20  21
HETATM   21  C   UNL     1      29.113  38.940  43.463  1.00  0.00    -0.058 A 
HETATM   22  C   UNL     1      29.982  39.883  42.895  1.00  0.00     0.007 A 
HETATM   23  C   UNL     1      31.164  39.473  42.276  1.00  0.00     0.001 A 
HETATM   24  C   UNL     1      31.491  38.120  42.220  1.00  0.00     0.000 A 
HETATM   25  C   UNL     1      30.637  37.175  42.785  1.00  0.00     0.001 A 
HETATM   26  C   UNL     1      29.455  37.582  43.406  1.00  0.00     0.007 A 
ENDBRANCH  20  21
ENDBRANCH  19  20
ENDBRANCH  16  19
ENDBRANCH  12  15
BRANCH  12  27
HETATM   27  C   UNL     1      26.805  37.644  48.469  1.00  0.00     0.426 C 
HETATM   28  F   UNL     1      26.471  37.454  49.766  1.00  0.00    -0.167 F 
HETATM   29  F   UNL     1      25.664  37.521  47.746  1.00  0.00    -0.167 F 
HETATM   30  F   UNL     1      27.597  36.615  48.092  1.00  0.00    -0.167 F 
ENDBRANCH  12  27
BRANCH   1  31
HETATM   31  C   UNL     1      27.953  41.962  52.018  1.00  0.00     0.045 A 
HETATM   32  C   UNL     1      27.984  41.293  53.250  1.00  0.00     0.031 A 
HETATM   33  C   UNL     1      28.815  41.728  54.287  1.00  0.00     0.009 A 
HETATM   34  C   UNL     1      29.622  42.857  54.125  1.00  0.00    -0.062 A 
HETATM   35  C   UNL     1      30.539  43.297  55.226  1.00  0.00     0.048 C 
HETATM   36  C   UNL     1      29.591  43.537  52.904  1.00  0.00     0.009 A 
HETATM   37  C   UNL     1      28.759  43.100  51.866  1.00  0.00     0.031 A 
ENDBRANCH   1  31
TORSDOF 6
ENDMDL
MODEL 8
REMARK VINA RESULT:      -8.5     11.435     13.342
REMARK  6 active torsions:
REMARK  status: ('A' for Active; 'I' for Inactive)
REMARK    1  A    between atoms: C_5  and  N_6 
REMARK    2  A    between atoms: C_17  and  N_18 
REMARK    3  A    between atoms: C_17  and  C_29 
REMARK       I    between atoms: N_18  and  C_19 
REMARK    4  A    between atoms: C_19  and  C_20 
REMARK    5  A    between atoms: C_20  and  C_21 
REMARK    6  A    between atoms: C_21  and  C_22 
ROOT
HETATM    1  N   UNL     1      30.095  49.144  40.205  1.00  0.00    -0.248 N 
HETATM    2  C   UNL     1      30.793  47.918  40.093  1.00  0.00     0.335 A 
HETATM    3  O   UNL     1      30.366  46.876  39.599  1.00  0.00    -0.246 OA
HETATM    4  N   UNL     1      32.093  47.920  40.560  1.00  0.00    -0.274 N 
HETATM    5  C   UNL     1      32.795  48.986  41.040  1.00  0.00     0.262 A 
HETATM    6  O   UNL     1      33.976  48.941  41.353  1.00  0.00    -0.267 OA
HETATM    7  C   UNL     1      32.019  50.199  41.167  1.00  0.00     0.101 A 
HETATM    8  C   UNL     1      30.750  50.229  40.756  1.00  0.00     0.134 A 
HETATM    9  N   UNL     1      30.235  51.455  41.041  1.00  0.00    -0.309 N 
HETATM   10  C   UNL     1      31.190  52.300  41.595  1.00  0.00     0.266 A 
HETATM   11  O   UNL     1      31.009  53.477  41.859  1.00  0.00    -0.270 OA
HETATM   12  C   UNL     1      32.475  51.481  41.795  1.00  0.00     0.249 A 
HETATM   13  H   UNL     1      32.599  47.055  40.435  1.00  0.00     0.173 HD
HETATM   14  H   UNL     1      29.294  51.765  40.845  1.00  0.00     0.170 HD
ENDROOT
BRANCH  12  15
HETATM   15  N   UNL     1      33.658  52.058  41.130  1.00  0.00    -0.332 N 
HETATM   16  C   UNL     1      33.710  52.349  39.789  1.00  0.00     0.219 C 
HETATM   17  O   UNL     1      32.739  52.263  39.047  1.00  0.00    -0.274 OA
HETATM   18  H   UNL     1      34.535  52.008  41.639  1.00  0.00     0.164 HD
BRANCH  16  19
HETATM   19  C   UNL     1      35.088  52.727  39.296  1.00  0.00     0.107 C 
BRANCH  19  20
HETATM   20  C   UNL     1      36.078  51.603  39.597  1.00  0.00     0.047 C 
BRANCH  20  21
HETATM   21  C   UNL     1      36.767  51.773  40.929  1.00  0.00    -0.058 A 
HETATM   22  C   UNL     1      37.116  53.050  41.389  1.00  0.00     0.007 A 
HETATM   23  C   UNL     1      37.740  53.211  42.627  1.00  0.00     0.001 A 
HETATM   24  C   UNL     1      38.022  52.098  43.418  1.00  0.00     0.000 A 
HETATM   25  C   UNL     1      37.676  50.825  42.972  1.00  0.00     0.001 A 
HETATM   26  C   UNL     1      37.049  50.662  41.736  1.00  0.00     0.007 A 
ENDBRANCH  20  21
ENDBRANCH  19  20
ENDBRANCH  16  19
ENDBRANCH  12  15
BRANCH  12  27
HETATM   27  C   UNL     1      32.625  51.350  43.317  1.00  0.00     0.426 C 
HETATM   28  F   UNL     1      31.988  52.334  43.993  1.00  0.00    -0.167 F 
HETATM   29  F   UNL     1      32.109  50.174  43.755  1.00  0.00    -0.167 F 
HETATM   30  F   UNL     1      33.921  51.356  43.705  1.00  0.00    -0.167 F 
ENDBRANCH  12  27
BRANCH   1  31
HETATM   31  C   UNL     1      28.736  49.206  39.734  1.00  0.00     0.045 A 
HETATM   32  C   UNL     1      27.679  48.740  40.528  1.00  0.00     0.031 A 
HETATM   33  C   UNL     1      26.353  48.836  40.094  1.00  0.00     0.009 A 
HETATM   34  C   UNL     1      26.053  49.383  38.844  1.00  0.00    -0.062 A 
HETATM   35  C   UNL     1      24.627  49.518  38.399  1.00  0.00     0.048 C 
HETATM   36  C   UNL     1      27.100  49.841  38.040  1.00  0.00     0.009 A 
HETATM   37  C   UNL     1      28.427  49.745  38.477  1.00  0.00     0.031 A 
ENDBRANCH   1  31
TORSDOF 6
ENDMDL
MODEL 9
REMARK VINA RESULT:      -8.3     18.766     21.669
REMARK  6 active torsions:
REMARK  status: ('A' for Active; 'I' for Inactive)
REMARK    1  A    between atoms: C_5  and  N_6 
REMARK    2  A    between atoms: C_17  and  N_18 
REMARK    3  A    between atoms: C_17  and  C_29 
REMARK       I    between atoms: N_18  and  C_19 
REMARK    4  A    between atoms: C_19  and  C_20 
REMARK    5  A    between atoms: C_20  and  C_21 
REMARK    6  A    between atoms: C_21  and  C_22 
ROOT
HETATM    1  N   UNL     1      40.123  40.577  64.139  1.00  0.00    -0.248 N 
HETATM    2  C   UNL     1      39.604  40.555  62.822  1.00  0.00     0.335 A 
HETATM    3  O   UNL     1      39.434  39.559  62.121  1.00  0.00    -0.246 OA
HETATM    4  N   UNL     1      39.224  41.777  62.303  1.00  0.00    -0.274 N 
HETATM    5  C   UNL     1      39.224  42.981  62.944  1.00  0.00     0.262 A 
HETATM    6  O   UNL     1      38.788  44.014  62.457  1.00  0.00    -0.267 OA
HETATM    7  C   UNL     1      39.801  42.948  64.269  1.00  0.00     0.101 A 
HETATM    8  C   UNL     1      40.208  41.791  64.794  1.00  0.00     0.134 A 
HETATM    9  N   UNL     1      40.761  42.042  66.011  1.00  0.00    -0.309 N 
HETATM   10  C   UNL     1      40.669  43.387  66.352  1.00  0.00     0.266 A 
HETATM   11  O   UNL     1      41.010  43.859  67.424  1.00  0.00    -0.270 OA
HETATM   12  C   UNL     1      40.068  44.131  65.149  1.00  0.00     0.249 A 
HETATM   13  H   UNL     1      38.813  41.746  61.381  1.00  0.00     0.173 HD
HETATM   14  H   UNL     1      41.157  41.356  66.638  1.00  0.00     0.170 HD
ENDROOT
BRANCH  12  15
HETATM   15  N   UNL     1      38.847  44.895  65.471  1.00  0.00    -0.332 N 
HETATM   16  C   UNL     1      37.752  44.350  66.095  1.00  0.00     0.219 C 
HETATM   17  O   UNL     1      37.736  43.210  66.544  1.00  0.00    -0.274 OA
HETATM   18  H   UNL     1      38.729  45.783  64.996  1.00  0.00     0.164 HD
BRANCH  16  19
HETATM   19  C   UNL     1      36.547  45.261  66.126  1.00  0.00     0.107 C 
BRANCH  19  20
HETATM   20  C   UNL     1      36.675  46.333  65.045  1.00  0.00     0.047 C 
BRANCH  20  21
HETATM   21  C   UNL     1      37.015  47.691  65.608  1.00  0.00    -0.058 A 
HETATM   22  C   UNL     1      37.689  48.636  64.821  1.00  0.00     0.007 A 
HETATM   23  C   UNL     1      37.993  49.898  65.334  1.00  0.00     0.001 A 
HETATM   24  C   UNL     1      37.626  50.230  66.638  1.00  0.00     0.000 A 
HETATM   25  C   UNL     1      36.953  49.300  67.427  1.00  0.00     0.001 A 
HETATM   26  C   UNL     1      36.645  48.038  66.915  1.00  0.00     0.007 A 
ENDBRANCH  20  21
ENDBRANCH  19  20
ENDBRANCH  16  19
ENDBRANCH  12  15
BRANCH  12  27
HETATM   27  C   UNL     1      41.214  44.998  64.609  1.00  0.00     0.426 C 
HETATM   28  F   UNL     1      40.824  45.813  63.601  1.00  0.00    -0.167 F 
HETATM   29  F   UNL     1      41.720  45.793  65.585  1.00  0.00    -0.167 F 
HETATM   30  F   UNL     1      42.249  44.253  64.159  1.00  0.00    -0.167 F 
ENDBRANCH  12  27
BRANCH   1  31
HETATM   31  C   UNL     1      40.535  39.334  64.736  1.00  0.00     0.045 A 
HETATM   32  C   UNL     1      39.660  38.605  65.553  1.00  0.00     0.031 A 
HETATM   33  C   UNL     1      40.039  37.375  66.102  1.00  0.00     0.009 A 
HETATM   34  C   UNL     1      41.313  36.854  65.864  1.00  0.00    -0.062 A 
HETATM   35  C   UNL     1      41.702  35.519  66.424  1.00  0.00     0.048 C 
HETATM   36  C   UNL     1      42.198  37.579  65.060  1.00  0.00     0.009 A 
HETATM   37  C   UNL     1      41.816  38.809  64.510  1.00  0.00     0.031 A 
ENDBRANCH   1  31
TORSDOF 6
ENDMDL
MODEL 10
REMARK VINA RESULT:      -8.3     11.139     13.795
REMARK  6 active torsions:
REMARK  status: ('A' for Active; 'I' for Inactive)
REMARK    1  A    between atoms: C_5  and  N_6 
REMARK    2  A    between atoms: C_17  and  N_18 
REMARK    3  A    between atoms: C_17  and  C_29 
REMARK       I    between atoms: N_18  and  C_19 
REMARK    4  A    between atoms: C_19  and  C_20 
REMARK    5  A    between atoms: C_20  and  C_21 
REMARK    6  A    between atoms: C_21  and  C_22 
ROOT
HETATM    1  N   UNL     1      30.505  49.169  41.302  1.00  0.00    -0.248 N 
HETATM    2  C   UNL     1      31.014  49.125  42.621  1.00  0.00     0.335 A 
HETATM    3  O   UNL     1      31.002  48.155  43.377  1.00  0.00    -0.246 OA
HETATM    4  N   UNL     1      31.611  50.284  43.076  1.00  0.00    -0.274 N 
HETATM    5  C   UNL     1      31.830  51.431  42.370  1.00  0.00     0.262 A 
HETATM    6  O   UNL     1      32.448  52.392  42.804  1.00  0.00    -0.267 OA
HETATM    7  C   UNL     1      31.253  51.430  41.044  1.00  0.00     0.101 A 
HETATM    8  C   UNL     1      30.641  50.340  40.580  1.00  0.00     0.134 A 
HETATM    9  N   UNL     1      30.140  50.621  39.347  1.00  0.00    -0.309 N 
HETATM   10  C   UNL     1      30.475  51.905  38.934  1.00  0.00     0.266 A 
HETATM   11  O   UNL     1      30.223  52.372  37.835  1.00  0.00    -0.270 OA
HETATM   12  C   UNL     1      31.204  52.592  40.100  1.00  0.00     0.249 A 
HETATM   13  H   UNL     1      32.013  50.230  44.001  1.00  0.00     0.173 HD
HETATM   14  H   UNL     1      29.624  49.985  38.756  1.00  0.00     0.170 HD
ENDROOT
BRANCH  12  15
HETATM   15  N   UNL     1      32.543  53.102  39.745  1.00  0.00    -0.332 N 
HETATM   16  C   UNL     1      33.546  52.314  39.239  1.00  0.00     0.219 C 
HETATM   17  O   UNL     1      33.384  51.141  38.926  1.00  0.00    -0.274 OA
HETATM   18  H   UNL     1      32.796  54.011  40.119  1.00  0.00     0.164 HD
BRANCH  16  19
HETATM   19  C   UNL     1      34.887  53.006  39.156  1.00  0.00     0.107 C 
BRANCH  19  20
HETATM   20  C   UNL     1      35.970  52.124  39.776  1.00  0.00     0.047 C 
BRANCH  20  21
HETATM   21  C   UNL     1      36.274  52.491  41.208  1.00  0.00    -0.058 A 
HETATM   22  C   UNL     1      37.130  53.563  41.499  1.00  0.00     0.007 A 
HETATM   23  C   UNL     1      37.402  53.913  42.822  1.00  0.00     0.001 A 
HETATM   24  C   UNL     1      36.821  53.197  43.868  1.00  0.00     0.000 A 
HETATM   25  C   UNL     1      35.965  52.134  43.590  1.00  0.00     0.001 A 
HETATM   26  C   UNL     1      35.690  51.783  42.268  1.00  0.00     0.007 A 
ENDBRANCH  20  21
ENDBRANCH  19  20
ENDBRANCH  16  19
ENDBRANCH  12  15
BRANCH  12  27
HETATM   27  C   UNL     1      30.237  53.682  40.582  1.00  0.00     0.426 C 
HETATM   28  F   UNL     1      30.873  54.733  41.150  1.00  0.00    -0.167 F 
HETATM   29  F   UNL     1      29.508  54.174  39.550  1.00  0.00    -0.167 F 
HETATM   30  F   UNL     1      29.342  53.209  41.479  1.00  0.00    -0.167 F 
ENDBRANCH  12  27
BRANCH   1  31
HETATM   31  C   UNL     1      29.872  47.991  40.770  1.00  0.00     0.045 A 
HETATM   32  C   UNL     1      28.539  47.687  41.083  1.00  0.00     0.031 A 
HETATM   33  C   UNL     1      27.906  46.567  40.535  1.00  0.00     0.009 A 
HETATM   34  C   UNL     1      28.597  45.709  39.676  1.00  0.00    -0.062 A 
HETATM   35  C   UNL     1      27.902  44.530  39.063  1.00  0.00     0.048 C 
HETATM   36  C   UNL     1      29.929  45.997  39.366  1.00  0.00     0.009 A 
HETATM   37  C   UNL     1      30.561  47.120  39.914  1.00  0.00     0.031 A 
ENDBRANCH   1  31
TORSDOF 6
ENDMDL
