MODEL 1
REMARK VINA RESULT:      -9.2      0.000      0.000
REMARK  6 active torsions:
REMARK  status: ('A' for Active; 'I' for Inactive)
REMARK    1  A    between atoms: O_2  and  C_3 
REMARK    2  A    between atoms: C_5  and  O_6 
REMARK    3  A    between atoms: C_9  and  C_10 
REMARK       I    between atoms: C_10  and  N_11 
REMARK    4  A    between atoms: N_11  and  C_12 
REMARK    5  A    between atoms: N_15  and  C_16 
REMARK    6  A    between atoms: C_20  and  C_21 
ROOT
HETATM    1  C   UNL     1      24.478  46.710  49.267  1.00  0.00     0.087 C 
HETATM    2  C   UNL     1      25.327  47.506  50.276  1.00  0.00     0.045 C 
HETATM    3  C   UNL     1      24.938  47.178  51.715  1.00  0.00     0.126 C 
HETATM    4  N   UNL     1      25.058  45.729  51.938  1.00  0.00    -0.366 N 
HETATM    5  C   UNL     1      24.187  44.940  51.059  1.00  0.00     0.126 C 
HETATM    6  C   UNL     1      24.545  45.209  49.596  1.00  0.00     0.045 C 
ENDROOT
BRANCH   1   7
HETATM    7  N   UNL     1      23.080  47.155  49.210  1.00  0.00    -0.352 N 
HETATM    8  C   UNL     1      22.680  48.241  48.454  1.00  0.00     0.252 C 
HETATM    9  O   UNL     1      23.456  48.946  47.821  1.00  0.00    -0.268 OA
HETATM   10  H   UNL     1      22.373  46.453  49.382  1.00  0.00     0.163 HD
BRANCH   8  11
HETATM   11  C   UNL     1      21.215  48.518  48.419  1.00  0.00     0.037 A 
HETATM   12  C   UNL     1      20.264  47.489  48.367  1.00  0.00     0.054 A 
HETATM   13  C   UNL     1      18.904  47.799  48.341  1.00  0.00     0.071 A 
HETATM   14  C   UNL     1      18.496  49.138  48.387  1.00  0.00     0.073 A 
HETATM   15  C   UNL     1      19.433  50.167  48.472  1.00  0.00     0.071 A 
HETATM   16  C   UNL     1      20.792  49.852  48.480  1.00  0.00     0.054 A 
BRANCH  13  17
HETATM   17  O   UNL     1      17.876  46.899  48.276  1.00  0.00    -0.356 OA
HETATM   18  C   UNL     1      16.663  47.244  48.935  1.00  0.00     0.210 C 
ENDBRANCH  13  17
BRANCH  15  19
HETATM   19  O   UNL     1      19.154  51.504  48.544  1.00  0.00    -0.356 OA
HETATM   20  C   UNL     1      18.554  51.968  49.748  1.00  0.00     0.210 C 
ENDBRANCH  15  19
ENDBRANCH   8  11
ENDBRANCH   1   7
BRANCH   4  21
HETATM   21  C   UNL     1      26.205  45.169  52.436  1.00  0.00     0.121 A 
HETATM   22  N   UNL     1      26.992  44.297  51.727  1.00  0.00    -0.262 N 
HETATM   23  H   UNL     1      26.853  43.969  50.782  1.00  0.00     0.191 HD
HETATM   24  N   UNL     1      28.076  43.859  52.388  1.00  0.00    -0.173 NA
HETATM   25  C   UNL     1      28.033  44.502  53.565  1.00  0.00     0.090 A 
HETATM   26  C   UNL     1      26.875  45.327  53.631  1.00  0.00     0.084 A 
BRANCH  25  27
HETATM   27  C   UNL     1      29.077  44.319  54.580  1.00  0.00    -0.005 A 
HETATM   28  C   UNL     1      29.874  43.163  54.602  1.00  0.00     0.015 A 
HETATM   29  C   UNL     1      30.866  42.997  55.575  1.00  0.00     0.024 A 
HETATM   30  C   UNL     1      31.069  43.986  56.535  1.00  0.00     0.034 A 
HETATM   31 CL   UNL     1      32.288  43.780  57.730  1.00  0.00    -0.084 Cl
HETATM   32  C   UNL     1      30.287  45.138  56.533  1.00  0.00     0.024 A 
HETATM   33  C   UNL     1      29.296  45.301  55.560  1.00  0.00     0.015 A 
ENDBRANCH  25  27
ENDBRANCH   4  21
TORSDOF 6
ENDMDL
MODEL 2
REMARK VINA RESULT:      -9.1      0.826      2.169
REMARK  6 active torsions:
REMARK  status: ('A' for Active; 'I' for Inactive)
REMARK    1  A    between atoms: O_2  and  C_3 
REMARK    2  A    between atoms: C_5  and  O_6 
REMARK    3  A    between atoms: C_9  and  C_10 
REMARK       I    between atoms: C_10  and  N_11 
REMARK    4  A    between atoms: N_11  and  C_12 
REMARK    5  A    between atoms: N_15  and  C_16 
REMARK    6  A    between atoms: C_20  and  C_21 
ROOT
HETATM    1  C   UNL     1      24.788  47.194  49.082  1.00  0.00     0.087 C 
HETATM    2  C   UNL     1      25.611  47.827  50.219  1.00  0.00     0.045 C 
HETATM    3  C   UNL     1      25.060  47.443  51.589  1.00  0.00     0.126 C 
HETATM    4  N   UNL     1      25.022  45.976  51.708  1.00  0.00    -0.366 N 
HETATM    5  C   UNL     1      24.165  45.343  50.699  1.00  0.00     0.126 C 
HETATM    6  C   UNL     1      24.682  45.674  49.297  1.00  0.00     0.045 C 
ENDROOT
BRANCH   1   7
HETATM    7  N   UNL     1      23.451  47.781  48.939  1.00  0.00    -0.352 N 
HETATM    8  C   UNL     1      23.221  48.925  48.199  1.00  0.00     0.252 C 
HETATM    9  O   UNL     1      24.109  49.567  47.652  1.00  0.00    -0.268 OA
HETATM   10  H   UNL     1      22.666  47.150  49.032  1.00  0.00     0.163 HD
BRANCH   8  11
HETATM   11  C   UNL     1      21.798  49.352  48.067  1.00  0.00     0.037 A 
HETATM   12  C   UNL     1      21.392  50.672  48.314  1.00  0.00     0.054 A 
HETATM   13  C   UNL     1      20.048  51.024  48.171  1.00  0.00     0.071 A 
HETATM   14  C   UNL     1      19.117  50.061  47.763  1.00  0.00     0.073 A 
HETATM   15  C   UNL     1      19.518  48.755  47.483  1.00  0.00     0.071 A 
HETATM   16  C   UNL     1      20.859  48.404  47.644  1.00  0.00     0.054 A 
BRANCH  13  17
HETATM   17  O   UNL     1      19.516  52.265  48.394  1.00  0.00    -0.356 OA
HETATM   18  C   UNL     1      18.456  52.361  49.337  1.00  0.00     0.210 C 
ENDBRANCH  13  17
BRANCH  15  19
HETATM   19  O   UNL     1      18.705  47.740  47.059  1.00  0.00    -0.356 OA
HETATM   20  C   UNL     1      18.475  46.678  47.976  1.00  0.00     0.210 C 
ENDBRANCH  15  19
ENDBRANCH   8  11
ENDBRANCH   1   7
BRANCH   4  21
HETATM   21  C   UNL     1      26.059  45.270  52.258  1.00  0.00     0.121 A 
HETATM   22  N   UNL     1      26.538  44.096  51.734  1.00  0.00    -0.262 N 
HETATM   23  H   UNL     1      26.219  43.615  50.905  1.00  0.00     0.191 HD
HETATM   24  N   UNL     1      27.560  43.556  52.416  1.00  0.00    -0.173 NA
HETATM   25  C   UNL     1      27.803  44.431  53.405  1.00  0.00     0.090 A 
HETATM   26  C   UNL     1      26.880  45.512  53.339  1.00  0.00     0.084 A 
BRANCH  25  27
HETATM   27  C   UNL     1      28.886  44.218  54.371  1.00  0.00    -0.005 A 
HETATM   28  C   UNL     1      29.664  43.050  54.345  1.00  0.00     0.015 A 
HETATM   29  C   UNL     1      30.695  42.856  55.272  1.00  0.00     0.024 A 
HETATM   30  C   UNL     1      30.955  43.829  56.234  1.00  0.00     0.034 A 
HETATM   31 CL   UNL     1      32.222  43.589  57.372  1.00  0.00    -0.084 Cl
HETATM   32  C   UNL     1      30.193  44.993  56.280  1.00  0.00     0.024 A 
HETATM   33  C   UNL     1      29.163  45.184  55.353  1.00  0.00     0.015 A 
ENDBRANCH  25  27
ENDBRANCH   4  21
TORSDOF 6
ENDMDL
MODEL 3
REMARK VINA RESULT:      -8.8      5.102     11.248
REMARK  6 active torsions:
REMARK  status: ('A' for Active; 'I' for Inactive)
REMARK    1  A    between atoms: O_2  and  C_3 
REMARK    2  A    between atoms: C_5  and  O_6 
REMARK    3  A    between atoms: C_9  and  C_10 
REMARK       I    between atoms: C_10  and  N_11 
REMARK    4  A    between atoms: N_11  and  C_12 
REMARK    5  A    between atoms: N_15  and  C_16 
REMARK    6  A    between atoms: C_20  and  C_21 
ROOT
HETATM    1  C   UNL     1      25.062  45.813  52.073  1.00  0.00     0.087 C 
HETATM    2  C   UNL     1      25.338  47.326  52.154  1.00  0.00     0.045 C 
HETATM    3  C   UNL     1      26.127  47.816  50.943  1.00  0.00     0.126 C 
HETATM    4  N   UNL     1      25.401  47.468  49.711  1.00  0.00    -0.366 N 
HETATM    5  C   UNL     1      25.206  46.023  49.550  1.00  0.00     0.126 C 
HETATM    6  C   UNL     1      24.397  45.474  50.728  1.00  0.00     0.045 C 
ENDROOT
BRANCH   1   7
HETATM    7  N   UNL     1      26.264  44.994  52.265  1.00  0.00    -0.352 N 
HETATM    8  C   UNL     1      26.818  44.775  53.513  1.00  0.00     0.252 C 
HETATM    9  O   UNL     1      26.389  45.282  54.541  1.00  0.00    -0.268 OA
HETATM   10  H   UNL     1      26.443  44.281  51.571  1.00  0.00     0.163 HD
BRANCH   8  11
HETATM   11  C   UNL     1      27.984  43.846  53.564  1.00  0.00     0.037 A 
HETATM   12  C   UNL     1      29.040  44.029  54.470  1.00  0.00     0.054 A 
HETATM   13  C   UNL     1      30.107  43.129  54.484  1.00  0.00     0.071 A 
HETATM   14  C   UNL     1      30.108  42.038  53.606  1.00  0.00     0.073 A 
HETATM   15  C   UNL     1      29.047  41.831  52.725  1.00  0.00     0.071 A 
HETATM   16  C   UNL     1      27.991  42.743  52.703  1.00  0.00     0.054 A 
BRANCH  13  17
HETATM   17  O   UNL     1      31.203  43.197  55.301  1.00  0.00    -0.356 OA
HETATM   18  C   UNL     1      31.155  44.120  56.382  1.00  0.00     0.210 C 
ENDBRANCH  13  17
BRANCH  15  19
HETATM   19  O   UNL     1      28.929  40.794  51.841  1.00  0.00    -0.356 OA
HETATM   20  C   UNL     1      27.834  40.848  50.934  1.00  0.00     0.210 C 
ENDBRANCH  15  19
ENDBRANCH   8  11
ENDBRANCH   1   7
BRANCH   4  21
HETATM   21  C   UNL     1      24.527  48.341  49.119  1.00  0.00     0.121 A 
HETATM   22  N   UNL     1      24.887  49.222  48.131  1.00  0.00    -0.262 N 
HETATM   23  H   UNL     1      25.799  49.339  47.711  1.00  0.00     0.191 HD
HETATM   24  N   UNL     1      23.886  49.993  47.678  1.00  0.00    -0.173 NA
HETATM   25  C   UNL     1      22.807  49.576  48.358  1.00  0.00     0.090 A 
HETATM   26  C   UNL     1      23.172  48.547  49.271  1.00  0.00     0.084 A 
BRANCH  25  27
HETATM   27  C   UNL     1      21.480  50.157  48.127  1.00  0.00    -0.005 A 
HETATM   28  C   UNL     1      20.524  49.494  47.340  1.00  0.00     0.015 A 
HETATM   29  C   UNL     1      19.261  50.058  47.124  1.00  0.00     0.024 A 
HETATM   30  C   UNL     1      18.943  51.289  47.693  1.00  0.00     0.034 A 
HETATM   31 CL   UNL     1      17.391  51.979  47.426  1.00  0.00    -0.084 Cl
HETATM   32  C   UNL     1      19.878  51.964  48.474  1.00  0.00     0.024 A 
HETATM   33  C   UNL     1      21.140  51.399  48.687  1.00  0.00     0.015 A 
ENDBRANCH  25  27
ENDBRANCH   4  21
TORSDOF 6
ENDMDL
MODEL 4
REMARK VINA RESULT:      -8.8      1.613      2.888
REMARK  6 active torsions:
REMARK  status: ('A' for Active; 'I' for Inactive)
REMARK    1  A    between atoms: O_2  and  C_3 
REMARK    2  A    between atoms: C_5  and  O_6 
REMARK    3  A    between atoms: C_9  and  C_10 
REMARK       I    between atoms: C_10  and  N_11 
REMARK    4  A    between atoms: N_11  and  C_12 
REMARK    5  A    between atoms: N_15  and  C_16 
REMARK    6  A    between atoms: C_20  and  C_21 
ROOT
HETATM    1  C   UNL     1      25.227  47.343  50.111  1.00  0.00     0.087 C 
HETATM    2  C   UNL     1      25.006  47.014  51.599  1.00  0.00     0.045 C 
HETATM    3  C   UNL     1      24.788  45.519  51.816  1.00  0.00     0.126 C 
HETATM    4  N   UNL     1      25.931  44.773  51.266  1.00  0.00    -0.366 N 
HETATM    5  C   UNL     1      26.113  44.984  49.825  1.00  0.00     0.126 C 
HETATM    6  C   UNL     1      26.359  46.468  49.545  1.00  0.00     0.045 C 
ENDROOT
BRANCH   1   7
HETATM    7  N   UNL     1      24.014  47.191  49.299  1.00  0.00    -0.352 N 
HETATM    8  C   UNL     1      23.097  48.214  49.141  1.00  0.00     0.252 C 
HETATM    9  O   UNL     1      23.191  49.299  49.702  1.00  0.00    -0.268 OA
HETATM   10  H   UNL     1      24.051  46.512  48.551  1.00  0.00     0.163 HD
BRANCH   8  11
HETATM   11  C   UNL     1      21.961  47.945  48.213  1.00  0.00     0.037 A 
HETATM   12  C   UNL     1      20.898  48.848  48.058  1.00  0.00     0.054 A 
HETATM   13  C   UNL     1      19.860  48.554  47.172  1.00  0.00     0.071 A 
HETATM   14  C   UNL     1      19.896  47.368  46.429  1.00  0.00     0.073 A 
HETATM   15  C   UNL     1      20.965  46.480  46.552  1.00  0.00     0.071 A 
HETATM   16  C   UNL     1      21.991  46.771  47.451  1.00  0.00     0.054 A 
BRANCH  13  17
HETATM   17  O   UNL     1      18.761  49.334  46.937  1.00  0.00    -0.356 OA
HETATM   18  C   UNL     1      18.935  50.744  47.006  1.00  0.00     0.210 C 
ENDBRANCH  13  17
BRANCH  15  19
HETATM   19  O   UNL     1      21.118  45.308  45.864  1.00  0.00    -0.356 OA
HETATM   20  C   UNL     1      21.150  44.113  46.636  1.00  0.00     0.210 C 
ENDBRANCH  15  19
ENDBRANCH   8  11
ENDBRANCH   1   7
BRANCH   4  21
HETATM   21  C   UNL     1      27.005  44.425  52.041  1.00  0.00     0.121 A 
HETATM   22  N   UNL     1      27.994  43.571  51.625  1.00  0.00    -0.262 N 
HETATM   23  H   UNL     1      28.076  43.108  50.730  1.00  0.00     0.191 HD
HETATM   24  N   UNL     1      28.964  43.356  52.529  1.00  0.00    -0.173 NA
HETATM   25  C   UNL     1      28.630  44.136  53.569  1.00  0.00     0.090 A 
HETATM   26  C   UNL     1      27.409  44.816  53.300  1.00  0.00     0.084 A 
BRANCH  25  27
HETATM   27  C   UNL     1      29.467  44.213  54.773  1.00  0.00    -0.005 A 
HETATM   28  C   UNL     1      29.407  45.325  55.628  1.00  0.00     0.015 A 
HETATM   29  C   UNL     1      30.210  45.390  56.773  1.00  0.00     0.024 A 
HETATM   30  C   UNL     1      31.081  44.344  57.070  1.00  0.00     0.034 A 
HETATM   31 CL   UNL     1      32.066  44.426  58.477  1.00  0.00    -0.084 Cl
HETATM   32  C   UNL     1      31.158  43.234  56.233  1.00  0.00     0.024 A 
HETATM   33  C   UNL     1      30.355  43.172  55.089  1.00  0.00     0.015 A 
ENDBRANCH  25  27
ENDBRANCH   4  21
TORSDOF 6
ENDMDL
MODEL 5
REMARK VINA RESULT:      -8.8      5.162     11.134
REMARK  6 active torsions:
REMARK  status: ('A' for Active; 'I' for Inactive)
REMARK    1  A    between atoms: O_2  and  C_3 
REMARK    2  A    between atoms: C_5  and  O_6 
REMARK    3  A    between atoms: C_9  and  C_10 
REMARK       I    between atoms: C_10  and  N_11 
REMARK    4  A    between atoms: N_11  and  C_12 
REMARK    5  A    between atoms: N_15  and  C_16 
REMARK    6  A    between atoms: C_20  and  C_21 
ROOT
HETATM    1  C   UNL     1      25.046  45.863  52.051  1.00  0.00     0.087 C 
HETATM    2  C   UNL     1      25.425  47.356  52.062  1.00  0.00     0.045 C 
HETATM    3  C   UNL     1      26.155  47.757  50.784  1.00  0.00     0.126 C 
HETATM    4  N   UNL     1      25.321  47.424  49.618  1.00  0.00    -0.366 N 
HETATM    5  C   UNL     1      25.022  45.991  49.519  1.00  0.00     0.126 C 
HETATM    6  C   UNL     1      24.266  45.531  50.767  1.00  0.00     0.045 C 
ENDROOT
BRANCH   1   7
HETATM    7  N   UNL     1      26.204  44.972  52.186  1.00  0.00    -0.352 N 
HETATM    8  C   UNL     1      26.569  44.412  53.396  1.00  0.00     0.252 C 
HETATM    9  O   UNL     1      25.998  44.653  54.452  1.00  0.00    -0.268 OA
HETATM   10  H   UNL     1      26.479  44.456  51.361  1.00  0.00     0.163 HD
BRANCH   8  11
HETATM   11  C   UNL     1      27.712  43.454  53.363  1.00  0.00     0.037 A 
HETATM   12  C   UNL     1      27.698  42.308  52.554  1.00  0.00     0.054 A 
HETATM   13  C   UNL     1      28.794  41.444  52.555  1.00  0.00     0.071 A 
HETATM   14  C   UNL     1      29.910  41.737  53.348  1.00  0.00     0.073 A 
HETATM   15  C   UNL     1      29.946  42.891  54.130  1.00  0.00     0.071 A 
HETATM   16  C   UNL     1      28.841  43.742  54.140  1.00  0.00     0.054 A 
BRANCH  13  17
HETATM   17  O   UNL     1      28.906  40.289  51.829  1.00  0.00    -0.356 OA
HETATM   18  C   UNL     1      28.333  40.279  50.526  1.00  0.00     0.210 C 
ENDBRANCH  13  17
BRANCH  15  19
HETATM   19  O   UNL     1      30.985  43.290  54.925  1.00  0.00    -0.356 OA
HETATM   20  C   UNL     1      30.697  44.276  55.909  1.00  0.00     0.210 C 
ENDBRANCH  15  19
ENDBRANCH   8  11
ENDBRANCH   1   7
BRANCH   4  21
HETATM   21  C   UNL     1      24.465  48.336  49.060  1.00  0.00     0.121 A 
HETATM   22  N   UNL     1      24.860  49.299  48.166  1.00  0.00    -0.262 N 
HETATM   23  H   UNL     1      25.789  49.458  47.800  1.00  0.00     0.191 HD
HETATM   24  N   UNL     1      23.872  50.097  47.731  1.00  0.00    -0.173 NA
HETATM   25  C   UNL     1      22.768  49.616  48.323  1.00  0.00     0.090 A 
HETATM   26  C   UNL     1      23.102  48.517  49.164  1.00  0.00     0.084 A 
BRANCH  25  27
HETATM   27  C   UNL     1      21.445  50.204  48.079  1.00  0.00    -0.005 A 
HETATM   28  C   UNL     1      21.062  51.408  48.690  1.00  0.00     0.015 A 
HETATM   29  C   UNL     1      19.798  51.960  48.452  1.00  0.00     0.024 A 
HETATM   30  C   UNL     1      18.907  51.311  47.600  1.00  0.00     0.034 A 
HETATM   31 CL   UNL     1      17.355  51.991  47.308  1.00  0.00    -0.084 Cl
HETATM   32  C   UNL     1      19.266  50.114  46.986  1.00  0.00     0.024 A 
HETATM   33  C   UNL     1      20.530  49.564  47.227  1.00  0.00     0.015 A 
ENDBRANCH  25  27
ENDBRANCH   4  21
TORSDOF 6
ENDMDL
MODEL 6
REMARK VINA RESULT:      -8.8      6.253     12.540
REMARK  6 active torsions:
REMARK  status: ('A' for Active; 'I' for Inactive)
REMARK    1  A    between atoms: O_2  and  C_3 
REMARK    2  A    between atoms: C_5  and  O_6 
REMARK    3  A    between atoms: C_9  and  C_10 
REMARK       I    between atoms: C_10  and  N_11 
REMARK    4  A    between atoms: N_11  and  C_12 
REMARK    5  A    between atoms: N_15  and  C_16 
REMARK    6  A    between atoms: C_20  and  C_21 
ROOT
HETATM    1  C   UNL     1      20.719  50.293  47.754  1.00  0.00     0.087 C 
HETATM    2  C   UNL     1      19.365  49.578  47.587  1.00  0.00     0.045 C 
HETATM    3  C   UNL     1      18.684  49.351  48.933  1.00  0.00     0.126 C 
HETATM    4  N   UNL     1      18.527  50.639  49.627  1.00  0.00    -0.366 N 
HETATM    5  C   UNL     1      19.808  51.306  49.892  1.00  0.00     0.126 C 
HETATM    6  C   UNL     1      20.532  51.581  48.573  1.00  0.00     0.045 C 
ENDROOT
BRANCH   1   7
HETATM    7  N   UNL     1      21.749  49.447  48.367  1.00  0.00    -0.352 N 
HETATM    8  C   UNL     1      23.088  49.558  48.041  1.00  0.00     0.252 C 
HETATM    9  O   UNL     1      23.514  50.324  47.186  1.00  0.00    -0.268 OA
HETATM   10  H   UNL     1      21.548  49.083  49.288  1.00  0.00     0.163 HD
BRANCH   8  11
HETATM   11  C   UNL     1      24.030  48.696  48.812  1.00  0.00     0.037 A 
HETATM   12  C   UNL     1      23.605  47.530  49.467  1.00  0.00     0.054 A 
HETATM   13  C   UNL     1      24.527  46.754  50.171  1.00  0.00     0.071 A 
HETATM   14  C   UNL     1      25.874  47.133  50.204  1.00  0.00     0.073 A 
HETATM   15  C   UNL     1      26.311  48.272  49.528  1.00  0.00     0.071 A 
HETATM   16  C   UNL     1      25.383  49.054  48.840  1.00  0.00     0.054 A 
BRANCH  13  17
HETATM   17  O   UNL     1      24.247  45.607  50.864  1.00  0.00    -0.356 OA
HETATM   18  C   UNL     1      25.066  45.307  51.988  1.00  0.00     0.210 C 
ENDBRANCH  13  17
BRANCH  15  19
HETATM   19  O   UNL     1      27.600  48.727  49.471  1.00  0.00    -0.356 OA
HETATM   20  C   UNL     1      27.798  50.020  48.914  1.00  0.00     0.210 C 
ENDBRANCH  15  19
ENDBRANCH   8  11
ENDBRANCH   1   7
BRANCH   4  21
HETATM   21  C   UNL     1      17.385  51.386  49.511  1.00  0.00     0.121 A 
HETATM   22  N   UNL     1      16.272  50.967  48.828  1.00  0.00    -0.262 N 
HETATM   23  H   UNL     1      16.137  50.088  48.348  1.00  0.00     0.191 HD
HETATM   24  N   UNL     1      15.253  51.841  48.830  1.00  0.00    -0.173 NA
HETATM   25  C   UNL     1      15.689  52.862  49.585  1.00  0.00     0.090 A 
HETATM   26  C   UNL     1      17.019  52.613  50.024  1.00  0.00     0.084 A 
BRANCH  25  27
HETATM   27  C   UNL     1      14.843  54.028  49.864  1.00  0.00    -0.005 A 
HETATM   28  C   UNL     1      13.443  53.924  49.872  1.00  0.00     0.015 A 
HETATM   29  C   UNL     1      12.645  55.043  50.138  1.00  0.00     0.024 A 
HETATM   30  C   UNL     1      13.241  56.276  50.397  1.00  0.00     0.034 A 
HETATM   31 CL   UNL     1      12.258  57.648  50.723  1.00  0.00    -0.084 Cl
HETATM   32  C   UNL     1      14.627  56.400  50.389  1.00  0.00     0.024 A 
HETATM   33  C   UNL     1      15.423  55.281  50.122  1.00  0.00     0.015 A 
ENDBRANCH  25  27
ENDBRANCH   4  21
TORSDOF 6
ENDMDL
MODEL 7
REMARK VINA RESULT:      -8.5      6.358     11.336
REMARK  6 active torsions:
REMARK  status: ('A' for Active; 'I' for Inactive)
REMARK    1  A    between atoms: O_2  and  C_3 
REMARK    2  A    between atoms: C_5  and  O_6 
REMARK    3  A    between atoms: C_9  and  C_10 
REMARK       I    between atoms: C_10  and  N_11 
REMARK    4  A    between atoms: N_11  and  C_12 
REMARK    5  A    between atoms: N_15  and  C_16 
REMARK    6  A    between atoms: C_20  and  C_21 
ROOT
HETATM    1  C   UNL     1      25.878  42.922  51.058  1.00  0.00     0.087 C 
HETATM    2  C   UNL     1      26.647  44.255  51.105  1.00  0.00     0.045 C 
HETATM    3  C   UNL     1      26.707  44.915  49.730  1.00  0.00     0.126 C 
HETATM    4  N   UNL     1      25.341  45.102  49.216  1.00  0.00    -0.366 N 
HETATM    5  C   UNL     1      24.609  43.839  49.064  1.00  0.00     0.126 C 
HETATM    6  C   UNL     1      24.496  43.138  50.420  1.00  0.00     0.045 C 
ENDROOT
BRANCH   1   7
HETATM    7  N   UNL     1      26.603  41.860  50.351  1.00  0.00    -0.352 N 
HETATM    8  C   UNL     1      27.544  41.064  50.977  1.00  0.00     0.252 C 
HETATM    9  O   UNL     1      27.886  41.211  52.144  1.00  0.00    -0.268 OA
HETATM   10  H   UNL     1      26.141  41.451  49.550  1.00  0.00     0.163 HD
BRANCH   8  11
HETATM   11  C   UNL     1      28.132  39.966  50.157  1.00  0.00     0.037 A 
HETATM   12  C   UNL     1      27.858  39.832  48.787  1.00  0.00     0.054 A 
HETATM   13  C   UNL     1      28.437  38.790  48.061  1.00  0.00     0.071 A 
HETATM   14  C   UNL     1      29.305  37.896  48.701  1.00  0.00     0.073 A 
HETATM   15  C   UNL     1      29.609  38.041  50.054  1.00  0.00     0.071 A 
HETATM   16  C   UNL     1      29.013  39.074  50.779  1.00  0.00     0.054 A 
BRANCH  13  17
HETATM   17  O   UNL     1      28.245  38.536  46.730  1.00  0.00    -0.356 OA
HETATM   18  C   UNL     1      27.949  37.194  46.359  1.00  0.00     0.210 C 
ENDBRANCH  13  17
BRANCH  15  19
HETATM   19  O   UNL     1      30.455  37.246  50.776  1.00  0.00    -0.356 OA
HETATM   20  C   UNL     1      29.853  36.307  51.660  1.00  0.00     0.210 C 
ENDBRANCH  15  19
ENDBRANCH   8  11
ENDBRANCH   1   7
BRANCH   4  21
HETATM   21  C   UNL     1      24.650  46.268  49.416  1.00  0.00     0.121 A 
HETATM   22  N   UNL     1      25.017  47.219  50.333  1.00  0.00    -0.262 N 
HETATM   23  H   UNL     1      25.815  47.203  50.953  1.00  0.00     0.191 HD
HETATM   24  N   UNL     1      24.212  48.292  50.378  1.00  0.00    -0.173 NA
HETATM   25  C   UNL     1      23.300  48.068  49.419  1.00  0.00     0.090 A 
HETATM   26  C   UNL     1      23.541  46.809  48.799  1.00  0.00     0.084 A 
BRANCH  25  27
HETATM   27  C   UNL     1      22.241  49.039  49.121  1.00  0.00    -0.005 A 
HETATM   28  C   UNL     1      22.545  50.380  48.836  1.00  0.00     0.015 A 
HETATM   29  C   UNL     1      21.527  51.299  48.555  1.00  0.00     0.024 A 
HETATM   30  C   UNL     1      20.197  50.884  48.557  1.00  0.00     0.034 A 
HETATM   31 CL   UNL     1      18.949  52.015  48.211  1.00  0.00    -0.084 Cl
HETATM   32  C   UNL     1      19.875  49.560  48.841  1.00  0.00     0.024 A 
HETATM   33  C   UNL     1      20.893  48.644  49.123  1.00  0.00     0.015 A 
ENDBRANCH  25  27
ENDBRANCH   4  21
TORSDOF 6
ENDMDL
MODEL 8
REMARK VINA RESULT:      -8.4      5.400     11.323
REMARK  6 active torsions:
REMARK  status: ('A' for Active; 'I' for Inactive)
REMARK    1  A    between atoms: O_2  and  C_3 
REMARK    2  A    between atoms: C_5  and  O_6 
REMARK    3  A    between atoms: C_9  and  C_10 
REMARK       I    between atoms: C_10  and  N_11 
REMARK    4  A    between atoms: N_11  and  C_12 
REMARK    5  A    between atoms: N_15  and  C_16 
REMARK    6  A    between atoms: C_20  and  C_21 
ROOT
HETATM    1  C   UNL     1      26.657  43.917  50.577  1.00  0.00     0.087 C 
HETATM    2  C   UNL     1      25.204  43.447  50.768  1.00  0.00     0.045 C 
HETATM    3  C   UNL     1      24.294  44.598  51.188  1.00  0.00     0.126 C 
HETATM    4  N   UNL     1      24.381  45.679  50.193  1.00  0.00    -0.366 N 
HETATM    5  C   UNL     1      25.737  46.221  50.054  1.00  0.00     0.126 C 
HETATM    6  C   UNL     1      26.696  45.114  49.612  1.00  0.00     0.045 C 
ENDROOT
BRANCH   1   7
HETATM    7  N   UNL     1      27.326  44.260  51.837  1.00  0.00    -0.352 N 
HETATM    8  C   UNL     1      28.033  43.330  52.576  1.00  0.00     0.252 C 
HETATM    9  O   UNL     1      28.114  42.146  52.273  1.00  0.00    -0.268 OA
HETATM   10  H   UNL     1      27.609  45.224  51.953  1.00  0.00     0.163 HD
BRANCH   8  11
HETATM   11  C   UNL     1      28.736  43.844  53.787  1.00  0.00     0.037 A 
HETATM   12  C   UNL     1      29.844  43.184  54.340  1.00  0.00     0.054 A 
HETATM   13  C   UNL     1      30.471  43.708  55.471  1.00  0.00     0.071 A 
HETATM   14  C   UNL     1      30.003  44.901  56.036  1.00  0.00     0.073 A 
HETATM   15  C   UNL     1      28.923  45.580  55.474  1.00  0.00     0.071 A 
HETATM   16  C   UNL     1      28.288  45.043  54.353  1.00  0.00     0.054 A 
BRANCH  13  17
HETATM   17  O   UNL     1      31.546  43.161  56.118  1.00  0.00    -0.356 OA
HETATM   18  C   UNL     1      31.797  43.596  57.450  1.00  0.00     0.210 C 
ENDBRANCH  13  17
BRANCH  15  19
HETATM   19  O   UNL     1      28.394  46.759  55.924  1.00  0.00    -0.356 OA
HETATM   20  C   UNL     1      27.623  47.511  54.994  1.00  0.00     0.210 C 
ENDBRANCH  15  19
ENDBRANCH   8  11
ENDBRANCH   1   7
BRANCH   4  21
HETATM   21  C   UNL     1      23.505  45.763  49.142  1.00  0.00     0.121 A 
HETATM   22  N   UNL     1      23.424  44.823  48.147  1.00  0.00    -0.262 N 
HETATM   23  H   UNL     1      23.961  43.972  48.056  1.00  0.00     0.191 HD
HETATM   24  N   UNL     1      22.502  45.084  47.206  1.00  0.00    -0.173 NA
HETATM   25  C   UNL     1      21.914  46.218  47.618  1.00  0.00     0.090 A 
HETATM   26  C   UNL     1      22.519  46.673  48.823  1.00  0.00     0.084 A 
BRANCH  25  27
HETATM   27  C   UNL     1      20.812  46.830  46.868  1.00  0.00    -0.005 A 
HETATM   28  C   UNL     1      20.144  47.966  47.355  1.00  0.00     0.015 A 
HETATM   29  C   UNL     1      19.093  48.541  46.633  1.00  0.00     0.024 A 
HETATM   30  C   UNL     1      18.699  47.985  45.417  1.00  0.00     0.034 A 
HETATM   31 CL   UNL     1      17.407  48.694  44.532  1.00  0.00    -0.084 Cl
HETATM   32  C   UNL     1      19.346  46.858  44.919  1.00  0.00     0.024 A 
HETATM   33  C   UNL     1      20.396  46.283  45.643  1.00  0.00     0.015 A 
ENDBRANCH  25  27
ENDBRANCH   4  21
TORSDOF 6
ENDMDL
MODEL 9
REMARK VINA RESULT:      -8.3      5.877     11.170
REMARK  6 active torsions:
REMARK  status: ('A' for Active; 'I' for Inactive)
REMARK    1  A    between atoms: O_2  and  C_3 
REMARK    2  A    between atoms: C_5  and  O_6 
REMARK    3  A    between atoms: C_9  and  C_10 
REMARK       I    between atoms: C_10  and  N_11 
REMARK    4  A    between atoms: N_11  and  C_12 
REMARK    5  A    between atoms: N_15  and  C_16 
REMARK    6  A    between atoms: C_20  and  C_21 
ROOT
HETATM    1  C   UNL     1      27.136  43.620  50.925  1.00  0.00     0.087 C 
HETATM    2  C   UNL     1      25.934  42.657  50.964  1.00  0.00     0.045 C 
HETATM    3  C   UNL     1      24.630  43.402  51.236  1.00  0.00     0.126 C 
HETATM    4  N   UNL     1      24.444  44.452  50.221  1.00  0.00    -0.366 N 
HETATM    5  C   UNL     1      25.524  45.446  50.221  1.00  0.00     0.126 C 
HETATM    6  C   UNL     1      26.861  44.760  49.931  1.00  0.00     0.045 C 
ENDROOT
BRANCH   1   7
HETATM    7  N   UNL     1      27.481  44.167  52.242  1.00  0.00    -0.352 N 
HETATM    8  C   UNL     1      28.602  43.761  52.941  1.00  0.00     0.252 C 
HETATM    9  O   UNL     1      29.361  42.882  52.551  1.00  0.00    -0.268 OA
HETATM   10  H   UNL     1      27.146  45.099  52.448  1.00  0.00     0.163 HD
BRANCH   8  11
HETATM   11  C   UNL     1      28.875  44.472  54.224  1.00  0.00     0.037 A 
HETATM   12  C   UNL     1      29.923  44.092  55.076  1.00  0.00     0.054 A 
HETATM   13  C   UNL     1      30.142  44.793  56.263  1.00  0.00     0.071 A 
HETATM   14  C   UNL     1      29.326  45.884  56.587  1.00  0.00     0.073 A 
HETATM   15  C   UNL     1      28.303  46.288  55.730  1.00  0.00     0.071 A 
HETATM   16  C   UNL     1      28.077  45.574  54.553  1.00  0.00     0.054 A 
BRANCH  13  17
HETATM   17  O   UNL     1      31.114  44.521  57.188  1.00  0.00    -0.356 OA
HETATM   18  C   UNL     1      31.779  43.268  57.086  1.00  0.00     0.210 C 
ENDBRANCH  13  17
BRANCH  15  19
HETATM   19  O   UNL     1      27.460  47.347  55.930  1.00  0.00    -0.356 OA
HETATM   20  C   UNL     1      26.516  47.617  54.900  1.00  0.00     0.210 C 
ENDBRANCH  15  19
ENDBRANCH   8  11
ENDBRANCH   1   7
BRANCH   4  21
HETATM   21  C   UNL     1      23.729  44.227  49.074  1.00  0.00     0.121 A 
HETATM   22  N   UNL     1      24.295  43.795  47.901  1.00  0.00    -0.262 N 
HETATM   23  H   UNL     1      25.267  43.581  47.727  1.00  0.00     0.191 HD
HETATM   24  N   UNL     1      23.428  43.632  46.890  1.00  0.00    -0.173 NA
HETATM   25  C   UNL     1      22.231  43.920  47.425  1.00  0.00     0.090 A 
HETATM   26  C   UNL     1      22.382  44.300  48.788  1.00  0.00     0.084 A 
BRANCH  25  27
HETATM   27  C   UNL     1      20.995  43.829  46.639  1.00  0.00    -0.005 A 
HETATM   28  C   UNL     1      19.825  44.491  47.046  1.00  0.00     0.015 A 
HETATM   29  C   UNL     1      18.651  44.397  46.290  1.00  0.00     0.024 A 
HETATM   30  C   UNL     1      18.636  43.639  45.122  1.00  0.00     0.034 A 
HETATM   31 CL   UNL     1      17.192  43.525  44.195  1.00  0.00    -0.084 Cl
HETATM   32  C   UNL     1      19.784  42.972  44.703  1.00  0.00     0.024 A 
HETATM   33  C   UNL     1      20.956  43.066  45.460  1.00  0.00     0.015 A 
ENDBRANCH  25  27
ENDBRANCH   4  21
TORSDOF 6
ENDMDL
MODEL 10
REMARK VINA RESULT:      -8.2      6.238     12.875
REMARK  6 active torsions:
REMARK  status: ('A' for Active; 'I' for Inactive)
REMARK    1  A    between atoms: O_2  and  C_3 
REMARK    2  A    between atoms: C_5  and  O_6 
REMARK    3  A    between atoms: C_9  and  C_10 
REMARK       I    between atoms: C_10  and  N_11 
REMARK    4  A    between atoms: N_11  and  C_12 
REMARK    5  A    between atoms: N_15  and  C_16 
REMARK    6  A    between atoms: C_20  and  C_21 
ROOT
HETATM    1  C   UNL     1      20.405  50.579  47.693  1.00  0.00     0.087 C 
HETATM    2  C   UNL     1      19.035  50.095  47.182  1.00  0.00     0.045 C 
HETATM    3  C   UNL     1      18.112  49.713  48.336  1.00  0.00     0.126 C 
HETATM    4  N   UNL     1      17.969  50.857  49.249  1.00  0.00    -0.366 N 
HETATM    5  C   UNL     1      19.245  51.286  49.834  1.00  0.00     0.126 C 
HETATM    6  C   UNL     1      20.211  51.705  48.723  1.00  0.00     0.045 C 
ENDROOT
BRANCH   1   7
HETATM    7  N   UNL     1      21.223  49.503  48.265  1.00  0.00    -0.352 N 
HETATM    8  C   UNL     1      22.570  49.371  47.985  1.00  0.00     0.252 C 
HETATM    9  O   UNL     1      23.174  50.097  47.205  1.00  0.00    -0.268 OA
HETATM   10  H   UNL     1      20.915  49.121  49.149  1.00  0.00     0.163 HD
BRANCH   8  11
HETATM   11  C   UNL     1      23.292  48.286  48.711  1.00  0.00     0.037 A 
HETATM   12  C   UNL     1      24.356  48.555  49.585  1.00  0.00     0.054 A 
HETATM   13  C   UNL     1      24.996  47.506  50.245  1.00  0.00     0.071 A 
HETATM   14  C   UNL     1      24.559  46.190  50.046  1.00  0.00     0.073 A 
HETATM   15  C   UNL     1      23.482  45.916  49.205  1.00  0.00     0.071 A 
HETATM   16  C   UNL     1      22.856  46.967  48.534  1.00  0.00     0.054 A 
BRANCH  13  17
HETATM   17  O   UNL     1      26.051  47.625  51.108  1.00  0.00    -0.356 OA
HETATM   18  C   UNL     1      25.970  46.917  52.340  1.00  0.00     0.210 C 
ENDBRANCH  13  17
BRANCH  15  19
HETATM   19  O   UNL     1      22.956  44.679  48.951  1.00  0.00    -0.356 OA
HETATM   20  C   UNL     1      23.108  43.698  49.970  1.00  0.00     0.210 C 
ENDBRANCH  15  19
ENDBRANCH   8  11
ENDBRANCH   1   7
BRANCH   4  21
HETATM   21  C   UNL     1      16.945  51.759  49.121  1.00  0.00     0.121 A 
HETATM   22  N   UNL     1      16.106  51.802  48.037  1.00  0.00    -0.262 N 
HETATM   23  H   UNL     1      16.114  51.201  47.225  1.00  0.00     0.191 HD
HETATM   24  N   UNL     1      15.163  52.756  48.098  1.00  0.00    -0.173 NA
HETATM   25  C   UNL     1      15.353  53.339  49.292  1.00  0.00     0.090 A 
HETATM   26  C   UNL     1      16.462  52.743  49.957  1.00  0.00     0.084 A 
BRANCH  25  27
HETATM   27  C   UNL     1      14.491  54.429  49.762  1.00  0.00    -0.005 A 
HETATM   28  C   UNL     1      15.009  55.712  50.004  1.00  0.00     0.015 A 
HETATM   29  C   UNL     1      14.179  56.745  50.454  1.00  0.00     0.024 A 
HETATM   30  C   UNL     1      12.824  56.504  50.666  1.00  0.00     0.034 A 
HETATM   31 CL   UNL     1      11.806  57.775  51.218  1.00  0.00    -0.084 Cl
HETATM   32  C   UNL     1      12.291  55.239  50.436  1.00  0.00     0.024 A 
HETATM   33  C   UNL     1      13.123  54.207  49.988  1.00  0.00     0.015 A 
ENDBRANCH  25  27
ENDBRANCH   4  21
TORSDOF 6
ENDMDL
