MODEL 1
REMARK VINA RESULT:     -10.1      0.000      0.000
REMARK  8 active torsions:
REMARK  status: ('A' for Active; 'I' for Inactive)
REMARK    1  A    between atoms: C_7  and  C_8 
REMARK       I    between atoms: C_8  and  N_9 
REMARK    2  A    between atoms: N_9  and  N_10 
REMARK    3  A    between atoms: N_10  and  C_11 
REMARK    4  A    between atoms: C_11  and  N_12 
REMARK    5  A    between atoms: N_12  and  C_13 
REMARK    6  A    between atoms: N_15  and  C_16 
REMARK    7  A    between atoms: C_16  and  C_17 
REMARK    8  A    between atoms: C_29  and  C_30 
ROOT
HETATM    1  C   UNL     1      25.080  47.605  49.776  1.00  0.00     0.290 C 
HETATM    2  N   UNL     1      25.125  46.225  49.756  1.00  0.00    -0.262 N 
HETATM    3  O   UNL     1      25.990  48.329  50.170  1.00  0.00    -0.264 OA
HETATM    4  H   UNL     1      24.350  45.720  49.323  1.00  0.00     0.190 HD
ENDROOT
BRANCH   2   5
HETATM    5  N   UNL     1      26.289  45.525  50.068  1.00  0.00    -0.273 N 
HETATM    6  H   UNL     1      27.160  45.810  49.607  1.00  0.00     0.189 HD
BRANCH   5   7
HETATM    7  C   UNL     1      26.364  44.724  51.175  1.00  0.00     0.192 C 
HETATM    8  S   UNL     1      25.369  44.862  52.522  1.00  0.00    -0.039 SA
BRANCH   7   9
HETATM    9  N   UNL     1      27.321  43.751  51.190  1.00  0.00    -0.315 N 
HETATM   10  H   UNL     1      27.496  43.302  50.302  1.00  0.00     0.170 HD
BRANCH   9  11
HETATM   11  C   UNL     1      28.009  43.259  52.278  1.00  0.00     0.151 A 
HETATM   12  N   UNL     1      29.143  43.779  52.757  1.00  0.00    -0.154 NA
HETATM   13  N   UNL     1      29.440  43.007  53.824  1.00  0.00    -0.275 N 
HETATM   14  C   UNL     1      28.534  42.006  54.029  1.00  0.00     0.116 A 
HETATM   15  C   UNL     1      27.594  42.140  53.037  1.00  0.00     0.071 A 
BRANCH  13  16
HETATM   16  C   UNL     1      30.668  43.234  54.574  1.00  0.00     0.192 C 
BRANCH  16  17
HETATM   17  C   UNL     1      30.440  44.131  55.757  1.00  0.00     0.000 A 
HETATM   18  C   UNL     1      31.205  43.980  56.916  1.00  0.00     0.124 A 
HETATM   19  F   UNL     1      32.155  43.034  56.967  1.00  0.00    -0.205 F 
HETATM   20  C   UNL     1      31.011  44.798  58.026  1.00  0.00     0.043 A 
HETATM   21  C   UNL     1      30.032  45.789  57.986  1.00  0.00     0.003 A 
HETATM   22  C   UNL     1      29.251  45.949  56.841  1.00  0.00     0.001 A 
HETATM   23  C   UNL     1      29.449  45.121  55.733  1.00  0.00     0.012 A 
ENDBRANCH  16  17
ENDBRANCH  13  16
ENDBRANCH   9  11
ENDBRANCH   7   9
ENDBRANCH   5   7
ENDBRANCH   2   5
BRANCH   1  24
HETATM   24  C   UNL     1      23.797  48.120  49.268  1.00  0.00     0.150 A 
HETATM   25  N   UNL     1      23.417  49.402  49.480  1.00  0.00    -0.165 NA
HETATM   26  N   UNL     1      22.218  49.481  48.883  1.00  0.00    -0.240 N 
HETATM   27  C   UNL     1      21.823  48.325  48.269  1.00  0.00     0.123 A 
HETATM   28  C   UNL     1      21.459  50.716  48.862  1.00  0.00     0.221 C 
HETATM   29  N   UNL     1      20.668  48.258  47.567  1.00  0.00    -0.371 N 
HETATM   30  C   UNL     1      22.817  47.413  48.516  1.00  0.00     0.089 A 
HETATM   31  C   UNL     1      19.709  49.361  47.606  1.00  0.00     0.081 C 
HETATM   32  H   UNL     1      20.293  47.348  47.302  1.00  0.00     0.161 HD
HETATM   33  C   UNL     1      18.835  49.312  46.357  1.00  0.00     0.032 C 
HETATM   34  C   UNL     1      20.467  50.697  47.683  1.00  0.00     0.061 C 
BRANCH  28  35
HETATM   35  C   UNL     1      20.767  50.923  50.191  1.00  0.00     0.409 C 
HETATM   36  F   UNL     1      19.746  51.804  50.118  1.00  0.00    -0.169 F 
HETATM   37  F   UNL     1      20.229  49.748  50.615  1.00  0.00    -0.169 F 
HETATM   38  F   UNL     1      21.601  51.339  51.168  1.00  0.00    -0.169 F 
ENDBRANCH  28  35
ENDBRANCH   1  24
TORSDOF 8
ENDMDL
MODEL 2
REMARK VINA RESULT:      -9.8      2.614      3.873
REMARK  8 active torsions:
REMARK  status: ('A' for Active; 'I' for Inactive)
REMARK    1  A    between atoms: C_7  and  C_8 
REMARK       I    between atoms: C_8  and  N_9 
REMARK    2  A    between atoms: N_9  and  N_10 
REMARK    3  A    between atoms: N_10  and  C_11 
REMARK    4  A    between atoms: C_11  and  N_12 
REMARK    5  A    between atoms: N_12  and  C_13 
REMARK    6  A    between atoms: N_15  and  C_16 
REMARK    7  A    between atoms: C_16  and  C_17 
REMARK    8  A    between atoms: C_29  and  C_30 
ROOT
HETATM    1  C   UNL     1      23.793  49.612  48.435  1.00  0.00     0.290 C 
HETATM    2  N   UNL     1      24.260  48.828  49.472  1.00  0.00    -0.262 N 
HETATM    3  O   UNL     1      24.453  49.938  47.453  1.00  0.00    -0.264 OA
HETATM    4  H   UNL     1      23.602  48.538  50.197  1.00  0.00     0.190 HD
ENDROOT
BRANCH   2   5
HETATM    5  N   UNL     1      25.512  48.220  49.423  1.00  0.00    -0.273 N 
HETATM    6  H   UNL     1      26.303  48.773  49.074  1.00  0.00     0.189 HD
BRANCH   5   7
HETATM    7  C   UNL     1      25.773  47.066  50.112  1.00  0.00     0.192 C 
HETATM    8  S   UNL     1      26.908  45.917  49.652  1.00  0.00    -0.039 SA
BRANCH   7   9
HETATM    9  N   UNL     1      25.053  46.828  51.247  1.00  0.00    -0.315 N 
HETATM   10  H   UNL     1      24.065  47.034  51.184  1.00  0.00     0.170 HD
BRANCH   9  11
HETATM   11  C   UNL     1      25.523  46.423  52.477  1.00  0.00     0.151 A 
HETATM   12  N   UNL     1      25.792  45.156  52.807  1.00  0.00    -0.154 NA
HETATM   13  N   UNL     1      26.245  45.231  54.076  1.00  0.00    -0.275 N 
HETATM   14  C   UNL     1      26.262  46.506  54.565  1.00  0.00     0.116 A 
HETATM   15  C   UNL     1      25.792  47.304  53.550  1.00  0.00     0.071 A 
BRANCH  13  16
HETATM   16  C   UNL     1      26.581  44.017  54.808  1.00  0.00     0.192 C 
BRANCH  16  17
HETATM   17  C   UNL     1      27.872  43.416  54.328  1.00  0.00     0.000 A 
HETATM   18  C   UNL     1      29.095  43.967  54.719  1.00  0.00     0.124 A 
HETATM   19  F   UNL     1      29.114  45.031  55.535  1.00  0.00    -0.205 F 
HETATM   20  C   UNL     1      30.304  43.429  54.287  1.00  0.00     0.043 A 
HETATM   21  C   UNL     1      30.300  42.319  53.444  1.00  0.00     0.003 A 
HETATM   22  C   UNL     1      29.089  41.762  53.035  1.00  0.00     0.001 A 
HETATM   23  C   UNL     1      27.879  42.309  53.469  1.00  0.00     0.012 A 
ENDBRANCH  16  17
ENDBRANCH  13  16
ENDBRANCH   9  11
ENDBRANCH   7   9
ENDBRANCH   5   7
ENDBRANCH   2   5
BRANCH   1  24
HETATM   24  C   UNL     1      22.394  50.023  48.644  1.00  0.00     0.150 A 
HETATM   25  N   UNL     1      21.477  49.171  49.159  1.00  0.00    -0.165 NA
HETATM   26  N   UNL     1      20.349  49.897  49.188  1.00  0.00    -0.240 N 
HETATM   27  C   UNL     1      20.503  51.183  48.752  1.00  0.00     0.123 A 
HETATM   28  C   UNL     1      19.106  49.352  49.699  1.00  0.00     0.221 C 
HETATM   29  N   UNL     1      19.476  52.065  48.780  1.00  0.00    -0.371 N 
HETATM   30  C   UNL     1      21.816  51.294  48.372  1.00  0.00     0.089 A 
HETATM   31  C   UNL     1      18.121  51.618  49.093  1.00  0.00     0.081 C 
HETATM   32  H   UNL     1      19.551  52.940  48.261  1.00  0.00     0.161 HD
HETATM   33  C   UNL     1      17.309  52.801  49.614  1.00  0.00     0.032 C 
HETATM   34  C   UNL     1      18.180  50.498  50.146  1.00  0.00     0.061 C 
BRANCH  28  35
HETATM   35  C   UNL     1      18.461  48.466  48.655  1.00  0.00     0.409 C 
HETATM   36  F   UNL     1      18.823  47.171  48.773  1.00  0.00    -0.169 F 
HETATM   37  F   UNL     1      17.109  48.500  48.799  1.00  0.00    -0.169 F 
HETATM   38  F   UNL     1      18.723  48.855  47.389  1.00  0.00    -0.169 F 
ENDBRANCH  28  35
ENDBRANCH   1  24
TORSDOF 8
ENDMDL
MODEL 3
REMARK VINA RESULT:      -9.8      2.740     11.057
REMARK  8 active torsions:
REMARK  status: ('A' for Active; 'I' for Inactive)
REMARK    1  A    between atoms: C_7  and  C_8 
REMARK       I    between atoms: C_8  and  N_9 
REMARK    2  A    between atoms: N_9  and  N_10 
REMARK    3  A    between atoms: N_10  and  C_11 
REMARK    4  A    between atoms: C_11  and  N_12 
REMARK    5  A    between atoms: N_12  and  C_13 
REMARK    6  A    between atoms: N_15  and  C_16 
REMARK    7  A    between atoms: C_16  and  C_17 
REMARK    8  A    between atoms: C_29  and  C_30 
ROOT
HETATM    1  C   UNL     1      25.171  45.481  51.080  1.00  0.00     0.290 C 
HETATM    2  N   UNL     1      24.270  44.521  50.665  1.00  0.00    -0.262 N 
HETATM    3  O   UNL     1      25.083  46.680  50.827  1.00  0.00    -0.264 OA
HETATM    4  H   UNL     1      24.385  43.566  51.007  1.00  0.00     0.190 HD
ENDROOT
BRANCH   2   5
HETATM    5  N   UNL     1      23.084  44.861  50.017  1.00  0.00    -0.273 N 
HETATM    6  H   UNL     1      22.520  45.621  50.412  1.00  0.00     0.189 HD
BRANCH   5   7
HETATM    7  C   UNL     1      22.830  44.455  48.734  1.00  0.00     0.192 C 
HETATM    8  S   UNL     1      22.771  42.852  48.236  1.00  0.00    -0.039 SA
BRANCH   7   9
HETATM    9  N   UNL     1      22.621  45.421  47.793  1.00  0.00    -0.315 N 
HETATM   10  H   UNL     1      23.010  45.228  46.880  1.00  0.00     0.170 HD
BRANCH   9  11
HETATM   11  C   UNL     1      22.021  46.650  47.961  1.00  0.00     0.151 A 
HETATM   12  N   UNL     1      22.367  47.541  48.894  1.00  0.00    -0.154 NA
HETATM   13  N   UNL     1      21.545  48.590  48.675  1.00  0.00    -0.275 N 
HETATM   14  C   UNL     1      20.681  48.385  47.637  1.00  0.00     0.116 A 
HETATM   15  C   UNL     1      20.963  47.130  47.156  1.00  0.00     0.071 A 
BRANCH  13  16
HETATM   16  C   UNL     1      21.583  49.749  49.556  1.00  0.00     0.192 C 
BRANCH  16  17
HETATM   17  C   UNL     1      20.359  50.606  49.402  1.00  0.00     0.000 A 
HETATM   18  C   UNL     1      19.199  50.316  50.125  1.00  0.00     0.124 A 
HETATM   19  F   UNL     1      19.184  49.272  50.967  1.00  0.00    -0.205 F 
HETATM   20  C   UNL     1      18.052  51.094  49.998  1.00  0.00     0.043 A 
HETATM   21  C   UNL     1      18.054  52.186  49.131  1.00  0.00     0.003 A 
HETATM   22  C   UNL     1      19.199  52.485  48.394  1.00  0.00     0.001 A 
HETATM   23  C   UNL     1      20.346  51.697  48.523  1.00  0.00     0.012 A 
ENDBRANCH  16  17
ENDBRANCH  13  16
ENDBRANCH   9  11
ENDBRANCH   7   9
ENDBRANCH   5   7
ENDBRANCH   2   5
BRANCH   1  24
HETATM   24  C   UNL     1      26.270  44.899  51.869  1.00  0.00     0.150 A 
HETATM   25  N   UNL     1      27.011  43.870  51.396  1.00  0.00    -0.165 NA
HETATM   26  N   UNL     1      27.884  43.626  52.385  1.00  0.00    -0.240 N 
HETATM   27  C   UNL     1      27.766  44.469  53.454  1.00  0.00     0.123 A 
HETATM   28  C   UNL     1      28.892  42.588  52.271  1.00  0.00     0.221 C 
HETATM   29  N   UNL     1      28.615  44.398  54.506  1.00  0.00    -0.371 N 
HETATM   30  C   UNL     1      26.713  45.297  53.162  1.00  0.00     0.089 A 
HETATM   31  C   UNL     1      29.563  43.291  54.623  1.00  0.00     0.081 C 
HETATM   32  H   UNL     1      28.383  44.882  55.373  1.00  0.00     0.161 HD
HETATM   33  C   UNL     1      30.730  43.720  55.508  1.00  0.00     0.032 C 
HETATM   34  C   UNL     1      30.063  42.894  53.224  1.00  0.00     0.061 C 
BRANCH  28  35
HETATM   35  C   UNL     1      28.273  41.234  52.538  1.00  0.00     0.409 C 
HETATM   36  F   UNL     1      27.412  41.248  53.578  1.00  0.00    -0.169 F 
HETATM   37  F   UNL     1      27.555  40.838  51.453  1.00  0.00    -0.169 F 
HETATM   38  F   UNL     1      29.185  40.267  52.770  1.00  0.00    -0.169 F 
ENDBRANCH  28  35
ENDBRANCH   1  24
TORSDOF 8
ENDMDL
MODEL 4
REMARK VINA RESULT:      -9.8      2.107      3.031
REMARK  8 active torsions:
REMARK  status: ('A' for Active; 'I' for Inactive)
REMARK    1  A    between atoms: C_7  and  C_8 
REMARK       I    between atoms: C_8  and  N_9 
REMARK    2  A    between atoms: N_9  and  N_10 
REMARK    3  A    between atoms: N_10  and  C_11 
REMARK    4  A    between atoms: C_11  and  N_12 
REMARK    5  A    between atoms: N_12  and  C_13 
REMARK    6  A    between atoms: N_15  and  C_16 
REMARK    7  A    between atoms: C_16  and  C_17 
REMARK    8  A    between atoms: C_29  and  C_30 
ROOT
HETATM    1  C   UNL     1      22.990  47.119  49.033  1.00  0.00     0.290 C 
HETATM    2  N   UNL     1      23.701  47.824  49.984  1.00  0.00    -0.262 N 
HETATM    3  O   UNL     1      23.354  46.058  48.531  1.00  0.00    -0.264 OA
HETATM    4  H   UNL     1      23.267  48.647  50.403  1.00  0.00     0.190 HD
ENDROOT
BRANCH   2   5
HETATM    5  N   UNL     1      24.858  47.309  50.564  1.00  0.00    -0.273 N 
HETATM    6  H   UNL     1      24.757  46.712  51.393  1.00  0.00     0.189 HD
BRANCH   5   7
HETATM    7  C   UNL     1      26.050  47.301  49.891  1.00  0.00     0.192 C 
HETATM    8  S   UNL     1      26.814  48.670  49.289  1.00  0.00    -0.039 SA
BRANCH   7   9
HETATM    9  N   UNL     1      26.655  46.095  49.687  1.00  0.00    -0.315 N 
HETATM   10  H   UNL     1      27.026  45.947  48.759  1.00  0.00     0.170 HD
BRANCH   9  11
HETATM   11  C   UNL     1      26.747  45.036  50.564  1.00  0.00     0.151 A 
HETATM   12  N   UNL     1      26.614  45.135  51.890  1.00  0.00    -0.154 NA
HETATM   13  N   UNL     1      26.749  43.868  52.336  1.00  0.00    -0.275 N 
HETATM   14  C   UNL     1      26.976  42.969  51.333  1.00  0.00     0.116 A 
HETATM   15  C   UNL     1      26.985  43.699  50.169  1.00  0.00     0.071 A 
BRANCH  13  16
HETATM   16  C   UNL     1      26.729  43.586  53.765  1.00  0.00     0.192 C 
BRANCH  16  17
HETATM   17  C   UNL     1      28.063  43.853  54.403  1.00  0.00     0.000 A 
HETATM   18  C   UNL     1      28.289  45.046  55.095  1.00  0.00     0.124 A 
HETATM   19  F   UNL     1      27.305  45.952  55.195  1.00  0.00    -0.205 F 
HETATM   20  C   UNL     1      29.516  45.316  55.694  1.00  0.00     0.043 A 
HETATM   21  C   UNL     1      30.546  44.381  55.603  1.00  0.00     0.003 A 
HETATM   22  C   UNL     1      30.342  43.189  54.908  1.00  0.00     0.001 A 
HETATM   23  C   UNL     1      29.109  42.926  54.306  1.00  0.00     0.012 A 
ENDBRANCH  16  17
ENDBRANCH  13  16
ENDBRANCH   9  11
ENDBRANCH   7   9
ENDBRANCH   5   7
ENDBRANCH   2   5
BRANCH   1  24
HETATM   24  C   UNL     1      21.730  47.793  48.677  1.00  0.00     0.150 A 
HETATM   25  N   UNL     1      21.720  49.040  48.152  1.00  0.00    -0.165 NA
HETATM   26  N   UNL     1      20.416  49.301  47.974  1.00  0.00    -0.240 N 
HETATM   27  C   UNL     1      19.589  48.270  48.325  1.00  0.00     0.123 A 
HETATM   28  C   UNL     1      19.961  50.554  47.403  1.00  0.00     0.221 C 
HETATM   29  N   UNL     1      18.250  48.348  48.145  1.00  0.00    -0.371 N 
HETATM   30  C   UNL     1      20.408  47.281  48.804  1.00  0.00     0.089 A 
HETATM   31  C   UNL     1      17.624  49.610  47.753  1.00  0.00     0.081 C 
HETATM   32  H   UNL     1      17.641  47.669  48.601  1.00  0.00     0.161 HD
HETATM   33  C   UNL     1      16.286  49.320  47.080  1.00  0.00     0.032 C 
HETATM   34  C   UNL     1      18.558  50.370  46.795  1.00  0.00     0.061 C 
BRANCH  28  35
HETATM   35  C   UNL     1      19.995  51.644  48.452  1.00  0.00     0.409 C 
HETATM   36  F   UNL     1      19.549  51.225  49.656  1.00  0.00    -0.169 F 
HETATM   37  F   UNL     1      21.277  52.057  48.641  1.00  0.00    -0.169 F 
HETATM   38  F   UNL     1      19.284  52.739  48.107  1.00  0.00    -0.169 F 
ENDBRANCH  28  35
ENDBRANCH   1  24
TORSDOF 8
ENDMDL
MODEL 5
REMARK VINA RESULT:      -9.7      2.572     11.366
REMARK  8 active torsions:
REMARK  status: ('A' for Active; 'I' for Inactive)
REMARK    1  A    between atoms: C_7  and  C_8 
REMARK       I    between atoms: C_8  and  N_9 
REMARK    2  A    between atoms: N_9  and  N_10 
REMARK    3  A    between atoms: N_10  and  C_11 
REMARK    4  A    between atoms: C_11  and  N_12 
REMARK    5  A    between atoms: N_12  and  C_13 
REMARK    6  A    between atoms: N_15  and  C_16 
REMARK    7  A    between atoms: C_16  and  C_17 
REMARK    8  A    between atoms: C_29  and  C_30 
ROOT
HETATM    1  C   UNL     1      25.447  46.099  51.781  1.00  0.00     0.290 C 
HETATM    2  N   UNL     1      24.658  45.250  51.030  1.00  0.00    -0.262 N 
HETATM    3  O   UNL     1      25.281  47.313  51.868  1.00  0.00    -0.264 OA
HETATM    4  H   UNL     1      24.825  44.246  51.097  1.00  0.00     0.190 HD
ENDROOT
BRANCH   2   5
HETATM    5  N   UNL     1      23.500  45.695  50.397  1.00  0.00    -0.273 N 
HETATM    6  H   UNL     1      22.694  45.940  50.983  1.00  0.00     0.189 HD
BRANCH   5   7
HETATM    7  C   UNL     1      23.515  46.117  49.095  1.00  0.00     0.192 C 
HETATM    8  S   UNL     1      22.843  45.270  47.810  1.00  0.00    -0.039 SA
BRANCH   7   9
HETATM    9  N   UNL     1      24.128  47.305  48.820  1.00  0.00    -0.315 N 
HETATM   10  H   UNL     1      25.100  47.240  48.554  1.00  0.00     0.170 HD
BRANCH   9  11
HETATM   11  C   UNL     1      23.605  48.574  48.942  1.00  0.00     0.151 A 
HETATM   12  N   UNL     1      22.447  48.863  49.544  1.00  0.00    -0.154 NA
HETATM   13  N   UNL     1      22.349  50.207  49.452  1.00  0.00    -0.275 N 
HETATM   14  C   UNL     1      23.404  50.777  48.799  1.00  0.00     0.116 A 
HETATM   15  C   UNL     1      24.236  49.740  48.450  1.00  0.00     0.071 A 
BRANCH  13  16
HETATM   16  C   UNL     1      21.163  50.891  49.949  1.00  0.00     0.192 C 
BRANCH  16  17
HETATM   17  C   UNL     1      20.135  51.078  48.869  1.00  0.00     0.000 A 
HETATM   18  C   UNL     1      18.981  51.825  49.115  1.00  0.00     0.124 A 
HETATM   19  F   UNL     1      18.795  52.386  50.319  1.00  0.00    -0.205 F 
HETATM   20  C   UNL     1      18.013  52.011  48.131  1.00  0.00     0.043 A 
HETATM   21  C   UNL     1      18.194  51.439  46.872  1.00  0.00     0.003 A 
HETATM   22  C   UNL     1      19.336  50.681  46.611  1.00  0.00     0.001 A 
HETATM   23  C   UNL     1      20.301  50.496  47.605  1.00  0.00     0.012 A 
ENDBRANCH  16  17
ENDBRANCH  13  16
ENDBRANCH   9  11
ENDBRANCH   7   9
ENDBRANCH   5   7
ENDBRANCH   2   5
BRANCH   1  24
HETATM   24  C   UNL     1      26.529  45.377  52.472  1.00  0.00     0.150 A 
HETATM   25  N   UNL     1      27.177  44.345  51.883  1.00  0.00    -0.165 NA
HETATM   26  N   UNL     1      28.066  43.958  52.811  1.00  0.00    -0.240 N 
HETATM   27  C   UNL     1      28.046  44.711  53.951  1.00  0.00     0.123 A 
HETATM   28  C   UNL     1      28.991  42.868  52.569  1.00  0.00     0.221 C 
HETATM   29  N   UNL     1      28.925  44.492  54.957  1.00  0.00    -0.371 N 
HETATM   30  C   UNL     1      27.045  45.631  53.773  1.00  0.00     0.089 A 
HETATM   31  C   UNL     1      29.795  43.317  54.941  1.00  0.00     0.081 C 
HETATM   32  H   UNL     1      28.760  44.914  55.870  1.00  0.00     0.161 HD
HETATM   33  C   UNL     1      31.020  43.587  55.809  1.00  0.00     0.032 C 
HETATM   34  C   UNL     1      30.215  43.009  53.494  1.00  0.00     0.061 C 
BRANCH  28  35
HETATM   35  C   UNL     1      28.287  41.540  52.747  1.00  0.00     0.409 C 
HETATM   36  F   UNL     1      29.142  40.522  52.986  1.00  0.00    -0.169 F 
HETATM   37  F   UNL     1      27.458  41.604  53.824  1.00  0.00    -0.169 F 
HETATM   38  F   UNL     1      27.520  41.197  51.691  1.00  0.00    -0.169 F 
ENDBRANCH  28  35
ENDBRANCH   1  24
TORSDOF 8
ENDMDL
MODEL 6
REMARK VINA RESULT:      -9.7      5.231      8.561
REMARK  8 active torsions:
REMARK  status: ('A' for Active; 'I' for Inactive)
REMARK    1  A    between atoms: C_7  and  C_8 
REMARK       I    between atoms: C_8  and  N_9 
REMARK    2  A    between atoms: N_9  and  N_10 
REMARK    3  A    between atoms: N_10  and  C_11 
REMARK    4  A    between atoms: C_11  and  N_12 
REMARK    5  A    between atoms: N_12  and  C_13 
REMARK    6  A    between atoms: N_15  and  C_16 
REMARK    7  A    between atoms: C_16  and  C_17 
REMARK    8  A    between atoms: C_29  and  C_30 
ROOT
HETATM    1  C   UNL     1      26.218  43.714  49.387  1.00  0.00     0.290 C 
HETATM    2  N   UNL     1      26.962  44.769  49.878  1.00  0.00    -0.262 N 
HETATM    3  O   UNL     1      25.093  43.816  48.906  1.00  0.00    -0.264 OA
HETATM    4  H   UNL     1      27.923  44.590  50.172  1.00  0.00     0.190 HD
ENDROOT
BRANCH   2   5
HETATM    5  N   UNL     1      26.538  46.089  49.745  1.00  0.00    -0.273 N 
HETATM    6  H   UNL     1      26.989  46.670  49.029  1.00  0.00     0.189 HD
BRANCH   5   7
HETATM    7  C   UNL     1      25.357  46.517  50.289  1.00  0.00     0.192 C 
HETATM    8  S   UNL     1      24.453  47.808  49.708  1.00  0.00    -0.039 SA
BRANCH   7   9
HETATM    9  N   UNL     1      24.886  45.855  51.385  1.00  0.00    -0.315 N 
HETATM   10  H   UNL     1      23.941  45.507  51.309  1.00  0.00     0.170 HD
BRANCH   9  11
HETATM   11  C   UNL     1      25.514  45.678  52.599  1.00  0.00     0.151 A 
HETATM   12  N   UNL     1      26.594  46.355  53.001  1.00  0.00    -0.154 NA
HETATM   13  N   UNL     1      26.842  45.883  54.241  1.00  0.00    -0.275 N 
HETATM   14  C   UNL     1      25.957  44.919  54.634  1.00  0.00     0.116 A 
HETATM   15  C   UNL     1      25.084  44.760  53.585  1.00  0.00     0.071 A 
BRANCH  13  16
HETATM   16  C   UNL     1      28.007  46.345  54.983  1.00  0.00     0.192 C 
BRANCH  16  17
HETATM   17  C   UNL     1      29.014  45.248  55.179  1.00  0.00     0.000 A 
HETATM   18  C   UNL     1      29.909  45.294  56.251  1.00  0.00     0.124 A 
HETATM   19  F   UNL     1      29.860  46.319  57.114  1.00  0.00    -0.205 F 
HETATM   20  C   UNL     1      30.852  44.290  56.452  1.00  0.00     0.043 A 
HETATM   21  C   UNL     1      30.912  43.215  55.566  1.00  0.00     0.003 A 
HETATM   22  C   UNL     1      30.033  43.157  54.484  1.00  0.00     0.001 A 
HETATM   23  C   UNL     1      29.091  44.171  54.287  1.00  0.00     0.012 A 
ENDBRANCH  16  17
ENDBRANCH  13  16
ENDBRANCH   9  11
ENDBRANCH   7   9
ENDBRANCH   5   7
ENDBRANCH   2   5
BRANCH   1  24
HETATM   24  C   UNL     1      26.933  42.432  49.511  1.00  0.00     0.150 A 
HETATM   25  N   UNL     1      27.295  41.717  48.421  1.00  0.00    -0.165 NA
HETATM   26  N   UNL     1      27.904  40.638  48.936  1.00  0.00    -0.240 N 
HETATM   27  C   UNL     1      27.983  40.641  50.301  1.00  0.00     0.123 A 
HETATM   28  C   UNL     1      28.468  39.605  48.088  1.00  0.00     0.221 C 
HETATM   29  N   UNL     1      28.625  39.656  50.972  1.00  0.00    -0.371 N 
HETATM   30  C   UNL     1      27.345  41.783  50.709  1.00  0.00     0.089 A 
HETATM   31  C   UNL     1      29.084  38.457  50.274  1.00  0.00     0.081 C 
HETATM   32  H   UNL     1      28.491  39.565  51.978  1.00  0.00     0.161 HD
HETATM   33  C   UNL     1      30.221  37.818  51.066  1.00  0.00     0.032 C 
HETATM   34  C   UNL     1      29.557  38.836  48.860  1.00  0.00     0.061 C 
BRANCH  28  35
HETATM   35  C   UNL     1      27.372  38.695  47.580  1.00  0.00     0.409 C 
HETATM   36  F   UNL     1      26.309  38.642  48.411  1.00  0.00    -0.169 F 
HETATM   37  F   UNL     1      26.905  39.162  46.391  1.00  0.00    -0.169 F 
HETATM   38  F   UNL     1      27.788  37.430  47.360  1.00  0.00    -0.169 F 
ENDBRANCH  28  35
ENDBRANCH   1  24
TORSDOF 8
ENDMDL
MODEL 7
REMARK VINA RESULT:      -9.6      2.895      4.187
REMARK  8 active torsions:
REMARK  status: ('A' for Active; 'I' for Inactive)
REMARK    1  A    between atoms: C_7  and  C_8 
REMARK       I    between atoms: C_8  and  N_9 
REMARK    2  A    between atoms: N_9  and  N_10 
REMARK    3  A    between atoms: N_10  and  C_11 
REMARK    4  A    between atoms: C_11  and  N_12 
REMARK    5  A    between atoms: N_12  and  C_13 
REMARK    6  A    between atoms: N_15  and  C_16 
REMARK    7  A    between atoms: C_16  and  C_17 
REMARK    8  A    between atoms: C_29  and  C_30 
ROOT
HETATM    1  C   UNL     1      20.009  45.622  48.550  1.00  0.00     0.290 C 
HETATM    2  N   UNL     1      21.229  45.668  49.195  1.00  0.00    -0.262 N 
HETATM    3  O   UNL     1      19.479  44.597  48.131  1.00  0.00    -0.264 OA
HETATM    4  H   UNL     1      21.539  46.559  49.585  1.00  0.00     0.190 HD
ENDROOT
BRANCH   2   5
HETATM    5  N   UNL     1      21.915  44.508  49.549  1.00  0.00    -0.273 N 
HETATM    6  H   UNL     1      21.401  43.620  49.531  1.00  0.00     0.189 HD
BRANCH   5   7
HETATM    7  C   UNL     1      23.283  44.473  49.592  1.00  0.00     0.192 C 
HETATM    8  S   UNL     1      24.219  43.169  49.099  1.00  0.00    -0.039 SA
BRANCH   7   9
HETATM    9  N   UNL     1      23.931  45.571  50.079  1.00  0.00    -0.315 N 
HETATM   10  H   UNL     1      23.931  46.379  49.472  1.00  0.00     0.170 HD
BRANCH   9  11
HETATM   11  C   UNL     1      24.646  45.679  51.252  1.00  0.00     0.151 A 
HETATM   12  N   UNL     1      24.713  44.729  52.190  1.00  0.00    -0.154 NA
HETATM   13  N   UNL     1      25.530  45.247  53.131  1.00  0.00    -0.275 N 
HETATM   14  C   UNL     1      25.974  46.502  52.824  1.00  0.00     0.116 A 
HETATM   15  C   UNL     1      25.412  46.813  51.610  1.00  0.00     0.071 A 
BRANCH  13  16
HETATM   16  C   UNL     1      25.792  44.512  54.361  1.00  0.00     0.192 C 
BRANCH  16  17
HETATM   17  C   UNL     1      27.211  44.024  54.427  1.00  0.00     0.000 A 
HETATM   18  C   UNL     1      28.193  44.793  55.057  1.00  0.00     0.124 A 
HETATM   19  F   UNL     1      27.863  45.969  55.612  1.00  0.00    -0.205 F 
HETATM   20  C   UNL     1      29.515  44.364  55.129  1.00  0.00     0.043 A 
HETATM   21  C   UNL     1      29.874  43.142  54.562  1.00  0.00     0.003 A 
HETATM   22  C   UNL     1      28.909  42.365  53.921  1.00  0.00     0.001 A 
HETATM   23  C   UNL     1      27.585  42.804  53.848  1.00  0.00     0.012 A 
ENDBRANCH  16  17
ENDBRANCH  13  16
ENDBRANCH   9  11
ENDBRANCH   7   9
ENDBRANCH   5   7
ENDBRANCH   2   5
BRANCH   1  24
HETATM   24  C   UNL     1      19.409  46.960  48.413  1.00  0.00     0.150 A 
HETATM   25  N   UNL     1      20.101  47.994  47.883  1.00  0.00    -0.165 NA
HETATM   26  N   UNL     1      19.235  49.017  47.934  1.00  0.00    -0.240 N 
HETATM   27  C   UNL     1      18.008  48.684  48.438  1.00  0.00     0.123 A 
HETATM   28  C   UNL     1      19.582  50.334  47.437  1.00  0.00     0.221 C 
HETATM   29  N   UNL     1      17.001  49.586  48.497  1.00  0.00    -0.371 N 
HETATM   30  C   UNL     1      18.092  47.358  48.778  1.00  0.00     0.089 A 
HETATM   31  C   UNL     1      17.248  50.997  48.205  1.00  0.00     0.081 C 
HETATM   32  H   UNL     1      16.177  49.383  49.062  1.00  0.00     0.161 HD
HETATM   33  C   UNL     1      15.941  51.660  47.782  1.00  0.00     0.032 C 
HETATM   34  C   UNL     1      18.300  51.114  47.088  1.00  0.00     0.061 C 
BRANCH  28  35
HETATM   35  C   UNL     1      20.439  51.061  48.450  1.00  0.00     0.409 C 
HETATM   36  F   UNL     1      21.761  50.870  48.250  1.00  0.00    -0.169 F 
HETATM   37  F   UNL     1      20.227  52.401  48.350  1.00  0.00    -0.169 F 
HETATM   38  F   UNL     1      20.161  50.722  49.726  1.00  0.00    -0.169 F 
ENDBRANCH  28  35
ENDBRANCH   1  24
TORSDOF 8
ENDMDL
MODEL 8
REMARK VINA RESULT:      -9.4      2.059      2.387
REMARK  8 active torsions:
REMARK  status: ('A' for Active; 'I' for Inactive)
REMARK    1  A    between atoms: C_7  and  C_8 
REMARK       I    between atoms: C_8  and  N_9 
REMARK    2  A    between atoms: N_9  and  N_10 
REMARK    3  A    between atoms: N_10  and  C_11 
REMARK    4  A    between atoms: C_11  and  N_12 
REMARK    5  A    between atoms: N_12  and  C_13 
REMARK    6  A    between atoms: N_15  and  C_16 
REMARK    7  A    between atoms: C_16  and  C_17 
REMARK    8  A    between atoms: C_29  and  C_30 
ROOT
HETATM    1  C   UNL     1      25.605  47.260  49.965  1.00  0.00     0.290 C 
HETATM    2  N   UNL     1      25.756  45.954  49.540  1.00  0.00    -0.262 N 
HETATM    3  O   UNL     1      26.408  47.862  50.673  1.00  0.00    -0.264 OA
HETATM    4  H   UNL     1      25.077  45.577  48.880  1.00  0.00     0.190 HD
ENDROOT
BRANCH   2   5
HETATM    5  N   UNL     1      26.927  45.238  49.779  1.00  0.00    -0.273 N 
HETATM    6  H   UNL     1      27.822  45.730  49.681  1.00  0.00     0.189 HD
BRANCH   5   7
HETATM    7  C   UNL     1      26.908  44.039  50.440  1.00  0.00     0.192 C 
HETATM    8  S   UNL     1      26.931  42.536  49.689  1.00  0.00    -0.039 SA
BRANCH   7   9
HETATM    9  N   UNL     1      26.856  44.066  51.803  1.00  0.00    -0.315 N 
HETATM   10  H   UNL     1      26.130  44.649  52.198  1.00  0.00     0.170 HD
BRANCH   9  11
HETATM   11  C   UNL     1      27.718  43.465  52.694  1.00  0.00     0.151 A 
HETATM   12  N   UNL     1      28.861  44.006  53.127  1.00  0.00    -0.154 NA
HETATM   13  N   UNL     1      29.355  43.093  53.991  1.00  0.00    -0.275 N 
HETATM   14  C   UNL     1      28.566  41.985  54.110  1.00  0.00     0.116 A 
HETATM   15  C   UNL     1      27.495  42.195  53.275  1.00  0.00     0.071 A 
BRANCH  13  16
HETATM   16  C   UNL     1      30.649  43.309  54.624  1.00  0.00     0.192 C 
BRANCH  16  17
HETATM   17  C   UNL     1      30.528  44.139  55.870  1.00  0.00     0.000 A 
HETATM   18  C   UNL     1      31.318  43.857  56.987  1.00  0.00     0.124 A 
HETATM   19  F   UNL     1      32.196  42.843  56.941  1.00  0.00    -0.205 F 
HETATM   20  C   UNL     1      31.223  44.611  58.153  1.00  0.00     0.043 A 
HETATM   21  C   UNL     1      30.320  45.671  58.214  1.00  0.00     0.003 A 
HETATM   22  C   UNL     1      29.515  45.963  57.112  1.00  0.00     0.001 A 
HETATM   23  C   UNL     1      29.614  45.198  55.947  1.00  0.00     0.012 A 
ENDBRANCH  16  17
ENDBRANCH  13  16
ENDBRANCH   9  11
ENDBRANCH   7   9
ENDBRANCH   5   7
ENDBRANCH   2   5
BRANCH   1  24
HETATM   24  C   UNL     1      24.352  47.856  49.472  1.00  0.00     0.150 A 
HETATM   25  N   UNL     1      23.187  47.169  49.492  1.00  0.00    -0.165 NA
HETATM   26  N   UNL     1      22.301  48.030  48.968  1.00  0.00    -0.240 N 
HETATM   27  C   UNL     1      22.831  49.247  48.644  1.00  0.00     0.123 A 
HETATM   28  C   UNL     1      20.899  47.686  48.824  1.00  0.00     0.221 C 
HETATM   29  N   UNL     1      22.057  50.249  48.165  1.00  0.00    -0.371 N 
HETATM   30  C   UNL     1      24.167  49.163  48.940  1.00  0.00     0.089 A 
HETATM   31  C   UNL     1      20.665  50.000  47.793  1.00  0.00     0.081 C 
HETATM   32  H   UNL     1      22.496  51.063  47.736  1.00  0.00     0.161 HD
HETATM   33  C   UNL     1      19.888  51.312  47.846  1.00  0.00     0.032 C 
HETATM   34  C   UNL     1      20.052  48.971  48.758  1.00  0.00     0.061 C 
BRANCH  28  35
HETATM   35  C   UNL     1      20.703  46.805  47.609  1.00  0.00     0.409 C 
HETATM   36  F   UNL     1      20.854  45.492  47.885  1.00  0.00    -0.169 F 
HETATM   37  F   UNL     1      19.436  46.954  47.137  1.00  0.00    -0.169 F 
HETATM   38  F   UNL     1      21.533  47.111  46.589  1.00  0.00    -0.169 F 
ENDBRANCH  28  35
ENDBRANCH   1  24
TORSDOF 8
ENDMDL
MODEL 9
REMARK VINA RESULT:      -9.3      3.360     10.562
REMARK  8 active torsions:
REMARK  status: ('A' for Active; 'I' for Inactive)
REMARK    1  A    between atoms: C_7  and  C_8 
REMARK       I    between atoms: C_8  and  N_9 
REMARK    2  A    between atoms: N_9  and  N_10 
REMARK    3  A    between atoms: N_10  and  C_11 
REMARK    4  A    between atoms: C_11  and  N_12 
REMARK    5  A    between atoms: N_12  and  C_13 
REMARK    6  A    between atoms: N_15  and  C_16 
REMARK    7  A    between atoms: C_16  and  C_17 
REMARK    8  A    between atoms: C_29  and  C_30 
ROOT
HETATM    1  C   UNL     1      23.402  43.214  50.276  1.00  0.00     0.290 C 
HETATM    2  N   UNL     1      22.634  44.361  50.319  1.00  0.00    -0.262 N 
HETATM    3  O   UNL     1      23.081  42.179  49.698  1.00  0.00    -0.264 OA
HETATM    4  H   UNL     1      23.032  45.196  50.748  1.00  0.00     0.190 HD
ENDROOT
BRANCH   2   5
HETATM    5  N   UNL     1      21.460  44.483  49.579  1.00  0.00    -0.273 N 
HETATM    6  H   UNL     1      20.569  44.300  50.055  1.00  0.00     0.189 HD
BRANCH   5   7
HETATM    7  C   UNL     1      21.438  45.139  48.377  1.00  0.00     0.192 C 
HETATM    8  S   UNL     1      20.205  45.012  47.244  1.00  0.00    -0.039 SA
BRANCH   7   9
HETATM    9  N   UNL     1      22.498  45.943  48.074  1.00  0.00    -0.315 N 
HETATM   10  H   UNL     1      23.308  45.470  47.699  1.00  0.00     0.170 HD
BRANCH   9  11
HETATM   11  C   UNL     1      22.621  47.298  48.295  1.00  0.00     0.151 A 
HETATM   12  N   UNL     1      21.945  48.239  47.629  1.00  0.00    -0.154 NA
HETATM   13  N   UNL     1      22.354  49.400  48.184  1.00  0.00    -0.275 N 
HETATM   14  C   UNL     1      23.277  49.223  49.175  1.00  0.00     0.116 A 
HETATM   15  C   UNL     1      23.476  47.867  49.267  1.00  0.00     0.071 A 
BRANCH  13  16
HETATM   16  C   UNL     1      21.875  50.672  47.662  1.00  0.00     0.192 C 
BRANCH  16  17
HETATM   17  C   UNL     1      20.499  50.999  48.169  1.00  0.00     0.000 A 
HETATM   18  C   UNL     1      19.391  50.888  47.325  1.00  0.00     0.124 A 
HETATM   19  F   UNL     1      19.558  50.480  46.059  1.00  0.00    -0.205 F 
HETATM   20  C   UNL     1      18.106  51.187  47.771  1.00  0.00     0.043 A 
HETATM   21  C   UNL     1      17.916  51.607  49.086  1.00  0.00     0.003 A 
HETATM   22  C   UNL     1      19.011  51.733  49.941  1.00  0.00     0.001 A 
HETATM   23  C   UNL     1      20.298  51.436  49.485  1.00  0.00     0.012 A 
ENDBRANCH  16  17
ENDBRANCH  13  16
ENDBRANCH   9  11
ENDBRANCH   7   9
ENDBRANCH   5   7
ENDBRANCH   2   5
BRANCH   1  24
HETATM   24  C   UNL     1      24.665  43.370  51.018  1.00  0.00     0.150 A 
HETATM   25  N   UNL     1      24.695  43.922  52.253  1.00  0.00    -0.165 NA
HETATM   26  N   UNL     1      25.995  43.895  52.582  1.00  0.00    -0.240 N 
HETATM   27  C   UNL     1      26.798  43.321  51.636  1.00  0.00     0.123 A 
HETATM   28  C   UNL     1      26.467  44.386  53.862  1.00  0.00     0.221 C 
HETATM   29  N   UNL     1      28.125  43.157  51.842  1.00  0.00    -0.371 N 
HETATM   30  C   UNL     1      25.969  42.986  50.596  1.00  0.00     0.089 A 
HETATM   31  C   UNL     1      28.779  43.764  53.000  1.00  0.00     0.081 C 
HETATM   32  H   UNL     1      28.732  42.928  51.055  1.00  0.00     0.161 HD
HETATM   33  C   UNL     1      30.059  42.996  53.316  1.00  0.00     0.032 C 
HETATM   34  C   UNL     1      27.821  43.735  54.204  1.00  0.00     0.061 C 
BRANCH  28  35
HETATM   35  C   UNL     1      26.545  45.897  53.840  1.00  0.00     0.409 C 
HETATM   36  F   UNL     1      25.516  46.484  54.488  1.00  0.00    -0.169 F 
HETATM   37  F   UNL     1      27.678  46.305  54.473  1.00  0.00    -0.169 F 
HETATM   38  F   UNL     1      26.595  46.411  52.593  1.00  0.00    -0.169 F 
ENDBRANCH  28  35
ENDBRANCH   1  24
TORSDOF 8
ENDMDL
MODEL 10
REMARK VINA RESULT:      -9.3      2.708     10.900
REMARK  8 active torsions:
REMARK  status: ('A' for Active; 'I' for Inactive)
REMARK    1  A    between atoms: C_7  and  C_8 
REMARK       I    between atoms: C_8  and  N_9 
REMARK    2  A    between atoms: N_9  and  N_10 
REMARK    3  A    between atoms: N_10  and  C_11 
REMARK    4  A    between atoms: C_11  and  N_12 
REMARK    5  A    between atoms: N_12  and  C_13 
REMARK    6  A    between atoms: N_15  and  C_16 
REMARK    7  A    between atoms: C_16  and  C_17 
REMARK    8  A    between atoms: C_29  and  C_30 
ROOT
HETATM    1  C   UNL     1      24.924  46.783  51.258  1.00  0.00     0.290 C 
HETATM    2  N   UNL     1      24.289  45.691  50.699  1.00  0.00    -0.262 N 
HETATM    3  O   UNL     1      24.769  47.945  50.893  1.00  0.00    -0.264 OA
HETATM    4  H   UNL     1      24.418  44.778  51.136  1.00  0.00     0.190 HD
ENDROOT
BRANCH   2   5
HETATM    5  N   UNL     1      23.295  45.837  49.734  1.00  0.00    -0.273 N 
HETATM    6  H   UNL     1      23.286  46.700  49.179  1.00  0.00     0.189 HD
BRANCH   5   7
HETATM    7  C   UNL     1      22.566  44.766  49.292  1.00  0.00     0.192 C 
HETATM    8  S   UNL     1      22.952  43.160  49.598  1.00  0.00    -0.039 SA
BRANCH   7   9
HETATM    9  N   UNL     1      21.454  45.021  48.544  1.00  0.00    -0.315 N 
HETATM   10  H   UNL     1      21.058  44.221  48.070  1.00  0.00     0.170 HD
BRANCH   9  11
HETATM   11  C   UNL     1      20.864  46.241  48.295  1.00  0.00     0.151 A 
HETATM   12  N   UNL     1      21.528  47.349  47.954  1.00  0.00    -0.154 NA
HETATM   13  N   UNL     1      20.563  48.278  47.786  1.00  0.00    -0.275 N 
HETATM   14  C   UNL     1      19.308  47.795  48.020  1.00  0.00     0.116 A 
HETATM   15  C   UNL     1      19.471  46.473  48.359  1.00  0.00     0.071 A 
BRANCH  13  16
HETATM   16  C   UNL     1      20.918  49.656  47.470  1.00  0.00     0.192 C 
BRANCH  16  17
HETATM   17  C   UNL     1      19.941  50.631  48.062  1.00  0.00     0.000 A 
HETATM   18  C   UNL     1      20.020  50.977  49.413  1.00  0.00     0.124 A 
HETATM   19  F   UNL     1      20.979  50.441  50.182  1.00  0.00    -0.205 F 
HETATM   20  C   UNL     1      19.125  51.878  49.985  1.00  0.00     0.043 A 
HETATM   21  C   UNL     1      18.126  52.448  49.198  1.00  0.00     0.003 A 
HETATM   22  C   UNL     1      18.026  52.107  47.849  1.00  0.00     0.001 A 
HETATM   23  C   UNL     1      18.924  51.200  47.283  1.00  0.00     0.012 A 
ENDBRANCH  16  17
ENDBRANCH  13  16
ENDBRANCH   9  11
ENDBRANCH   7   9
ENDBRANCH   5   7
ENDBRANCH   2   5
BRANCH   1  24
HETATM   24  C   UNL     1      25.825  46.392  52.356  1.00  0.00     0.150 A 
HETATM   25  N   UNL     1      26.668  45.340  52.237  1.00  0.00    -0.165 NA
HETATM   26  N   UNL     1      27.300  45.303  53.419  1.00  0.00    -0.240 N 
HETATM   27  C   UNL     1      26.933  46.300  54.280  1.00  0.00     0.123 A 
HETATM   28  C   UNL     1      28.321  44.314  53.706  1.00  0.00     0.221 C 
HETATM   29  N   UNL     1      27.524  46.443  55.488  1.00  0.00    -0.371 N 
HETATM   30  C   UNL     1      25.961  47.015  53.628  1.00  0.00     0.089 A 
HETATM   31  C   UNL     1      28.437  45.420  55.995  1.00  0.00     0.081 C 
HETATM   32  H   UNL     1      27.097  47.048  56.188  1.00  0.00     0.161 HD
HETATM   33  C   UNL     1      29.369  46.044  57.029  1.00  0.00     0.032 C 
HETATM   34  C   UNL     1      29.245  44.828  54.827  1.00  0.00     0.061 C 
BRANCH  28  35
HETATM   35  C   UNL     1      27.677  42.990  54.055  1.00  0.00     0.409 C 
HETATM   36  F   UNL     1      27.290  42.293  52.965  1.00  0.00    -0.169 F 
HETATM   37  F   UNL     1      28.572  42.205  54.713  1.00  0.00    -0.169 F 
HETATM   38  F   UNL     1      26.606  43.115  54.867  1.00  0.00    -0.169 F 
ENDBRANCH  28  35
ENDBRANCH   1  24
TORSDOF 8
ENDMDL
