MODEL 1
REMARK VINA RESULT:      -9.5      0.000      0.000
REMARK  3 active torsions:
REMARK  status: ('A' for Active; 'I' for Inactive)
REMARK    1  A    between atoms: C_5  and  C_6 
REMARK    2  A    between atoms: C_10  and  N_11 
REMARK    3  A    between atoms: C_18  and  C_19 
ROOT
HETATM    1  C   UNL     1      26.068  43.288  51.797  1.00  0.00     0.106 A 
HETATM    2  C   UNL     1      25.332  42.354  50.831  1.00  0.00     0.081 A 
HETATM    3  C   UNL     1      23.972  42.674  50.549  1.00  0.00     0.100 C 
HETATM    4  N   UNL     1      22.864  42.930  50.318  1.00  0.00    -0.191 NA
HETATM    5  C   UNL     1      25.909  41.245  50.290  1.00  0.00     0.140 A 
HETATM    6  O   UNL     1      27.233  40.877  50.584  1.00  0.00    -0.279 OA
HETATM    7  C   UNL     1      27.866  41.620  51.482  1.00  0.00     0.175 A 
HETATM    8  C   UNL     1      27.420  42.750  52.119  1.00  0.00     0.040 A 
HETATM    9  N   UNL     1      29.115  41.373  51.945  1.00  0.00    -0.256 N 
HETATM   10  H   UNL     1      29.742  40.619  51.692  1.00  0.00     0.191 HD
HETATM   11  N   UNL     1      29.518  42.272  52.861  1.00  0.00    -0.172 NA
HETATM   12  C   UNL     1      28.474  43.114  53.003  1.00  0.00     0.099 A 
ENDROOT
BRANCH   1  13
HETATM   13  C   UNL     1      26.272  44.680  51.214  1.00  0.00    -0.044 A 
HETATM   14  C   UNL     1      25.511  45.751  51.710  1.00  0.00     0.009 A 
HETATM   15  C   UNL     1      25.631  47.032  51.161  1.00  0.00     0.007 A 
HETATM   16  C   UNL     1      26.503  47.269  50.095  1.00  0.00    -0.062 A 
HETATM   17  C   UNL     1      26.651  48.648  49.524  1.00  0.00     0.048 C 
HETATM   18  C   UNL     1      27.275  46.212  49.603  1.00  0.00     0.007 A 
HETATM   19  C   UNL     1      27.153  44.931  50.147  1.00  0.00     0.009 A 
ENDBRANCH   1  13
BRANCH   5  20
HETATM   20  N   UNL     1      25.297  40.370  49.421  1.00  0.00    -0.282 NA
HETATM   21  H   UNL     1      24.769  40.802  48.665  1.00  0.00     0.126 HD
HETATM   22  H   UNL     1      25.931  39.644  49.099  1.00  0.00     0.126 HD
ENDBRANCH   5  20
BRANCH  12  23
HETATM   23  C   UNL     1      28.535  44.219  53.958  1.00  0.00    -0.005 A 
HETATM   24  C   UNL     1      29.582  44.278  54.890  1.00  0.00     0.014 A 
HETATM   25  C   UNL     1      29.652  45.323  55.815  1.00  0.00     0.001 A 
HETATM   26  C   UNL     1      28.674  46.315  55.820  1.00  0.00     0.000 A 
HETATM   27  C   UNL     1      27.623  46.260  54.905  1.00  0.00     0.001 A 
HETATM   28  C   UNL     1      27.551  45.214  53.982  1.00  0.00     0.014 A 
ENDBRANCH  12  23
TORSDOF 3
ENDMDL
MODEL 2
REMARK VINA RESULT:      -8.3      8.376     11.537
REMARK  3 active torsions:
REMARK  status: ('A' for Active; 'I' for Inactive)
REMARK    1  A    between atoms: C_5  and  C_6 
REMARK    2  A    between atoms: C_10  and  N_11 
REMARK    3  A    between atoms: C_18  and  C_19 
ROOT
HETATM    1  C   UNL     1      19.865  48.346  47.423  1.00  0.00     0.106 A 
HETATM    2  C   UNL     1      21.291  48.170  47.954  1.00  0.00     0.081 A 
HETATM    3  C   UNL     1      22.226  49.192  47.617  1.00  0.00     0.100 C 
HETATM    4  N   UNL     1      22.990  50.021  47.343  1.00  0.00    -0.191 NA
HETATM    5  C   UNL     1      21.683  47.083  48.675  1.00  0.00     0.140 A 
HETATM    6  O   UNL     1      20.797  46.037  48.985  1.00  0.00    -0.279 OA
HETATM    7  C   UNL     1      19.579  46.123  48.467  1.00  0.00     0.175 A 
HETATM    8  C   UNL     1      19.042  47.139  47.717  1.00  0.00     0.040 A 
HETATM    9  N   UNL     1      18.619  45.176  48.593  1.00  0.00    -0.256 N 
HETATM   10  H   UNL     1      18.669  44.291  49.083  1.00  0.00     0.191 HD
HETATM   11  N   UNL     1      17.477  45.504  47.962  1.00  0.00    -0.172 NA
HETATM   12  C   UNL     1      17.729  46.701  47.390  1.00  0.00     0.099 A 
ENDROOT
BRANCH   1  13
HETATM   13  C   UNL     1      19.152  49.533  48.059  1.00  0.00    -0.044 A 
HETATM   14  C   UNL     1      18.875  49.511  49.436  1.00  0.00     0.009 A 
HETATM   15  C   UNL     1      18.174  50.556  50.044  1.00  0.00     0.007 A 
HETATM   16  C   UNL     1      17.720  51.641  49.289  1.00  0.00    -0.062 A 
HETATM   17  C   UNL     1      16.990  52.775  49.947  1.00  0.00     0.048 C 
HETATM   18  C   UNL     1      18.002  51.679  47.921  1.00  0.00     0.007 A 
HETATM   19  C   UNL     1      18.698  50.633  47.310  1.00  0.00     0.009 A 
ENDBRANCH   1  13
BRANCH   5  20
HETATM   20  N   UNL     1      22.949  46.870  49.174  1.00  0.00    -0.282 NA
HETATM   21  H   UNL     1      23.282  45.909  49.126  1.00  0.00     0.126 HD
HETATM   22  H   UNL     1      23.620  47.543  48.814  1.00  0.00     0.126 HD
ENDBRANCH   5  20
BRANCH  12  23
HETATM   23  C   UNL     1      16.711  47.363  46.576  1.00  0.00    -0.005 A 
HETATM   24  C   UNL     1      15.769  48.204  47.186  1.00  0.00     0.014 A 
HETATM   25  C   UNL     1      14.785  48.840  46.424  1.00  0.00     0.001 A 
HETATM   26  C   UNL     1      14.732  48.636  45.046  1.00  0.00     0.000 A 
HETATM   27  C   UNL     1      15.658  47.793  44.431  1.00  0.00     0.001 A 
HETATM   28  C   UNL     1      16.640  47.156  45.193  1.00  0.00     0.014 A 
ENDBRANCH  12  23
TORSDOF 3
ENDMDL
MODEL 3
REMARK VINA RESULT:      -8.2      3.870      6.579
REMARK  3 active torsions:
REMARK  status: ('A' for Active; 'I' for Inactive)
REMARK    1  A    between atoms: C_5  and  C_6 
REMARK    2  A    between atoms: C_10  and  N_11 
REMARK    3  A    between atoms: C_18  and  C_19 
ROOT
HETATM    1  C   UNL     1      23.466  45.769  48.395  1.00  0.00     0.106 A 
HETATM    2  C   UNL     1      22.270  44.865  48.081  1.00  0.00     0.081 A 
HETATM    3  C   UNL     1      22.566  43.599  47.496  1.00  0.00     0.100 C 
HETATM    4  N   UNL     1      22.803  42.569  47.019  1.00  0.00    -0.191 NA
HETATM    5  C   UNL     1      20.979  45.243  48.296  1.00  0.00     0.140 A 
HETATM    6  O   UNL     1      20.652  46.502  48.829  1.00  0.00    -0.279 OA
HETATM    7  C   UNL     1      21.663  47.337  49.032  1.00  0.00     0.175 A 
HETATM    8  C   UNL     1      23.003  47.110  48.854  1.00  0.00     0.040 A 
HETATM    9  N   UNL     1      21.533  48.614  49.466  1.00  0.00    -0.256 N 
HETATM   10  H   UNL     1      20.684  49.116  49.698  1.00  0.00     0.191 HD
HETATM   11  N   UNL     1      22.713  49.249  49.577  1.00  0.00    -0.172 NA
HETATM   12  C   UNL     1      23.632  48.346  49.175  1.00  0.00     0.099 A 
ENDROOT
BRANCH   1  13
HETATM   13  C   UNL     1      24.345  45.202  49.502  1.00  0.00    -0.044 A 
HETATM   14  C   UNL     1      25.626  44.721  49.184  1.00  0.00     0.009 A 
HETATM   15  C   UNL     1      26.439  44.142  50.163  1.00  0.00     0.007 A 
HETATM   16  C   UNL     1      25.986  44.017  51.479  1.00  0.00    -0.062 A 
HETATM   17  C   UNL     1      26.870  43.420  52.535  1.00  0.00     0.048 C 
HETATM   18  C   UNL     1      24.719  44.505  51.809  1.00  0.00     0.007 A 
HETATM   19  C   UNL     1      23.903  45.080  50.832  1.00  0.00     0.009 A 
ENDBRANCH   1  13
BRANCH   5  20
HETATM   20  N   UNL     1      19.867  44.476  48.031  1.00  0.00    -0.282 NA
HETATM   21  H   UNL     1      18.982  44.978  48.017  1.00  0.00     0.126 HD
HETATM   22  H   UNL     1      19.999  43.880  47.218  1.00  0.00     0.126 HD
ENDBRANCH   5  20
BRANCH  12  23
HETATM   23  C   UNL     1      25.049  48.699  49.128  1.00  0.00    -0.005 A 
HETATM   24  C   UNL     1      25.975  47.979  49.896  1.00  0.00     0.014 A 
HETATM   25  C   UNL     1      27.332  48.308  49.868  1.00  0.00     0.001 A 
HETATM   26  C   UNL     1      27.776  49.365  49.074  1.00  0.00     0.000 A 
HETATM   27  C   UNL     1      26.863  50.095  48.315  1.00  0.00     0.001 A 
HETATM   28  C   UNL     1      25.505  49.767  48.345  1.00  0.00     0.014 A 
ENDBRANCH  12  23
TORSDOF 3
ENDMDL
MODEL 4
REMARK VINA RESULT:      -8.1      7.662      9.958
REMARK  3 active torsions:
REMARK  status: ('A' for Active; 'I' for Inactive)
REMARK    1  A    between atoms: C_5  and  C_6 
REMARK    2  A    between atoms: C_10  and  N_11 
REMARK    3  A    between atoms: C_18  and  C_19 
ROOT
HETATM    1  C   UNL     1      19.169  48.173  47.182  1.00  0.00     0.106 A 
HETATM    2  C   UNL     1      17.721  47.825  46.822  1.00  0.00     0.081 A 
HETATM    3  C   UNL     1      17.509  47.220  45.549  1.00  0.00     0.100 C 
HETATM    4  N   UNL     1      17.333  46.730  44.512  1.00  0.00    -0.191 NA
HETATM    5  C   UNL     1      16.668  48.108  47.638  1.00  0.00     0.140 A 
HETATM    6  O   UNL     1      16.838  48.744  48.879  1.00  0.00    -0.279 OA
HETATM    7  C   UNL     1      18.071  49.132  49.179  1.00  0.00     0.175 A 
HETATM    8  C   UNL     1      19.223  48.933  48.462  1.00  0.00     0.040 A 
HETATM    9  N   UNL     1      18.413  49.825  50.291  1.00  0.00    -0.256 N 
HETATM   10  H   UNL     1      17.813  50.143  51.043  1.00  0.00     0.191 HD
HETATM   11  N   UNL     1      19.727  50.104  50.348  1.00  0.00    -0.172 NA
HETATM   12  C   UNL     1      20.241  49.587  49.212  1.00  0.00     0.099 A 
ENDROOT
BRANCH   1  13
HETATM   13  C   UNL     1      20.034  46.932  47.366  1.00  0.00    -0.044 A 
HETATM   14  C   UNL     1      19.787  46.078  48.453  1.00  0.00     0.009 A 
HETATM   15  C   UNL     1      20.595  44.961  48.687  1.00  0.00     0.007 A 
HETATM   16  C   UNL     1      21.678  44.680  47.848  1.00  0.00    -0.062 A 
HETATM   17  C   UNL     1      22.529  43.467  48.084  1.00  0.00     0.048 C 
HETATM   18  C   UNL     1      21.923  45.517  46.756  1.00  0.00     0.007 A 
HETATM   19  C   UNL     1      21.120  46.636  46.524  1.00  0.00     0.009 A 
ENDBRANCH   1  13
BRANCH   5  20
HETATM   20  N   UNL     1      15.348  47.822  47.367  1.00  0.00    -0.282 NA
HETATM   21  H   UNL     1      15.190  47.162  46.608  1.00  0.00     0.126 HD
HETATM   22  H   UNL     1      14.826  47.593  48.208  1.00  0.00     0.126 HD
ENDBRANCH   5  20
BRANCH  12  23
HETATM   23  C   UNL     1      21.662  49.732  48.907  1.00  0.00    -0.005 A 
HETATM   24  C   UNL     1      22.132  50.911  48.311  1.00  0.00     0.014 A 
HETATM   25  C   UNL     1      23.486  51.064  48.006  1.00  0.00     0.001 A 
HETATM   26  C   UNL     1      24.384  50.036  48.290  1.00  0.00     0.000 A 
HETATM   27  C   UNL     1      23.927  48.855  48.872  1.00  0.00     0.001 A 
HETATM   28  C   UNL     1      22.572  48.702  49.175  1.00  0.00     0.014 A 
ENDBRANCH  12  23
TORSDOF 3
ENDMDL
MODEL 5
REMARK VINA RESULT:      -8.1      2.434      4.877
REMARK  3 active torsions:
REMARK  status: ('A' for Active; 'I' for Inactive)
REMARK    1  A    between atoms: C_5  and  C_6 
REMARK    2  A    between atoms: C_10  and  N_11 
REMARK    3  A    between atoms: C_18  and  C_19 
ROOT
HETATM    1  C   UNL     1      26.389  42.675  49.454  1.00  0.00     0.106 A 
HETATM    2  C   UNL     1      26.447  41.417  48.582  1.00  0.00     0.081 A 
HETATM    3  C   UNL     1      27.714  41.095  48.014  1.00  0.00     0.100 C 
HETATM    4  N   UNL     1      28.744  40.831  47.548  1.00  0.00    -0.191 NA
HETATM    5  C   UNL     1      25.353  40.654  48.310  1.00  0.00     0.140 A 
HETATM    6  O   UNL     1      24.081  40.971  48.817  1.00  0.00    -0.279 OA
HETATM    7  C   UNL     1      23.985  42.100  49.506  1.00  0.00     0.175 A 
HETATM    8  C   UNL     1      24.984  42.974  49.851  1.00  0.00     0.040 A 
HETATM    9  N   UNL     1      22.831  42.604  50.004  1.00  0.00    -0.256 N 
HETATM   10  H   UNL     1      21.896  42.218  49.938  1.00  0.00     0.191 HD
HETATM   11  N   UNL     1      23.008  43.769  50.653  1.00  0.00    -0.172 NA
HETATM   12  C   UNL     1      24.327  44.029  50.544  1.00  0.00     0.099 A 
ENDROOT
BRANCH   1  13
HETATM   13  C   UNL     1      27.190  42.524  50.742  1.00  0.00    -0.044 A 
HETATM   14  C   UNL     1      27.990  43.591  51.183  1.00  0.00     0.009 A 
HETATM   15  C   UNL     1      28.781  43.468  52.329  1.00  0.00     0.007 A 
HETATM   16  C   UNL     1      28.803  42.273  53.053  1.00  0.00    -0.062 A 
HETATM   17  C   UNL     1      29.632  42.151  54.297  1.00  0.00     0.048 C 
HETATM   18  C   UNL     1      28.000  41.210  52.630  1.00  0.00     0.007 A 
HETATM   19  C   UNL     1      27.212  41.328  51.482  1.00  0.00     0.009 A 
ENDBRANCH   1  13
BRANCH   5  20
HETATM   20  N   UNL     1      25.345  39.518  47.531  1.00  0.00    -0.282 NA
HETATM   21  H   UNL     1      25.447  39.673  46.530  1.00  0.00     0.126 HD
HETATM   22  H   UNL     1      25.973  38.805  47.890  1.00  0.00     0.126 HD
ENDBRANCH   5  20
BRANCH  12  23
HETATM   23  C   UNL     1      24.891  45.253  51.108  1.00  0.00    -0.005 A 
HETATM   24  C   UNL     1      25.140  45.337  52.486  1.00  0.00     0.014 A 
HETATM   25  C   UNL     1      25.673  46.502  53.043  1.00  0.00     0.001 A 
HETATM   26  C   UNL     1      25.956  47.597  52.228  1.00  0.00     0.000 A 
HETATM   27  C   UNL     1      25.703  47.529  50.859  1.00  0.00     0.001 A 
HETATM   28  C   UNL     1      25.168  46.364  50.302  1.00  0.00     0.014 A 
ENDBRANCH  12  23
TORSDOF 3
ENDMDL
MODEL 6
REMARK VINA RESULT:      -8.0      6.838     10.059
REMARK  3 active torsions:
REMARK  status: ('A' for Active; 'I' for Inactive)
REMARK    1  A    between atoms: C_5  and  C_6 
REMARK    2  A    between atoms: C_10  and  N_11 
REMARK    3  A    between atoms: C_18  and  C_19 
ROOT
HETATM    1  C   UNL     1      21.952  48.570  47.759  1.00  0.00     0.106 A 
HETATM    2  C   UNL     1      23.340  48.757  48.380  1.00  0.00     0.081 A 
HETATM    3  C   UNL     1      24.048  49.937  48.010  1.00  0.00     0.100 C 
HETATM    4  N   UNL     1      24.629  50.895  47.709  1.00  0.00    -0.191 NA
HETATM    5  C   UNL     1      23.909  47.840  49.210  1.00  0.00     0.140 A 
HETATM    6  O   UNL     1      23.256  46.645  49.558  1.00  0.00    -0.279 OA
HETATM    7  C   UNL     1      22.089  46.418  48.970  1.00  0.00     0.175 A 
HETATM    8  C   UNL     1      21.397  47.232  48.109  1.00  0.00     0.040 A 
HETATM    9  N   UNL     1      21.354  45.291  49.123  1.00  0.00    -0.256 N 
HETATM   10  H   UNL     1      21.563  44.476  49.688  1.00  0.00     0.191 HD
HETATM   11  N   UNL     1      20.217  45.308  48.405  1.00  0.00    -0.172 NA
HETATM   12  C   UNL     1      20.239  46.487  47.749  1.00  0.00     0.099 A 
ENDROOT
BRANCH   1  13
HETATM   13  C   UNL     1      20.952  49.607  48.254  1.00  0.00    -0.044 A 
HETATM   14  C   UNL     1      20.623  49.649  49.619  1.00  0.00     0.009 A 
HETATM   15  C   UNL     1      19.668  50.550  50.100  1.00  0.00     0.007 A 
HETATM   16  C   UNL     1      19.008  51.419  49.226  1.00  0.00    -0.062 A 
HETATM   17  C   UNL     1      18.002  52.403  49.747  1.00  0.00     0.048 C 
HETATM   18  C   UNL     1      19.337  51.394  47.869  1.00  0.00     0.007 A 
HETATM   19  C   UNL     1      20.288  50.492  47.385  1.00  0.00     0.009 A 
ENDBRANCH   1  13
BRANCH   5  20
HETATM   20  N   UNL     1      25.152  47.953  49.793  1.00  0.00    -0.282 NA
HETATM   21  H   UNL     1      25.926  48.103  49.149  1.00  0.00     0.126 HD
HETATM   22  H   UNL     1      25.150  48.606  50.572  1.00  0.00     0.126 HD
ENDBRANCH   5  20
BRANCH  12  23
HETATM   23  C   UNL     1      19.162  46.844  46.829  1.00  0.00    -0.005 A 
HETATM   24  C   UNL     1      18.029  47.518  47.307  1.00  0.00     0.014 A 
HETATM   25  C   UNL     1      16.987  47.861  46.442  1.00  0.00     0.001 A 
HETATM   26  C   UNL     1      17.066  47.529  45.091  1.00  0.00     0.000 A 
HETATM   27  C   UNL     1      18.183  46.849  44.606  1.00  0.00     0.001 A 
HETATM   28  C   UNL     1      19.224  46.504  45.472  1.00  0.00     0.014 A 
ENDBRANCH  12  23
TORSDOF 3
ENDMDL
MODEL 7
REMARK VINA RESULT:      -8.0     16.295     18.425
REMARK  3 active torsions:
REMARK  status: ('A' for Active; 'I' for Inactive)
REMARK    1  A    between atoms: C_5  and  C_6 
REMARK    2  A    between atoms: C_10  and  N_11 
REMARK    3  A    between atoms: C_18  and  C_19 
ROOT
HETATM    1  C   UNL     1      39.264  44.395  65.822  1.00  0.00     0.106 A 
HETATM    2  C   UNL     1      40.574  45.188  65.851  1.00  0.00     0.081 A 
HETATM    3  C   UNL     1      41.660  44.597  66.561  1.00  0.00     0.100 C 
HETATM    4  N   UNL     1      42.545  44.120  67.140  1.00  0.00    -0.191 NA
HETATM    5  C   UNL     1      40.709  46.415  65.276  1.00  0.00     0.140 A 
HETATM    6  O   UNL     1      39.645  47.045  64.609  1.00  0.00    -0.279 OA
HETATM    7  C   UNL     1      38.476  46.418  64.640  1.00  0.00     0.175 A 
HETATM    8  C   UNL     1      38.180  45.195  65.184  1.00  0.00     0.040 A 
HETATM    9  N   UNL     1      37.325  46.907  64.120  1.00  0.00    -0.256 N 
HETATM   10  H   UNL     1      37.175  47.787  63.641  1.00  0.00     0.191 HD
HETATM   11  N   UNL     1      36.280  46.079  64.296  1.00  0.00    -0.172 NA
HETATM   12  C   UNL     1      36.782  45.028  64.978  1.00  0.00     0.099 A 
ENDROOT
BRANCH   1  13
HETATM   13  C   UNL     1      39.387  43.102  65.025  1.00  0.00    -0.044 A 
HETATM   14  C   UNL     1      39.451  43.163  63.623  1.00  0.00     0.009 A 
HETATM   15  C   UNL     1      39.508  41.995  62.856  1.00  0.00     0.007 A 
HETATM   16  C   UNL     1      39.487  40.740  63.471  1.00  0.00    -0.062 A 
HETATM   17  C   UNL     1      39.575  39.488  62.648  1.00  0.00     0.048 C 
HETATM   18  C   UNL     1      39.437  40.669  64.865  1.00  0.00     0.007 A 
HETATM   19  C   UNL     1      39.375  41.834  65.634  1.00  0.00     0.009 A 
ENDBRANCH   1  13
BRANCH   5  20
HETATM   20  N   UNL     1      41.859  47.173  65.274  1.00  0.00    -0.282 NA
HETATM   21  H   UNL     1      42.589  46.858  64.638  1.00  0.00     0.126 HD
HETATM   22  H   UNL     1      41.661  48.167  65.192  1.00  0.00     0.126 HD
ENDBRANCH   5  20
BRANCH  12  23
HETATM   23  C   UNL     1      35.915  43.925  65.386  1.00  0.00    -0.005 A 
HETATM   24  C   UNL     1      34.945  44.130  66.379  1.00  0.00     0.014 A 
HETATM   25  C   UNL     1      34.112  43.085  66.786  1.00  0.00     0.001 A 
HETATM   26  C   UNL     1      34.245  41.824  66.208  1.00  0.00     0.000 A 
HETATM   27  C   UNL     1      35.213  41.606  65.228  1.00  0.00     0.001 A 
HETATM   28  C   UNL     1      36.047  42.650  64.823  1.00  0.00     0.014 A 
ENDBRANCH  12  23
TORSDOF 3
ENDMDL
MODEL 8
REMARK VINA RESULT:      -7.9     16.044     17.985
REMARK  3 active torsions:
REMARK  status: ('A' for Active; 'I' for Inactive)
REMARK    1  A    between atoms: C_5  and  C_6 
REMARK    2  A    between atoms: C_10  and  N_11 
REMARK    3  A    between atoms: C_18  and  C_19 
ROOT
HETATM    1  C   UNL     1      37.441  45.042  66.487  1.00  0.00     0.106 A 
HETATM    2  C   UNL     1      36.097  44.556  67.037  1.00  0.00     0.081 A 
HETATM    3  C   UNL     1      35.829  44.841  68.408  1.00  0.00     0.100 C 
HETATM    4  N   UNL     1      35.610  45.068  69.524  1.00  0.00    -0.191 NA
HETATM    5  C   UNL     1      35.204  43.849  66.290  1.00  0.00     0.140 A 
HETATM    6  O   UNL     1      35.457  43.513  64.949  1.00  0.00    -0.279 OA
HETATM    7  C   UNL     1      36.649  43.848  64.472  1.00  0.00     0.175 A 
HETATM    8  C   UNL     1      37.651  44.545  65.098  1.00  0.00     0.040 A 
HETATM    9  N   UNL     1      37.097  43.540  63.232  1.00  0.00    -0.256 N 
HETATM   10  H   UNL     1      36.619  43.031  62.498  1.00  0.00     0.191 HD
HETATM   11  N   UNL     1      38.345  43.987  63.003  1.00  0.00    -0.172 NA
HETATM   12  C   UNL     1      38.716  44.585  64.155  1.00  0.00     0.099 A 
ENDROOT
BRANCH   1  13
HETATM   13  C   UNL     1      37.529  46.562  66.431  1.00  0.00    -0.044 A 
HETATM   14  C   UNL     1      36.840  47.253  65.420  1.00  0.00     0.009 A 
HETATM   15  C   UNL     1      36.942  48.642  65.303  1.00  0.00     0.007 A 
HETATM   16  C   UNL     1      37.746  49.372  66.184  1.00  0.00    -0.062 A 
HETATM   17  C   UNL     1      37.834  50.866  66.074  1.00  0.00     0.048 C 
HETATM   18  C   UNL     1      38.425  48.695  67.201  1.00  0.00     0.007 A 
HETATM   19  C   UNL     1      38.328  47.307  67.317  1.00  0.00     0.009 A 
ENDBRANCH   1  13
BRANCH   5  20
HETATM   20  N   UNL     1      33.985  43.385  66.731  1.00  0.00    -0.282 NA
HETATM   21  H   UNL     1      33.930  43.173  67.725  1.00  0.00     0.126 HD
HETATM   22  H   UNL     1      33.215  43.963  66.404  1.00  0.00     0.126 HD
ENDBRANCH   5  20
BRANCH  12  23
HETATM   23  C   UNL     1      40.049  45.167  64.294  1.00  0.00    -0.005 A 
HETATM   24  C   UNL     1      41.183  44.351  64.172  1.00  0.00     0.014 A 
HETATM   25  C   UNL     1      42.465  44.889  64.308  1.00  0.00     0.001 A 
HETATM   26  C   UNL     1      42.625  46.248  64.574  1.00  0.00     0.000 A 
HETATM   27  C   UNL     1      41.504  47.067  64.709  1.00  0.00     0.001 A 
HETATM   28  C   UNL     1      40.222  46.528  64.574  1.00  0.00     0.014 A 
ENDBRANCH  12  23
TORSDOF 3
ENDMDL
MODEL 9
REMARK VINA RESULT:      -7.9     16.601     19.296
REMARK  3 active torsions:
REMARK  status: ('A' for Active; 'I' for Inactive)
REMARK    1  A    between atoms: C_5  and  C_6 
REMARK    2  A    between atoms: C_10  and  N_11 
REMARK    3  A    between atoms: C_18  and  C_19 
ROOT
HETATM    1  C   UNL     1      39.815  46.557  64.875  1.00  0.00     0.106 A 
HETATM    2  C   UNL     1      40.405  45.404  64.055  1.00  0.00     0.081 A 
HETATM    3  C   UNL     1      41.817  45.421  63.858  1.00  0.00     0.100 C 
HETATM    4  N   UNL     1      42.965  45.433  63.694  1.00  0.00    -0.191 NA
HETATM    5  C   UNL     1      39.640  44.427  63.495  1.00  0.00     0.140 A 
HETATM    6  O   UNL     1      38.241  44.407  63.633  1.00  0.00    -0.279 OA
HETATM    7  C   UNL     1      37.696  45.438  64.267  1.00  0.00     0.175 A 
HETATM    8  C   UNL     1      38.326  46.496  64.869  1.00  0.00     0.040 A 
HETATM    9  N   UNL     1      36.365  45.627  64.427  1.00  0.00    -0.256 N 
HETATM   10  H   UNL     1      35.603  45.041  64.108  1.00  0.00     0.191 HD
HETATM   11  N   UNL     1      36.077  46.758  65.096  1.00  0.00    -0.172 NA
HETATM   12  C   UNL     1      37.275  47.324  65.352  1.00  0.00     0.099 A 
ENDROOT
BRANCH   1  13
HETATM   13  C   UNL     1      40.255  46.514  66.333  1.00  0.00    -0.044 A 
HETATM   14  C   UNL     1      40.019  45.354  67.088  1.00  0.00     0.009 A 
HETATM   15  C   UNL     1      40.357  45.298  68.444  1.00  0.00     0.007 A 
HETATM   16  C   UNL     1      40.925  46.406  69.080  1.00  0.00    -0.062 A 
HETATM   17  C   UNL     1      41.312  46.337  70.528  1.00  0.00     0.048 C 
HETATM   18  C   UNL     1      41.176  47.561  68.334  1.00  0.00     0.007 A 
HETATM   19  C   UNL     1      40.835  47.620  66.980  1.00  0.00     0.009 A 
ENDBRANCH   1  13
BRANCH   5  20
HETATM   20  N   UNL     1      40.113  43.371  62.748  1.00  0.00    -0.282 NA
HETATM   21  H   UNL     1      39.694  42.467  62.954  1.00  0.00     0.126 HD
HETATM   22  H   UNL     1      40.133  43.584  61.755  1.00  0.00     0.126 HD
ENDBRANCH   5  20
BRANCH  12  23
HETATM   23  C   UNL     1      37.356  48.608  66.046  1.00  0.00    -0.005 A 
HETATM   24  C   UNL     1      37.862  49.732  65.378  1.00  0.00     0.014 A 
HETATM   25  C   UNL     1      37.952  50.965  66.028  1.00  0.00     0.001 A 
HETATM   26  C   UNL     1      37.544  51.083  67.356  1.00  0.00     0.000 A 
HETATM   27  C   UNL     1      37.050  49.970  68.034  1.00  0.00     0.001 A 
HETATM   28  C   UNL     1      36.961  48.736  67.384  1.00  0.00     0.014 A 
ENDBRANCH  12  23
TORSDOF 3
ENDMDL
MODEL 10
REMARK VINA RESULT:      -7.8      3.096      6.468
REMARK  3 active torsions:
REMARK  status: ('A' for Active; 'I' for Inactive)
REMARK    1  A    between atoms: C_5  and  C_6 
REMARK    2  A    between atoms: C_10  and  N_11 
REMARK    3  A    between atoms: C_18  and  C_19 
ROOT
HETATM    1  C   UNL     1      24.369  45.197  49.113  1.00  0.00     0.106 A 
HETATM    2  C   UNL     1      24.565  43.681  49.020  1.00  0.00     0.081 A 
HETATM    3  C   UNL     1      25.912  43.214  48.998  1.00  0.00     0.100 C 
HETATM    4  N   UNL     1      27.007  42.830  48.979  1.00  0.00    -0.191 NA
HETATM    5  C   UNL     1      23.527  42.806  48.916  1.00  0.00     0.140 A 
HETATM    6  O   UNL     1      22.190  43.237  48.888  1.00  0.00    -0.279 OA
HETATM    7  C   UNL     1      21.994  44.549  48.883  1.00  0.00     0.175 A 
HETATM    8  C   UNL     1      22.928  45.550  48.970  1.00  0.00     0.040 A 
HETATM    9  N   UNL     1      20.783  45.147  48.782  1.00  0.00    -0.256 N 
HETATM   10  H   UNL     1      19.872  44.713  48.701  1.00  0.00     0.191 HD
HETATM   11  N   UNL     1      20.863  46.490  48.788  1.00  0.00    -0.172 NA
HETATM   12  C   UNL     1      22.183  46.758  48.874  1.00  0.00     0.099 A 
ENDROOT
BRANCH   1  13
HETATM   13  C   UNL     1      24.832  45.760  50.451  1.00  0.00    -0.044 A 
HETATM   14  C   UNL     1      25.628  46.917  50.472  1.00  0.00     0.009 A 
HETATM   15  C   UNL     1      26.118  47.429  51.677  1.00  0.00     0.007 A 
HETATM   16  C   UNL     1      25.835  46.791  52.888  1.00  0.00    -0.062 A 
HETATM   17  C   UNL     1      26.339  47.356  54.183  1.00  0.00     0.048 C 
HETATM   18  C   UNL     1      25.032  45.647  52.879  1.00  0.00     0.007 A 
HETATM   19  C   UNL     1      24.546  45.130  51.676  1.00  0.00     0.009 A 
ENDBRANCH   1  13
BRANCH   5  20
HETATM   20  N   UNL     1      23.643  41.436  48.826  1.00  0.00    -0.282 NA
HETATM   21  H   UNL     1      24.582  41.066  48.967  1.00  0.00     0.126 HD
HETATM   22  H   UNL     1      22.940  40.956  49.380  1.00  0.00     0.126 HD
ENDBRANCH   5  20
BRANCH  12  23
HETATM   23  C   UNL     1      22.662  48.139  48.871  1.00  0.00    -0.005 A 
HETATM   24  C   UNL     1      21.900  49.144  49.485  1.00  0.00     0.014 A 
HETATM   25  C   UNL     1      22.340  50.470  49.485  1.00  0.00     0.001 A 
HETATM   26  C   UNL     1      23.542  50.805  48.865  1.00  0.00     0.000 A 
HETATM   27  C   UNL     1      24.302  49.815  48.242  1.00  0.00     0.001 A 
HETATM   28  C   UNL     1      23.862  48.490  48.240  1.00  0.00     0.014 A 
ENDBRANCH  12  23
TORSDOF 3
ENDMDL
