MODEL 1
REMARK VINA RESULT:      -8.9      0.000      0.000
REMARK  7 active torsions:
REMARK  status: ('A' for Active; 'I' for Inactive)
REMARK    1  A    between atoms: C_2  and  N_3 
REMARK       I    between atoms: N_3  and  C_4 
REMARK    2  A    between atoms: C_4  and  C_5 
REMARK    3  A    between atoms: C_9  and  N_10 
REMARK       I    between atoms: N_10  and  C_11 
REMARK    4  A    between atoms: C_11  and  C_12 
REMARK    5  A    between atoms: C_12  and  S_13 
REMARK    6  A    between atoms: S_13  and  C_14 
REMARK    7  A    between atoms: C_14  and  C_15 
ROOT
HETATM    1  N   UNL     1      25.291  46.835  51.926  1.00  0.00    -0.326 N 
HETATM    2  C   UNL     1      25.606  47.553  50.780  1.00  0.00     0.231 C 
HETATM    3  O   UNL     1      26.652  48.151  50.552  1.00  0.00    -0.272 OA
HETATM    4  H   UNL     1      24.381  46.393  51.923  1.00  0.00     0.169 HD
ENDROOT
BRANCH   2   5
HETATM    5  C   UNL     1      24.479  47.537  49.751  1.00  0.00     0.177 C 
BRANCH   5   6
HETATM    6  S   UNL     1      23.920  45.810  49.527  1.00  0.00    -0.147 SA
BRANCH   6   7
HETATM    7  C   UNL     1      22.540  46.039  48.340  1.00  0.00     0.113 C 
HETATM    8  C   UNL     1      21.530  44.899  48.448  1.00  0.00     0.029 C 
BRANCH   7   9
HETATM    9  C   UNL     1      21.892  47.389  48.444  1.00  0.00     0.118 A 
HETATM   10  N   UNL     1      22.141  48.444  47.693  1.00  0.00    -0.232 NA
HETATM   11  C   UNL     1      21.386  49.465  48.215  1.00  0.00     0.085 A 
HETATM   12  C   UNL     1      20.639  49.024  49.299  1.00  0.00     0.062 A 
HETATM   13  C   UNL     1      21.292  50.807  47.816  1.00  0.00     0.034 A 
HETATM   14  N   UNL     1      20.977  47.702  49.426  1.00  0.00    -0.342 N 
HETATM   15  C   UNL     1      19.774  49.850  50.021  1.00  0.00     0.032 A 
HETATM   16  H   UNL     1      20.618  47.057  50.116  1.00  0.00     0.167 HD
HETATM   17  C   UNL     1      19.692  51.185  49.609  1.00  0.00     0.002 A 
HETATM   18  C   UNL     1      20.440  51.660  48.528  1.00  0.00     0.002 A 
ENDBRANCH   7   9
ENDBRANCH   6   7
ENDBRANCH   5   6
ENDBRANCH   2   5
BRANCH   1  19
HETATM   19  C   UNL     1      26.115  46.561  53.042  1.00  0.00     0.040 A 
HETATM   20  C   UNL     1      26.819  45.335  53.082  1.00  0.00    -0.034 A 
HETATM   21  C   UNL     1      27.690  45.067  54.158  1.00  0.00     0.026 A 
HETATM   22  C   UNL     1      26.677  44.289  52.008  1.00  0.00     0.050 C 
HETATM   23  C   UNL     1      27.870  45.998  55.186  1.00  0.00     0.032 A 
HETATM   24  C   UNL     1      27.142  47.187  55.161  1.00  0.00     0.019 A 
HETATM   25  C   UNL     1      26.276  47.465  54.097  1.00  0.00     0.031 A 
BRANCH  23  26
HETATM   26  C   UNL     1      28.808  45.761  56.321  1.00  0.00     0.251 C 
HETATM   27  N   UNL     1      29.873  44.918  56.068  1.00  0.00    -0.357 N 
HETATM   28  H   UNL     1      30.071  44.646  55.116  1.00  0.00     0.162 HD
HETATM   29  O   UNL     1      28.634  46.328  57.393  1.00  0.00    -0.268 OA
BRANCH  27  30
HETATM   30  C   UNL     1      30.915  44.701  57.051  1.00  0.00     0.118 C 
HETATM   31  C   UNL     1      31.607  43.367  56.840  1.00  0.00     0.026 C 
ENDBRANCH  27  30
ENDBRANCH  23  26
ENDBRANCH   1  19
TORSDOF 7
ENDMDL
MODEL 2
REMARK VINA RESULT:      -8.7      1.556      2.216
REMARK  7 active torsions:
REMARK  status: ('A' for Active; 'I' for Inactive)
REMARK    1  A    between atoms: C_2  and  N_3 
REMARK       I    between atoms: N_3  and  C_4 
REMARK    2  A    between atoms: C_4  and  C_5 
REMARK    3  A    between atoms: C_9  and  N_10 
REMARK       I    between atoms: N_10  and  C_11 
REMARK    4  A    between atoms: C_11  and  C_12 
REMARK    5  A    between atoms: C_12  and  S_13 
REMARK    6  A    between atoms: S_13  and  C_14 
REMARK    7  A    between atoms: C_14  and  C_15 
ROOT
HETATM    1  N   UNL     1      25.421  45.805  51.724  1.00  0.00    -0.326 N 
HETATM    2  C   UNL     1      25.408  46.943  50.928  1.00  0.00     0.231 C 
HETATM    3  O   UNL     1      26.266  47.818  50.883  1.00  0.00    -0.272 OA
HETATM    4  H   UNL     1      24.628  45.187  51.607  1.00  0.00     0.169 HD
ENDROOT
BRANCH   2   5
HETATM    5  C   UNL     1      24.164  47.028  50.046  1.00  0.00     0.177 C 
BRANCH   5   6
HETATM    6  S   UNL     1      24.175  48.639  49.181  1.00  0.00    -0.147 SA
BRANCH   6   7
HETATM    7  C   UNL     1      22.692  48.473  48.113  1.00  0.00     0.113 C 
HETATM    8  C   UNL     1      22.270  47.011  47.986  1.00  0.00     0.029 C 
BRANCH   7   9
HETATM    9  C   UNL     1      21.560  49.360  48.537  1.00  0.00     0.118 A 
HETATM   10  N   UNL     1      20.602  49.063  49.394  1.00  0.00    -0.232 NA
HETATM   11  C   UNL     1      19.747  50.138  49.393  1.00  0.00     0.085 A 
HETATM   12  C   UNL     1      20.200  51.129  48.532  1.00  0.00     0.062 A 
HETATM   13  C   UNL     1      18.553  50.337  50.101  1.00  0.00     0.034 A 
HETATM   14  N   UNL     1      21.352  50.612  48.000  1.00  0.00    -0.342 N 
HETATM   15  C   UNL     1      19.530  52.339  48.336  1.00  0.00     0.032 A 
HETATM   16  H   UNL     1      21.957  51.067  47.330  1.00  0.00     0.167 HD
HETATM   17  C   UNL     1      18.341  52.520  49.052  1.00  0.00     0.002 A 
HETATM   18  C   UNL     1      17.855  51.536  49.918  1.00  0.00     0.002 A 
ENDBRANCH   7   9
ENDBRANCH   6   7
ENDBRANCH   5   6
ENDBRANCH   2   5
BRANCH   1  19
HETATM   19  C   UNL     1      26.443  45.354  52.591  1.00  0.00     0.040 A 
HETATM   20  C   UNL     1      27.335  44.359  52.130  1.00  0.00    -0.034 A 
HETATM   21  C   UNL     1      28.395  43.936  52.959  1.00  0.00     0.026 A 
HETATM   22  C   UNL     1      27.200  43.721  50.773  1.00  0.00     0.050 C 
HETATM   23  C   UNL     1      28.579  44.491  54.229  1.00  0.00     0.032 A 
HETATM   24  C   UNL     1      27.671  45.443  54.694  1.00  0.00     0.019 A 
HETATM   25  C   UNL     1      26.617  45.872  53.879  1.00  0.00     0.031 A 
BRANCH  23  26
HETATM   26  C   UNL     1      29.708  44.092  55.118  1.00  0.00     0.251 C 
HETATM   27  N   UNL     1      30.016  44.963  56.145  1.00  0.00    -0.357 N 
HETATM   28  H   UNL     1      29.380  45.719  56.357  1.00  0.00     0.162 HD
HETATM   29  O   UNL     1      30.283  43.025  54.941  1.00  0.00    -0.268 OA
BRANCH  27  30
HETATM   30  C   UNL     1      31.013  44.632  57.143  1.00  0.00     0.118 C 
HETATM   31  C   UNL     1      30.730  45.329  58.461  1.00  0.00     0.026 C 
ENDBRANCH  27  30
ENDBRANCH  23  26
ENDBRANCH   1  19
TORSDOF 7
ENDMDL
MODEL 3
REMARK VINA RESULT:      -8.7     12.023     13.192
REMARK  7 active torsions:
REMARK  status: ('A' for Active; 'I' for Inactive)
REMARK    1  A    between atoms: C_2  and  N_3 
REMARK       I    between atoms: N_3  and  C_4 
REMARK    2  A    between atoms: C_4  and  C_5 
REMARK    3  A    between atoms: C_9  and  N_10 
REMARK       I    between atoms: N_10  and  C_11 
REMARK    4  A    between atoms: C_11  and  C_12 
REMARK    5  A    between atoms: C_12  and  S_13 
REMARK    6  A    between atoms: S_13  and  C_14 
REMARK    7  A    between atoms: C_14  and  C_15 
ROOT
HETATM    1  N   UNL     1      30.036  48.691  39.499  1.00  0.00    -0.326 N 
HETATM    2  C   UNL     1      29.798  47.334  39.331  1.00  0.00     0.231 C 
HETATM    3  O   UNL     1      30.304  46.414  39.966  1.00  0.00    -0.272 OA
HETATM    4  H   UNL     1      29.508  49.302  38.890  1.00  0.00     0.169 HD
ENDROOT
BRANCH   2   5
HETATM    5  C   UNL     1      28.786  47.050  38.224  1.00  0.00     0.177 C 
BRANCH   5   6
HETATM    6  S   UNL     1      27.133  46.855  38.984  1.00  0.00    -0.147 SA
BRANCH   6   7
HETATM    7  C   UNL     1      26.277  48.348  38.347  1.00  0.00     0.113 C 
HETATM    8  C   UNL     1      24.783  48.297  38.658  1.00  0.00     0.029 C 
BRANCH   7   9
HETATM    9  C   UNL     1      26.912  49.629  38.803  1.00  0.00     0.118 A 
HETATM   10  N   UNL     1      27.556  50.502  38.052  1.00  0.00    -0.232 NA
HETATM   11  C   UNL     1      28.039  51.456  38.913  1.00  0.00     0.085 A 
HETATM   12  C   UNL     1      27.665  51.178  40.221  1.00  0.00     0.062 A 
HETATM   13  C   UNL     1      28.814  52.595  38.648  1.00  0.00     0.034 A 
HETATM   14  N   UNL     1      26.950  50.013  40.126  1.00  0.00    -0.342 N 
HETATM   15  C   UNL     1      28.012  51.986  41.306  1.00  0.00     0.032 A 
HETATM   16  H   UNL     1      26.516  49.514  40.891  1.00  0.00     0.167 HD
HETATM   17  C   UNL     1      28.785  53.118  41.023  1.00  0.00     0.002 A 
HETATM   18  C   UNL     1      29.186  53.418  39.718  1.00  0.00     0.002 A 
ENDBRANCH   7   9
ENDBRANCH   6   7
ENDBRANCH   5   6
ENDBRANCH   2   5
BRANCH   1  19
HETATM   19  C   UNL     1      30.837  49.324  40.478  1.00  0.00     0.040 A 
HETATM   20  C   UNL     1      31.736  50.336  40.069  1.00  0.00    -0.034 A 
HETATM   21  C   UNL     1      32.503  51.019  41.036  1.00  0.00     0.026 A 
HETATM   22  C   UNL     1      31.912  50.723  38.624  1.00  0.00     0.050 C 
HETATM   23  C   UNL     1      32.384  50.711  42.395  1.00  0.00     0.032 A 
HETATM   24  C   UNL     1      31.526  49.684  42.787  1.00  0.00     0.019 A 
HETATM   25  C   UNL     1      30.759  49.001  41.837  1.00  0.00     0.031 A 
BRANCH  23  26
HETATM   26  C   UNL     1      33.156  51.435  43.447  1.00  0.00     0.251 C 
HETATM   27  N   UNL     1      34.515  51.558  43.232  1.00  0.00    -0.357 N 
HETATM   28  H   UNL     1      34.895  51.319  42.327  1.00  0.00     0.162 HD
HETATM   29  O   UNL     1      32.577  51.916  44.414  1.00  0.00    -0.268 OA
BRANCH  27  30
HETATM   30  C   UNL     1      35.352  52.338  44.120  1.00  0.00     0.118 C 
HETATM   31  C   UNL     1      36.581  52.866  43.403  1.00  0.00     0.026 C 
ENDBRANCH  27  30
ENDBRANCH  23  26
ENDBRANCH   1  19
TORSDOF 7
ENDMDL
MODEL 4
REMARK VINA RESULT:      -8.6      2.031      2.921
REMARK  7 active torsions:
REMARK  status: ('A' for Active; 'I' for Inactive)
REMARK    1  A    between atoms: C_2  and  N_3 
REMARK       I    between atoms: N_3  and  C_4 
REMARK    2  A    between atoms: C_4  and  C_5 
REMARK    3  A    between atoms: C_9  and  N_10 
REMARK       I    between atoms: N_10  and  C_11 
REMARK    4  A    between atoms: C_11  and  C_12 
REMARK    5  A    between atoms: C_12  and  S_13 
REMARK    6  A    between atoms: S_13  and  C_14 
REMARK    7  A    between atoms: C_14  and  C_15 
ROOT
HETATM    1  N   UNL     1      26.217  44.583  51.417  1.00  0.00    -0.326 N 
HETATM    2  C   UNL     1      24.909  44.126  51.499  1.00  0.00     0.231 C 
HETATM    3  O   UNL     1      24.424  43.443  52.395  1.00  0.00    -0.272 OA
HETATM    4  H   UNL     1      26.426  45.153  50.607  1.00  0.00     0.169 HD
ENDROOT
BRANCH   2   5
HETATM    5  C   UNL     1      24.056  44.573  50.314  1.00  0.00     0.177 C 
BRANCH   5   6
HETATM    6  S   UNL     1      25.075  45.643  49.236  1.00  0.00    -0.147 SA
BRANCH   6   7
HETATM    7  C   UNL     1      24.987  47.237  50.140  1.00  0.00     0.113 C 
HETATM    8  C   UNL     1      26.348  47.931  50.161  1.00  0.00     0.029 C 
BRANCH   7   9
HETATM    9  C   UNL     1      23.895  48.137  49.642  1.00  0.00     0.118 A 
HETATM   10  N   UNL     1      23.979  49.435  49.423  1.00  0.00    -0.232 NA
HETATM   11  C   UNL     1      22.716  49.840  49.069  1.00  0.00     0.085 A 
HETATM   12  C   UNL     1      21.838  48.764  49.047  1.00  0.00     0.062 A 
HETATM   13  C   UNL     1      22.239  51.122  48.755  1.00  0.00     0.034 A 
HETATM   14  N   UNL     1      22.610  47.693  49.415  1.00  0.00    -0.342 N 
HETATM   15  C   UNL     1      20.488  48.884  48.713  1.00  0.00     0.032 A 
HETATM   16  H   UNL     1      22.299  46.736  49.503  1.00  0.00     0.167 HD
HETATM   17  C   UNL     1      20.029  50.169  48.402  1.00  0.00     0.002 A 
HETATM   18  C   UNL     1      20.887  51.273  48.426  1.00  0.00     0.002 A 
ENDBRANCH   7   9
ENDBRANCH   6   7
ENDBRANCH   5   6
ENDBRANCH   2   5
BRANCH   1  19
HETATM   19  C   UNL     1      27.255  44.442  52.366  1.00  0.00     0.040 A 
HETATM   20  C   UNL     1      27.253  45.278  53.506  1.00  0.00    -0.034 A 
HETATM   21  C   UNL     1      28.248  45.114  54.493  1.00  0.00     0.026 A 
HETATM   22  C   UNL     1      26.218  46.351  53.716  1.00  0.00     0.050 C 
HETATM   23  C   UNL     1      29.235  44.133  54.360  1.00  0.00     0.032 A 
HETATM   24  C   UNL     1      29.256  43.339  53.214  1.00  0.00     0.019 A 
HETATM   25  C   UNL     1      28.273  43.491  52.230  1.00  0.00     0.031 A 
BRANCH  23  26
HETATM   26  C   UNL     1      30.282  43.911  55.400  1.00  0.00     0.251 C 
HETATM   27  N   UNL     1      30.267  44.776  56.477  1.00  0.00    -0.357 N 
HETATM   28  H   UNL     1      29.475  45.389  56.606  1.00  0.00     0.162 HD
HETATM   29  O   UNL     1      31.070  42.980  55.291  1.00  0.00    -0.268 OA
BRANCH  27  30
HETATM   30  C   UNL     1      31.156  44.592  57.605  1.00  0.00     0.118 C 
HETATM   31  C   UNL     1      30.836  45.563  58.727  1.00  0.00     0.026 C 
ENDBRANCH  27  30
ENDBRANCH  23  26
ENDBRANCH   1  19
TORSDOF 7
ENDMDL
MODEL 5
REMARK VINA RESULT:      -8.6      1.578      2.355
REMARK  7 active torsions:
REMARK  status: ('A' for Active; 'I' for Inactive)
REMARK    1  A    between atoms: C_2  and  N_3 
REMARK       I    between atoms: N_3  and  C_4 
REMARK    2  A    between atoms: C_4  and  C_5 
REMARK    3  A    between atoms: C_9  and  N_10 
REMARK       I    between atoms: N_10  and  C_11 
REMARK    4  A    between atoms: C_11  and  C_12 
REMARK    5  A    between atoms: C_12  and  S_13 
REMARK    6  A    between atoms: S_13  and  C_14 
REMARK    7  A    between atoms: C_14  and  C_15 
ROOT
HETATM    1  N   UNL     1      25.209  46.786  52.130  1.00  0.00    -0.326 N 
HETATM    2  C   UNL     1      25.479  47.401  50.915  1.00  0.00     0.231 C 
HETATM    3  O   UNL     1      26.547  47.891  50.561  1.00  0.00    -0.272 OA
HETATM    4  H   UNL     1      24.269  46.426  52.232  1.00  0.00     0.169 HD
ENDROOT
BRANCH   2   5
HETATM    5  C   UNL     1      24.269  47.420  49.985  1.00  0.00     0.177 C 
BRANCH   5   6
HETATM    6  S   UNL     1      24.422  48.854  48.861  1.00  0.00    -0.147 SA
BRANCH   6   7
HETATM    7  C   UNL     1      22.902  49.793  49.280  1.00  0.00     0.113 C 
HETATM    8  C   UNL     1      22.908  51.168  48.616  1.00  0.00     0.029 C 
BRANCH   7   9
HETATM    9  C   UNL     1      21.643  49.028  49.000  1.00  0.00     0.118 A 
HETATM   10  N   UNL     1      21.371  48.323  47.918  1.00  0.00    -0.232 NA
HETATM   11  C   UNL     1      20.078  47.887  48.067  1.00  0.00     0.085 A 
HETATM   12  C   UNL     1      19.548  48.313  49.278  1.00  0.00     0.062 A 
HETATM   13  C   UNL     1      19.283  47.122  47.201  1.00  0.00     0.034 A 
HETATM   14  N   UNL     1      20.560  49.036  49.853  1.00  0.00    -0.342 N 
HETATM   15  C   UNL     1      18.251  48.009  49.696  1.00  0.00     0.032 A 
HETATM   16  H   UNL     1      20.530  49.496  50.752  1.00  0.00     0.167 HD
HETATM   17  C   UNL     1      17.472  47.244  48.820  1.00  0.00     0.002 A 
HETATM   18  C   UNL     1      17.974  46.810  47.590  1.00  0.00     0.002 A 
ENDBRANCH   7   9
ENDBRANCH   6   7
ENDBRANCH   5   6
ENDBRANCH   2   5
BRANCH   1  19
HETATM   19  C   UNL     1      26.103  46.510  53.190  1.00  0.00     0.040 A 
HETATM   20  C   UNL     1      26.585  45.191  53.347  1.00  0.00    -0.034 A 
HETATM   21  C   UNL     1      27.521  44.907  54.363  1.00  0.00     0.026 A 
HETATM   22  C   UNL     1      26.136  44.058  52.461  1.00  0.00     0.050 C 
HETATM   23  C   UNL     1      27.982  45.914  55.217  1.00  0.00     0.032 A 
HETATM   24  C   UNL     1      27.472  47.205  55.083  1.00  0.00     0.019 A 
HETATM   25  C   UNL     1      26.544  47.499  54.077  1.00  0.00     0.031 A 
BRANCH  23  26
HETATM   26  C   UNL     1      28.996  45.656  56.280  1.00  0.00     0.251 C 
HETATM   27  N   UNL     1      30.056  44.843  55.929  1.00  0.00    -0.357 N 
HETATM   28  H   UNL     1      30.195  44.606  54.957  1.00  0.00     0.162 HD
HETATM   29  O   UNL     1      28.883  46.183  57.380  1.00  0.00    -0.268 OA
BRANCH  27  30
HETATM   30  C   UNL     1      31.163  44.612  56.835  1.00  0.00     0.118 C 
HETATM   31  C   UNL     1      31.405  43.128  57.047  1.00  0.00     0.026 C 
ENDBRANCH  27  30
ENDBRANCH  23  26
ENDBRANCH   1  19
TORSDOF 7
ENDMDL
MODEL 6
REMARK VINA RESULT:      -8.6     12.194     14.885
REMARK  7 active torsions:
REMARK  status: ('A' for Active; 'I' for Inactive)
REMARK    1  A    between atoms: C_2  and  N_3 
REMARK       I    between atoms: N_3  and  C_4 
REMARK    2  A    between atoms: C_4  and  C_5 
REMARK    3  A    between atoms: C_9  and  N_10 
REMARK       I    between atoms: N_10  and  C_11 
REMARK    4  A    between atoms: C_11  and  C_12 
REMARK    5  A    between atoms: C_12  and  S_13 
REMARK    6  A    between atoms: S_13  and  C_14 
REMARK    7  A    between atoms: C_14  and  C_15 
ROOT
HETATM    1  N   UNL     1      28.622  50.689  39.827  1.00  0.00    -0.326 N 
HETATM    2  C   UNL     1      27.588  50.551  38.911  1.00  0.00     0.231 C 
HETATM    3  O   UNL     1      27.587  50.922  37.741  1.00  0.00    -0.272 OA
HETATM    4  H   UNL     1      28.441  50.302  40.744  1.00  0.00     0.169 HD
ENDROOT
BRANCH   2   5
HETATM    5  C   UNL     1      26.369  49.850  39.504  1.00  0.00     0.177 C 
BRANCH   5   6
HETATM    6  S   UNL     1      26.507  48.058  39.166  1.00  0.00    -0.147 SA
BRANCH   6   7
HETATM    7  C   UNL     1      27.028  47.430  40.810  1.00  0.00     0.113 C 
HETATM    8  C   UNL     1      26.748  45.934  40.938  1.00  0.00     0.029 C 
BRANCH   7   9
HETATM    9  C   UNL     1      28.447  47.778  41.149  1.00  0.00     0.118 A 
HETATM   10  N   UNL     1      28.855  48.567  42.124  1.00  0.00    -0.232 NA
HETATM   11  C   UNL     1      30.218  48.661  41.987  1.00  0.00     0.085 A 
HETATM   12  C   UNL     1      30.663  47.896  40.917  1.00  0.00     0.062 A 
HETATM   13  C   UNL     1      31.148  49.392  42.742  1.00  0.00     0.034 A 
HETATM   14  N   UNL     1      29.520  47.344  40.400  1.00  0.00    -0.342 N 
HETATM   15  C   UNL     1      32.007  47.799  40.550  1.00  0.00     0.032 A 
HETATM   16  H   UNL     1      29.464  46.720  39.607  1.00  0.00     0.167 HD
HETATM   17  C   UNL     1      32.920  48.534  41.314  1.00  0.00     0.002 A 
HETATM   18  C   UNL     1      32.501  49.322  42.390  1.00  0.00     0.002 A 
ENDBRANCH   7   9
ENDBRANCH   6   7
ENDBRANCH   5   6
ENDBRANCH   2   5
BRANCH   1  19
HETATM   19  C   UNL     1      29.921  51.204  39.610  1.00  0.00     0.040 A 
HETATM   20  C   UNL     1      30.428  52.171  40.508  1.00  0.00    -0.034 A 
HETATM   21  C   UNL     1      31.743  52.655  40.341  1.00  0.00     0.026 A 
HETATM   22  C   UNL     1      29.614  52.713  41.652  1.00  0.00     0.050 C 
HETATM   23  C   UNL     1      32.553  52.188  39.301  1.00  0.00     0.032 A 
HETATM   24  C   UNL     1      32.033  51.265  38.395  1.00  0.00     0.019 A 
HETATM   25  C   UNL     1      30.731  50.776  38.551  1.00  0.00     0.031 A 
BRANCH  23  26
HETATM   26  C   UNL     1      33.958  52.654  39.116  1.00  0.00     0.251 C 
HETATM   27  N   UNL     1      34.179  54.008  39.274  1.00  0.00    -0.357 N 
HETATM   28  H   UNL     1      33.448  54.584  39.667  1.00  0.00     0.162 HD
HETATM   29  O   UNL     1      34.848  51.847  38.875  1.00  0.00    -0.268 OA
BRANCH  27  30
HETATM   30  C   UNL     1      35.516  54.565  39.234  1.00  0.00     0.118 C 
HETATM   31  C   UNL     1      35.483  56.079  39.127  1.00  0.00     0.026 C 
ENDBRANCH  27  30
ENDBRANCH  23  26
ENDBRANCH   1  19
TORSDOF 7
ENDMDL
MODEL 7
REMARK VINA RESULT:      -8.6      5.133      9.847
REMARK  7 active torsions:
REMARK  status: ('A' for Active; 'I' for Inactive)
REMARK    1  A    between atoms: C_2  and  N_3 
REMARK       I    between atoms: N_3  and  C_4 
REMARK    2  A    between atoms: C_4  and  C_5 
REMARK    3  A    between atoms: C_9  and  N_10 
REMARK       I    between atoms: N_10  and  C_11 
REMARK    4  A    between atoms: C_11  and  C_12 
REMARK    5  A    between atoms: C_12  and  S_13 
REMARK    6  A    between atoms: S_13  and  C_14 
REMARK    7  A    between atoms: C_14  and  C_15 
ROOT
HETATM    1  N   UNL     1      27.041  43.879  51.196  1.00  0.00    -0.326 N 
HETATM    2  C   UNL     1      25.978  44.400  51.921  1.00  0.00     0.231 C 
HETATM    3  O   UNL     1      24.954  43.811  52.251  1.00  0.00    -0.272 OA
HETATM    4  H   UNL     1      27.810  44.516  51.037  1.00  0.00     0.169 HD
ENDROOT
BRANCH   2   5
HETATM    5  C   UNL     1      26.195  45.860  52.311  1.00  0.00     0.177 C 
BRANCH   5   6
HETATM    6  S   UNL     1      25.776  46.058  54.080  1.00  0.00    -0.147 SA
BRANCH   6   7
HETATM    7  C   UNL     1      27.207  47.043  54.671  1.00  0.00     0.113 C 
HETATM    8  C   UNL     1      26.743  48.239  55.500  1.00  0.00     0.029 C 
BRANCH   7   9
HETATM    9  C   UNL     1      28.236  46.216  55.384  1.00  0.00     0.118 A 
HETATM   10  N   UNL     1      28.718  46.428  56.594  1.00  0.00    -0.232 NA
HETATM   11  C   UNL     1      29.693  45.480  56.782  1.00  0.00     0.085 A 
HETATM   12  C   UNL     1      29.799  44.651  55.673  1.00  0.00     0.062 A 
HETATM   13  C   UNL     1      30.539  45.268  57.881  1.00  0.00     0.034 A 
HETATM   14  N   UNL     1      28.863  45.138  54.799  1.00  0.00    -0.342 N 
HETATM   15  C   UNL     1      30.706  43.593  55.591  1.00  0.00     0.032 A 
HETATM   16  H   UNL     1      28.657  44.773  53.879  1.00  0.00     0.167 HD
HETATM   17  C   UNL     1      31.542  43.395  56.696  1.00  0.00     0.002 A 
HETATM   18  C   UNL     1      31.466  44.220  57.822  1.00  0.00     0.002 A 
ENDBRANCH   7   9
ENDBRANCH   6   7
ENDBRANCH   5   6
ENDBRANCH   2   5
BRANCH   1  19
HETATM   19  C   UNL     1      27.227  42.550  50.748  1.00  0.00     0.040 A 
HETATM   20  C   UNL     1      28.162  41.730  51.421  1.00  0.00    -0.034 A 
HETATM   21  C   UNL     1      28.321  40.386  51.026  1.00  0.00     0.026 A 
HETATM   22  C   UNL     1      29.006  42.238  52.560  1.00  0.00     0.050 C 
HETATM   23  C   UNL     1      27.565  39.851  49.978  1.00  0.00     0.032 A 
HETATM   24  C   UNL     1      26.675  40.676  49.291  1.00  0.00     0.019 A 
HETATM   25  C   UNL     1      26.507  42.012  49.676  1.00  0.00     0.031 A 
BRANCH  23  26
HETATM   26  C   UNL     1      27.684  38.425  49.555  1.00  0.00     0.251 C 
HETATM   27  N   UNL     1      26.513  37.801  49.174  1.00  0.00    -0.357 N 
HETATM   28  H   UNL     1      25.682  38.357  49.031  1.00  0.00     0.162 HD
HETATM   29  O   UNL     1      28.782  37.882  49.524  1.00  0.00    -0.268 OA
BRANCH  27  30
HETATM   30  C   UNL     1      26.515  36.457  48.634  1.00  0.00     0.118 C 
HETATM   31  C   UNL     1      26.712  36.464  47.129  1.00  0.00     0.026 C 
ENDBRANCH  27  30
ENDBRANCH  23  26
ENDBRANCH   1  19
TORSDOF 7
ENDMDL
MODEL 8
REMARK VINA RESULT:      -8.6      2.770     10.046
REMARK  7 active torsions:
REMARK  status: ('A' for Active; 'I' for Inactive)
REMARK    1  A    between atoms: C_2  and  N_3 
REMARK       I    between atoms: N_3  and  C_4 
REMARK    2  A    between atoms: C_4  and  C_5 
REMARK    3  A    between atoms: C_9  and  N_10 
REMARK       I    between atoms: N_10  and  C_11 
REMARK    4  A    between atoms: C_11  and  C_12 
REMARK    5  A    between atoms: C_12  and  S_13 
REMARK    6  A    between atoms: S_13  and  C_14 
REMARK    7  A    between atoms: C_14  and  C_15 
ROOT
HETATM    1  N   UNL     1      24.906  47.693  49.025  1.00  0.00    -0.326 N 
HETATM    2  C   UNL     1      25.436  47.282  50.241  1.00  0.00     0.231 C 
HETATM    3  O   UNL     1      25.026  47.578  51.359  1.00  0.00    -0.272 OA
HETATM    4  H   UNL     1      25.373  47.328  48.205  1.00  0.00     0.169 HD
ENDROOT
BRANCH   2   5
HETATM    5  C   UNL     1      26.647  46.368  50.074  1.00  0.00     0.177 C 
BRANCH   5   6
HETATM    6  S   UNL     1      26.061  44.720  49.538  1.00  0.00    -0.147 SA
BRANCH   6   7
HETATM    7  C   UNL     1      25.539  43.995  51.141  1.00  0.00     0.113 C 
HETATM    8  C   UNL     1      24.817  42.666  50.931  1.00  0.00     0.029 C 
BRANCH   7   9
HETATM    9  C   UNL     1      26.661  43.886  52.130  1.00  0.00     0.118 A 
HETATM   10  N   UNL     1      26.780  44.548  53.266  1.00  0.00    -0.232 NA
HETATM   11  C   UNL     1      28.003  44.196  53.782  1.00  0.00     0.085 A 
HETATM   12  C   UNL     1      28.643  43.279  52.957  1.00  0.00     0.062 A 
HETATM   13  C   UNL     1      28.640  44.625  54.955  1.00  0.00     0.034 A 
HETATM   14  N   UNL     1      27.772  43.099  51.915  1.00  0.00    -0.342 N 
HETATM   15  C   UNL     1      29.900  42.742  53.240  1.00  0.00     0.032 A 
HETATM   16  H   UNL     1      27.909  42.489  51.121  1.00  0.00     0.167 HD
HETATM   17  C   UNL     1      30.521  43.181  54.415  1.00  0.00     0.002 A 
HETATM   18  C   UNL     1      29.906  44.110  55.259  1.00  0.00     0.002 A 
ENDBRANCH   7   9
ENDBRANCH   6   7
ENDBRANCH   5   6
ENDBRANCH   2   5
BRANCH   1  19
HETATM   19  C   UNL     1      23.744  48.464  48.792  1.00  0.00     0.040 A 
HETATM   20  C   UNL     1      23.881  49.730  48.177  1.00  0.00    -0.034 A 
HETATM   21  C   UNL     1      22.729  50.490  47.885  1.00  0.00     0.026 A 
HETATM   22  C   UNL     1      25.222  50.310  47.816  1.00  0.00     0.050 C 
HETATM   23  C   UNL     1      21.453  50.007  48.192  1.00  0.00     0.032 A 
HETATM   24  C   UNL     1      21.328  48.776  48.835  1.00  0.00     0.019 A 
HETATM   25  C   UNL     1      22.463  48.012  49.128  1.00  0.00     0.031 A 
BRANCH  23  26
HETATM   26  C   UNL     1      20.213  50.770  47.867  1.00  0.00     0.251 C 
HETATM   27  N   UNL     1      19.919  51.839  48.691  1.00  0.00    -0.357 N 
HETATM   28  H   UNL     1      20.616  52.161  49.347  1.00  0.00     0.162 HD
HETATM   29  O   UNL     1      19.537  50.461  46.892  1.00  0.00    -0.268 OA
BRANCH  27  30
HETATM   30  C   UNL     1      18.809  52.726  48.410  1.00  0.00     0.118 C 
HETATM   31  C   UNL     1      17.682  52.537  49.409  1.00  0.00     0.026 C 
ENDBRANCH  27  30
ENDBRANCH  23  26
ENDBRANCH   1  19
TORSDOF 7
ENDMDL
MODEL 9
REMARK VINA RESULT:      -8.5      3.239      9.336
REMARK  7 active torsions:
REMARK  status: ('A' for Active; 'I' for Inactive)
REMARK    1  A    between atoms: C_2  and  N_3 
REMARK       I    between atoms: N_3  and  C_4 
REMARK    2  A    between atoms: C_4  and  C_5 
REMARK    3  A    between atoms: C_9  and  N_10 
REMARK       I    between atoms: N_10  and  C_11 
REMARK    4  A    between atoms: C_11  and  C_12 
REMARK    5  A    between atoms: C_12  and  S_13 
REMARK    6  A    between atoms: S_13  and  C_14 
REMARK    7  A    between atoms: C_14  and  C_15 
ROOT
HETATM    1  N   UNL     1      24.622  43.873  49.049  1.00  0.00    -0.326 N 
HETATM    2  C   UNL     1      24.346  42.808  49.896  1.00  0.00     0.231 C 
HETATM    3  O   UNL     1      23.753  42.856  50.969  1.00  0.00    -0.272 OA
HETATM    4  H   UNL     1      25.107  43.631  48.195  1.00  0.00     0.169 HD
ENDROOT
BRANCH   2   5
HETATM    5  C   UNL     1      24.865  41.478  49.354  1.00  0.00     0.177 C 
BRANCH   5   6
HETATM    6  S   UNL     1      26.639  41.667  48.952  1.00  0.00    -0.147 SA
BRANCH   6   7
HETATM    7  C   UNL     1      27.408  40.668  50.285  1.00  0.00     0.113 C 
HETATM    8  C   UNL     1      28.517  39.776  49.731  1.00  0.00     0.029 C 
BRANCH   7   9
HETATM    9  C   UNL     1      27.868  41.495  51.449  1.00  0.00     0.118 A 
HETATM   10  N   UNL     1      27.171  42.415  52.088  1.00  0.00    -0.232 NA
HETATM   11  C   UNL     1      28.028  42.966  53.008  1.00  0.00     0.085 A 
HETATM   12  C   UNL     1      29.275  42.358  52.951  1.00  0.00     0.062 A 
HETATM   13  C   UNL     1      27.811  44.002  53.930  1.00  0.00     0.034 A 
HETATM   14  N   UNL     1      29.149  41.427  51.953  1.00  0.00    -0.342 N 
HETATM   15  C   UNL     1      30.340  42.714  53.780  1.00  0.00     0.032 A 
HETATM   16  H   UNL     1      29.867  40.790  51.637  1.00  0.00     0.167 HD
HETATM   17  C   UNL     1      30.106  43.748  54.693  1.00  0.00     0.002 A 
HETATM   18  C   UNL     1      28.865  44.387  54.767  1.00  0.00     0.002 A 
ENDBRANCH   7   9
ENDBRANCH   6   7
ENDBRANCH   5   6
ENDBRANCH   2   5
BRANCH   1  19
HETATM   19  C   UNL     1      24.221  45.223  49.181  1.00  0.00     0.040 A 
HETATM   20  C   UNL     1      25.099  46.134  49.812  1.00  0.00    -0.034 A 
HETATM   21  C   UNL     1      24.741  47.496  49.903  1.00  0.00     0.026 A 
HETATM   22  C   UNL     1      26.417  45.707  50.400  1.00  0.00     0.050 C 
HETATM   23  C   UNL     1      23.532  47.958  49.373  1.00  0.00     0.032 A 
HETATM   24  C   UNL     1      22.654  47.047  48.788  1.00  0.00     0.019 A 
HETATM   25  C   UNL     1      22.998  45.693  48.691  1.00  0.00     0.031 A 
BRANCH  23  26
HETATM   26  C   UNL     1      23.139  49.396  49.423  1.00  0.00     0.251 C 
HETATM   27  N   UNL     1      21.807  49.656  49.684  1.00  0.00    -0.357 N 
HETATM   28  H   UNL     1      21.209  48.903  49.994  1.00  0.00     0.162 HD
HETATM   29  O   UNL     1      23.983  50.271  49.274  1.00  0.00    -0.268 OA
BRANCH  27  30
HETATM   30  C   UNL     1      21.325  51.009  49.872  1.00  0.00     0.118 C 
HETATM   31  C   UNL     1      20.171  51.322  48.937  1.00  0.00     0.026 C 
ENDBRANCH  27  30
ENDBRANCH  23  26
ENDBRANCH   1  19
TORSDOF 7
ENDMDL
MODEL 10
REMARK VINA RESULT:      -8.5      1.522      2.009
REMARK  7 active torsions:
REMARK  status: ('A' for Active; 'I' for Inactive)
REMARK    1  A    between atoms: C_2  and  N_3 
REMARK       I    between atoms: N_3  and  C_4 
REMARK    2  A    between atoms: C_4  and  C_5 
REMARK    3  A    between atoms: C_9  and  N_10 
REMARK       I    between atoms: N_10  and  C_11 
REMARK    4  A    between atoms: C_11  and  C_12 
REMARK    5  A    between atoms: C_12  and  S_13 
REMARK    6  A    between atoms: S_13  and  C_14 
REMARK    7  A    between atoms: C_14  and  C_15 
ROOT
HETATM    1  N   UNL     1      25.600  45.184  51.349  1.00  0.00    -0.326 N 
HETATM    2  C   UNL     1      24.602  44.249  51.114  1.00  0.00     0.231 C 
HETATM    3  O   UNL     1      24.380  43.232  51.763  1.00  0.00    -0.272 OA
HETATM    4  H   UNL     1      25.614  45.971  50.713  1.00  0.00     0.169 HD
ENDROOT
BRANCH   2   5
HETATM    5  C   UNL     1      23.736  44.606  49.908  1.00  0.00     0.177 C 
BRANCH   5   6
HETATM    6  S   UNL     1      23.895  46.400  49.590  1.00  0.00    -0.147 SA
BRANCH   6   7
HETATM    7  C   UNL     1      22.691  46.621  48.223  1.00  0.00     0.113 C 
HETATM    8  C   UNL     1      21.845  45.365  48.029  1.00  0.00     0.029 C 
BRANCH   7   9
HETATM    9  C   UNL     1      21.853  47.857  48.372  1.00  0.00     0.118 A 
HETATM   10  N   UNL     1      21.140  48.446  47.430  1.00  0.00    -0.232 NA
HETATM   11  C   UNL     1      20.627  49.584  48.002  1.00  0.00     0.085 A 
HETATM   12  C   UNL     1      21.015  49.688  49.331  1.00  0.00     0.062 A 
HETATM   13  C   UNL     1      19.821  50.585  47.441  1.00  0.00     0.034 A 
HETATM   14  N   UNL     1      21.793  48.581  49.543  1.00  0.00    -0.342 N 
HETATM   15  C   UNL     1      20.632  50.745  50.161  1.00  0.00     0.032 A 
HETATM   16  H   UNL     1      22.246  48.326  50.410  1.00  0.00     0.167 HD
HETATM   17  C   UNL     1      19.827  51.735  49.585  1.00  0.00     0.002 A 
HETATM   18  C   UNL     1      19.430  51.662  48.247  1.00  0.00     0.002 A 
ENDBRANCH   7   9
ENDBRANCH   6   7
ENDBRANCH   5   6
ENDBRANCH   2   5
BRANCH   1  19
HETATM   19  C   UNL     1      26.525  45.228  52.418  1.00  0.00     0.040 A 
HETATM   20  C   UNL     1      26.437  46.288  53.349  1.00  0.00    -0.034 A 
HETATM   21  C   UNL     1      27.313  46.320  54.454  1.00  0.00     0.026 A 
HETATM   22  C   UNL     1      25.433  47.402  53.211  1.00  0.00     0.050 C 
HETATM   23  C   UNL     1      28.266  45.314  54.643  1.00  0.00     0.032 A 
HETATM   24  C   UNL     1      28.375  44.293  53.699  1.00  0.00     0.019 A 
HETATM   25  C   UNL     1      27.510  44.251  52.600  1.00  0.00     0.031 A 
BRANCH  23  26
HETATM   26  C   UNL     1      29.186  45.298  55.818  1.00  0.00     0.251 C 
HETATM   27  N   UNL     1      30.251  44.420  55.749  1.00  0.00    -0.357 N 
HETATM   28  H   UNL     1      30.460  43.968  54.870  1.00  0.00     0.162 HD
HETATM   29  O   UNL     1      29.000  46.063  56.756  1.00  0.00    -0.268 OA
BRANCH  27  30
HETATM   30  C   UNL     1      31.276  44.395  56.771  1.00  0.00     0.118 C 
HETATM   31  C   UNL     1      31.669  42.973  57.128  1.00  0.00     0.026 C 
ENDBRANCH  27  30
ENDBRANCH  23  26
ENDBRANCH   1  19
TORSDOF 7
ENDMDL
