MODEL 1
REMARK VINA RESULT:      -8.5      0.000      0.000
REMARK  6 active torsions:
REMARK  status: ('A' for Active; 'I' for Inactive)
REMARK    1  A    between atoms: C_2  and  N_3 
REMARK    2  A    between atoms: C_2  and  C_11 
REMARK       I    between atoms: N_3  and  C_4 
REMARK    3  A    between atoms: C_4  and  C_5 
REMARK    4  A    between atoms: C_14  and  O_15 
REMARK    5  A    between atoms: O_15  and  C_16 
REMARK    6  A    between atoms: C_16  and  C_17 
ROOT
HETATM    1  C   UNL     1      26.469  47.109  50.036  1.00  0.00    -0.036 A 
HETATM    2  C   UNL     1      25.885  47.272  51.303  1.00  0.00     0.012 A 
HETATM    3  C   UNL     1      25.807  46.203  52.205  1.00  0.00     0.037 A 
HETATM    4  C   UNL     1      26.313  44.954  51.853  1.00  0.00     0.069 A 
HETATM    5  C   UNL     1      26.937  44.795  50.615  1.00  0.00     0.037 A 
HETATM    6  C   UNL     1      27.019  45.859  49.715  1.00  0.00     0.012 A 
ENDROOT
BRANCH   1   7
HETATM    7  C   UNL     1      26.525  48.282  49.070  1.00  0.00     0.113 C 
HETATM    8  C   UNL     1      27.796  49.122  49.252  1.00  0.00     0.037 C 
BRANCH   7   9
HETATM    9  N   UNL     1      25.319  49.083  49.211  1.00  0.00    -0.352 N 
HETATM   10  C   UNL     1      24.880  49.918  48.212  1.00  0.00     0.225 C 
HETATM   11  O   UNL     1      25.465  50.079  47.150  1.00  0.00    -0.273 OA
HETATM   12  H   UNL     1      24.785  48.982  50.062  1.00  0.00     0.163 HD
BRANCH  10  13
HETATM   13  C   UNL     1      23.642  50.664  48.537  1.00  0.00     0.119 A 
HETATM   14  C   UNL     1      22.389  49.975  49.008  1.00  0.00     0.126 A 
HETATM   15 CL   UNL     1      22.282  48.234  49.171  1.00  0.00    -0.101 Cl
HETATM   16 CL   UNL     1      21.401  50.832  50.200  1.00  0.00    -0.101 Cl
HETATM   17  C   UNL     1      22.443  50.558  47.623  1.00  0.00     0.060 A 
ENDBRANCH  10  13
ENDBRANCH   7   9
ENDBRANCH   1   7
BRANCH   4  18
HETATM   18  O   UNL     1      26.275  43.825  52.621  1.00  0.00    -0.347 OA
BRANCH  18  19
HETATM   19  C   UNL     1      26.297  44.006  54.037  1.00  0.00     0.215 C 
BRANCH  19  20
HETATM   20  C   UNL     1      27.730  44.052  54.491  1.00  0.00    -0.017 A 
HETATM   21  C   UNL     1      28.226  45.133  55.213  1.00  0.00     0.125 A 
HETATM   22  N   UNL     1      29.492  45.217  55.681  1.00  0.00    -0.272 NA
HETATM   23  C   UNL     1      30.308  44.175  55.414  1.00  0.00     0.116 A 
HETATM   24  C   UNL     1      29.918  43.052  54.707  1.00  0.00     0.020 A 
HETATM   25  C   UNL     1      28.607  42.992  54.243  1.00  0.00     0.012 A 
ENDBRANCH  19  20
ENDBRANCH  18  19
ENDBRANCH   4  18
TORSDOF 6
ENDMDL
MODEL 2
REMARK VINA RESULT:      -7.9      3.368      8.205
REMARK  6 active torsions:
REMARK  status: ('A' for Active; 'I' for Inactive)
REMARK    1  A    between atoms: C_2  and  N_3 
REMARK    2  A    between atoms: C_2  and  C_11 
REMARK       I    between atoms: N_3  and  C_4 
REMARK    3  A    between atoms: C_4  and  C_5 
REMARK    4  A    between atoms: C_14  and  O_15 
REMARK    5  A    between atoms: O_15  and  C_16 
REMARK    6  A    between atoms: C_16  and  C_17 
ROOT
HETATM    1  C   UNL     1      27.289  43.775  52.135  1.00  0.00    -0.036 A 
HETATM    2  C   UNL     1      26.229  44.431  52.781  1.00  0.00     0.012 A 
HETATM    3  C   UNL     1      25.292  45.177  52.055  1.00  0.00     0.037 A 
HETATM    4  C   UNL     1      25.401  45.279  50.670  1.00  0.00     0.069 A 
HETATM    5  C   UNL     1      26.424  44.591  50.015  1.00  0.00     0.037 A 
HETATM    6  C   UNL     1      27.357  43.844  50.736  1.00  0.00     0.012 A 
ENDROOT
BRANCH   1   7
HETATM    7  C   UNL     1      28.301  42.985  52.950  1.00  0.00     0.113 C 
HETATM    8  C   UNL     1      27.873  41.525  53.147  1.00  0.00     0.037 C 
BRANCH   7   9
HETATM    9  N   UNL     1      28.535  43.659  54.216  1.00  0.00    -0.352 N 
HETATM   10  C   UNL     1      29.782  43.721  54.788  1.00  0.00     0.225 C 
HETATM   11  O   UNL     1      30.781  43.203  54.307  1.00  0.00    -0.273 OA
HETATM   12  H   UNL     1      27.750  44.118  54.656  1.00  0.00     0.163 HD
BRANCH  10  13
HETATM   13  C   UNL     1      29.829  44.436  56.084  1.00  0.00     0.119 A 
HETATM   14  C   UNL     1      29.260  45.820  56.259  1.00  0.00     0.126 A 
HETATM   15 CL   UNL     1      28.536  46.709  54.934  1.00  0.00    -0.101 Cl
HETATM   16 CL   UNL     1      28.507  46.188  57.817  1.00  0.00    -0.101 Cl
HETATM   17  C   UNL     1      30.750  45.622  56.253  1.00  0.00     0.060 A 
ENDBRANCH  10  13
ENDBRANCH   7   9
ENDBRANCH   1   7
BRANCH   4  18
HETATM   18  O   UNL     1      24.579  45.996  49.849  1.00  0.00    -0.347 OA
BRANCH  18  19
HETATM   19  C   UNL     1      24.233  47.314  50.272  1.00  0.00     0.215 C 
BRANCH  19  20
HETATM   20  C   UNL     1      24.934  48.303  49.382  1.00  0.00    -0.017 A 
HETATM   21  C   UNL     1      24.227  49.102  48.490  1.00  0.00     0.125 A 
HETATM   22  N   UNL     1      24.795  50.034  47.690  1.00  0.00    -0.272 NA
HETATM   23  C   UNL     1      26.134  50.176  47.781  1.00  0.00     0.116 A 
HETATM   24  C   UNL     1      26.932  49.437  48.634  1.00  0.00     0.020 A 
HETATM   25  C   UNL     1      26.319  48.488  49.449  1.00  0.00     0.012 A 
ENDBRANCH  19  20
ENDBRANCH  18  19
ENDBRANCH   4  18
TORSDOF 6
ENDMDL
MODEL 3
REMARK VINA RESULT:      -7.9      1.965      2.324
REMARK  6 active torsions:
REMARK  status: ('A' for Active; 'I' for Inactive)
REMARK    1  A    between atoms: C_2  and  N_3 
REMARK    2  A    between atoms: C_2  and  C_11 
REMARK       I    between atoms: N_3  and  C_4 
REMARK    3  A    between atoms: C_4  and  C_5 
REMARK    4  A    between atoms: C_14  and  O_15 
REMARK    5  A    between atoms: O_15  and  C_16 
REMARK    6  A    between atoms: C_16  and  C_17 
ROOT
HETATM    1  C   UNL     1      24.974  46.747  50.779  1.00  0.00    -0.036 A 
HETATM    2  C   UNL     1      24.539  45.418  50.911  1.00  0.00     0.012 A 
HETATM    3  C   UNL     1      24.939  44.633  51.999  1.00  0.00     0.037 A 
HETATM    4  C   UNL     1      25.781  45.164  52.973  1.00  0.00     0.069 A 
HETATM    5  C   UNL     1      26.180  46.497  52.875  1.00  0.00     0.037 A 
HETATM    6  C   UNL     1      25.781  47.284  51.793  1.00  0.00     0.012 A 
ENDROOT
BRANCH   1   7
HETATM    7  C   UNL     1      24.537  47.572  49.578  1.00  0.00     0.113 C 
HETATM    8  C   UNL     1      25.553  48.667  49.229  1.00  0.00     0.037 C 
BRANCH   7   9
HETATM    9  N   UNL     1      23.212  48.117  49.822  1.00  0.00    -0.352 N 
HETATM   10  C   UNL     1      22.307  48.310  48.807  1.00  0.00     0.225 C 
HETATM   11  O   UNL     1      22.539  48.070  47.630  1.00  0.00    -0.273 OA
HETATM   12  H   UNL     1      22.957  48.323  50.778  1.00  0.00     0.163 HD
BRANCH  10  13
HETATM   13  C   UNL     1      21.013  48.887  49.240  1.00  0.00     0.119 A 
HETATM   14  C   UNL     1      19.742  48.079  49.266  1.00  0.00     0.126 A 
HETATM   15 CL   UNL     1      19.685  46.405  48.750  1.00  0.00    -0.101 Cl
HETATM   16 CL   UNL     1      18.595  48.428  50.567  1.00  0.00    -0.101 Cl
HETATM   17  C   UNL     1      19.928  49.141  48.219  1.00  0.00     0.060 A 
ENDBRANCH  10  13
ENDBRANCH   7   9
ENDBRANCH   1   7
BRANCH   4  18
HETATM   18  O   UNL     1      26.270  44.502  54.063  1.00  0.00    -0.347 OA
BRANCH  18  19
HETATM   19  C   UNL     1      27.265  43.507  53.821  1.00  0.00     0.215 C 
BRANCH  19  20
HETATM   20  C   UNL     1      28.509  43.881  54.579  1.00  0.00    -0.017 A 
HETATM   21  C   UNL     1      28.606  45.091  55.259  1.00  0.00     0.125 A 
HETATM   22  N   UNL     1      29.681  45.469  55.988  1.00  0.00    -0.272 NA
HETATM   23  C   UNL     1      30.713  44.601  56.041  1.00  0.00     0.116 A 
HETATM   24  C   UNL     1      30.721  43.373  55.405  1.00  0.00     0.020 A 
HETATM   25  C   UNL     1      29.598  43.009  54.667  1.00  0.00     0.012 A 
ENDBRANCH  19  20
ENDBRANCH  18  19
ENDBRANCH   4  18
TORSDOF 6
ENDMDL
MODEL 4
REMARK VINA RESULT:      -7.8      2.267      2.812
REMARK  6 active torsions:
REMARK  status: ('A' for Active; 'I' for Inactive)
REMARK    1  A    between atoms: C_2  and  N_3 
REMARK    2  A    between atoms: C_2  and  C_11 
REMARK       I    between atoms: N_3  and  C_4 
REMARK    3  A    between atoms: C_4  and  C_5 
REMARK    4  A    between atoms: C_14  and  O_15 
REMARK    5  A    between atoms: O_15  and  C_16 
REMARK    6  A    between atoms: C_16  and  C_17 
ROOT
HETATM    1  C   UNL     1      25.381  45.788  51.843  1.00  0.00    -0.036 A 
HETATM    2  C   UNL     1      25.954  46.973  52.332  1.00  0.00     0.012 A 
HETATM    3  C   UNL     1      26.685  46.982  53.527  1.00  0.00     0.037 A 
HETATM    4  C   UNL     1      26.854  45.805  54.252  1.00  0.00     0.069 A 
HETATM    5  C   UNL     1      26.328  44.614  53.749  1.00  0.00     0.037 A 
HETATM    6  C   UNL     1      25.602  44.601  52.557  1.00  0.00     0.012 A 
ENDROOT
BRANCH   1   7
HETATM    7  C   UNL     1      24.578  45.811  50.552  1.00  0.00     0.113 C 
HETATM    8  C   UNL     1      25.347  45.182  49.382  1.00  0.00     0.037 C 
BRANCH   7   9
HETATM    9  N   UNL     1      24.166  47.174  50.262  1.00  0.00    -0.352 N 
HETATM   10  C   UNL     1      23.231  47.462  49.298  1.00  0.00     0.225 C 
HETATM   11  O   UNL     1      22.693  46.618  48.595  1.00  0.00    -0.273 OA
HETATM   12  H   UNL     1      24.567  47.915  50.820  1.00  0.00     0.163 HD
BRANCH  10  13
HETATM   13  C   UNL     1      22.945  48.906  49.131  1.00  0.00     0.119 A 
HETATM   14  C   UNL     1      21.545  49.459  49.187  1.00  0.00     0.126 A 
HETATM   15 CL   UNL     1      20.141  48.435  49.412  1.00  0.00    -0.101 Cl
HETATM   16 CL   UNL     1      21.342  51.059  49.912  1.00  0.00    -0.101 Cl
HETATM   17  C   UNL     1      22.270  49.395  47.871  1.00  0.00     0.060 A 
ENDBRANCH  10  13
ENDBRANCH   7   9
ENDBRANCH   1   7
BRANCH   4  18
HETATM   18  O   UNL     1      27.513  45.680  55.442  1.00  0.00    -0.347 OA
BRANCH  18  19
HETATM   19  C   UNL     1      28.773  46.341  55.554  1.00  0.00     0.215 C 
BRANCH  19  20
HETATM   20  C   UNL     1      29.760  45.389  56.171  1.00  0.00    -0.017 A 
HETATM   21  C   UNL     1      30.269  45.600  57.448  1.00  0.00     0.125 A 
HETATM   22  N   UNL     1      31.129  44.762  58.072  1.00  0.00    -0.272 NA
HETATM   23  C   UNL     1      31.505  43.660  57.389  1.00  0.00     0.116 A 
HETATM   24  C   UNL     1      31.059  43.352  56.117  1.00  0.00     0.020 A 
HETATM   25  C   UNL     1      30.170  44.231  55.502  1.00  0.00     0.012 A 
ENDBRANCH  19  20
ENDBRANCH  18  19
ENDBRANCH   4  18
TORSDOF 6
ENDMDL
MODEL 5
REMARK VINA RESULT:      -7.7      3.731      8.880
REMARK  6 active torsions:
REMARK  status: ('A' for Active; 'I' for Inactive)
REMARK    1  A    between atoms: C_2  and  N_3 
REMARK    2  A    between atoms: C_2  and  C_11 
REMARK       I    between atoms: N_3  and  C_4 
REMARK    3  A    between atoms: C_4  and  C_5 
REMARK    4  A    between atoms: C_14  and  O_15 
REMARK    5  A    between atoms: O_15  and  C_16 
REMARK    6  A    between atoms: C_16  and  C_17 
ROOT
HETATM    1  C   UNL     1      24.952  48.355  49.391  1.00  0.00    -0.036 A 
HETATM    2  C   UNL     1      24.767  49.554  48.684  1.00  0.00     0.012 A 
HETATM    3  C   UNL     1      23.558  49.828  48.032  1.00  0.00     0.037 A 
HETATM    4  C   UNL     1      22.514  48.907  48.077  1.00  0.00     0.069 A 
HETATM    5  C   UNL     1      22.673  47.734  48.816  1.00  0.00     0.037 A 
HETATM    6  C   UNL     1      23.875  47.459  49.470  1.00  0.00     0.012 A 
ENDROOT
BRANCH   1   7
HETATM    7  C   UNL     1      26.281  48.075  50.075  1.00  0.00     0.113 C 
HETATM    8  C   UNL     1      27.462  48.150  49.099  1.00  0.00     0.037 C 
BRANCH   7   9
HETATM    9  N   UNL     1      26.215  46.789  50.752  1.00  0.00    -0.352 N 
HETATM   10  C   UNL     1      25.936  46.686  52.092  1.00  0.00     0.225 C 
HETATM   11  O   UNL     1      25.748  47.646  52.826  1.00  0.00    -0.273 OA
HETATM   12  H   UNL     1      26.350  45.958  50.194  1.00  0.00     0.163 HD
BRANCH  10  13
HETATM   13  C   UNL     1      25.924  45.299  52.612  1.00  0.00     0.119 A 
HETATM   14  C   UNL     1      26.785  44.868  53.770  1.00  0.00     0.126 A 
HETATM   15 CL   UNL     1      27.899  45.961  54.567  1.00  0.00    -0.101 Cl
HETATM   16 CL   UNL     1      26.103  43.668  54.876  1.00  0.00    -0.101 Cl
HETATM   17  C   UNL     1      27.118  44.402  52.380  1.00  0.00     0.060 A 
ENDBRANCH  10  13
ENDBRANCH   7   9
ENDBRANCH   1   7
BRANCH   4  18
HETATM   18  O   UNL     1      21.301  49.034  47.463  1.00  0.00    -0.347 OA
BRANCH  18  19
HETATM   19  C   UNL     1      20.149  48.680  48.229  1.00  0.00     0.215 C 
BRANCH  19  20
HETATM   20  C   UNL     1      19.480  49.943  48.697  1.00  0.00    -0.017 A 
HETATM   21  C   UNL     1      18.576  49.933  49.755  1.00  0.00     0.125 A 
HETATM   22  N   UNL     1      17.971  51.039  50.247  1.00  0.00    -0.272 NA
HETATM   23  C   UNL     1      18.276  52.212  49.655  1.00  0.00     0.116 A 
HETATM   24  C   UNL     1      19.162  52.336  48.599  1.00  0.00     0.020 A 
HETATM   25  C   UNL     1      19.774  51.181  48.118  1.00  0.00     0.012 A 
ENDBRANCH  19  20
ENDBRANCH  18  19
ENDBRANCH   4  18
TORSDOF 6
ENDMDL
MODEL 6
REMARK VINA RESULT:      -7.6      3.629      8.833
REMARK  6 active torsions:
REMARK  status: ('A' for Active; 'I' for Inactive)
REMARK    1  A    between atoms: C_2  and  N_3 
REMARK    2  A    between atoms: C_2  and  C_11 
REMARK       I    between atoms: N_3  and  C_4 
REMARK    3  A    between atoms: C_4  and  C_5 
REMARK    4  A    between atoms: C_14  and  O_15 
REMARK    5  A    between atoms: O_15  and  C_16 
REMARK    6  A    between atoms: C_16  and  C_17 
ROOT
HETATM    1  C   UNL     1      27.041  44.786  52.095  1.00  0.00    -0.036 A 
HETATM    2  C   UNL     1      26.504  45.699  53.016  1.00  0.00     0.012 A 
HETATM    3  C   UNL     1      25.675  46.746  52.595  1.00  0.00     0.037 A 
HETATM    4  C   UNL     1      25.370  46.897  51.244  1.00  0.00     0.069 A 
HETATM    5  C   UNL     1      25.861  45.966  50.327  1.00  0.00     0.037 A 
HETATM    6  C   UNL     1      26.685  44.919  50.745  1.00  0.00     0.012 A 
ENDROOT
BRANCH   1   7
HETATM    7  C   UNL     1      27.952  43.667  52.578  1.00  0.00     0.113 C 
HETATM    8  C   UNL     1      27.272  42.294  52.503  1.00  0.00     0.037 C 
BRANCH   7   9
HETATM    9  N   UNL     1      28.420  43.970  53.920  1.00  0.00    -0.352 N 
HETATM   10  C   UNL     1      29.684  43.637  54.343  1.00  0.00     0.225 C 
HETATM   11  O   UNL     1      30.501  43.044  53.651  1.00  0.00    -0.273 OA
HETATM   12  H   UNL     1      27.793  44.471  54.534  1.00  0.00     0.163 HD
BRANCH  10  13
HETATM   13  C   UNL     1      29.981  44.011  55.745  1.00  0.00     0.119 A 
HETATM   14  C   UNL     1      29.778  45.410  56.263  1.00  0.00     0.126 A 
HETATM   15 CL   UNL     1      29.213  46.715  55.239  1.00  0.00    -0.101 Cl
HETATM   16 CL   UNL     1      29.234  45.576  57.938  1.00  0.00    -0.101 Cl
HETATM   17  C   UNL     1      31.172  44.890  56.048  1.00  0.00     0.060 A 
ENDBRANCH  10  13
ENDBRANCH   7   9
ENDBRANCH   1   7
BRANCH   4  18
HETATM   18  O   UNL     1      24.605  47.887  50.698  1.00  0.00    -0.347 OA
BRANCH  18  19
HETATM   19  C   UNL     1      23.850  47.551  49.534  1.00  0.00     0.215 C 
BRANCH  19  20
HETATM   20  C   UNL     1      23.053  48.756  49.116  1.00  0.00    -0.017 A 
HETATM   21  C   UNL     1      21.665  48.711  49.029  1.00  0.00     0.125 A 
HETATM   22  N   UNL     1      20.891  49.769  48.696  1.00  0.00    -0.272 NA
HETATM   23  C   UNL     1      21.528  50.929  48.433  1.00  0.00     0.116 A 
HETATM   24  C   UNL     1      22.901  51.085  48.492  1.00  0.00     0.020 A 
HETATM   25  C   UNL     1      23.672  49.979  48.843  1.00  0.00     0.012 A 
ENDBRANCH  19  20
ENDBRANCH  18  19
ENDBRANCH   4  18
TORSDOF 6
ENDMDL
MODEL 7
REMARK VINA RESULT:      -7.5     11.335     13.362
REMARK  6 active torsions:
REMARK  status: ('A' for Active; 'I' for Inactive)
REMARK    1  A    between atoms: C_2  and  N_3 
REMARK    2  A    between atoms: C_2  and  C_11 
REMARK       I    between atoms: N_3  and  C_4 
REMARK    3  A    between atoms: C_4  and  C_5 
REMARK    4  A    between atoms: C_14  and  O_15 
REMARK    5  A    between atoms: O_15  and  C_16 
REMARK    6  A    between atoms: C_16  and  C_17 
ROOT
HETATM    1  C   UNL     1      32.506  50.077  42.444  1.00  0.00    -0.036 A 
HETATM    2  C   UNL     1      32.101  50.850  43.544  1.00  0.00     0.012 A 
HETATM    3  C   UNL     1      32.984  51.742  44.164  1.00  0.00     0.037 A 
HETATM    4  C   UNL     1      34.289  51.875  43.694  1.00  0.00     0.069 A 
HETATM    5  C   UNL     1      34.686  51.145  42.573  1.00  0.00     0.037 A 
HETATM    6  C   UNL     1      33.807  50.258  41.951  1.00  0.00     0.012 A 
ENDROOT
BRANCH   1   7
HETATM    7  C   UNL     1      31.531  49.104  41.800  1.00  0.00     0.113 C 
HETATM    8  C   UNL     1      32.250  47.988  41.031  1.00  0.00     0.037 C 
BRANCH   7   9
HETATM    9  N   UNL     1      30.603  49.838  40.954  1.00  0.00    -0.352 N 
HETATM   10  C   UNL     1      29.279  49.989  41.287  1.00  0.00     0.225 C 
HETATM   11  O   UNL     1      28.768  49.509  42.289  1.00  0.00    -0.273 OA
HETATM   12  H   UNL     1      30.971  50.269  40.118  1.00  0.00     0.163 HD
BRANCH  10  13
HETATM   13  C   UNL     1      28.482  50.754  40.301  1.00  0.00     0.119 A 
HETATM   14  C   UNL     1      28.790  52.187  39.957  1.00  0.00     0.126 A 
HETATM   15 CL   UNL     1      30.091  53.076  40.725  1.00  0.00    -0.101 Cl
HETATM   16 CL   UNL     1      28.523  52.686  38.281  1.00  0.00    -0.101 Cl
HETATM   17  C   UNL     1      27.571  51.863  40.773  1.00  0.00     0.060 A 
ENDBRANCH  10  13
ENDBRANCH   7   9
ENDBRANCH   1   7
BRANCH   4  18
HETATM   18  O   UNL     1      35.257  52.680  44.223  1.00  0.00    -0.347 OA
BRANCH  18  19
HETATM   19  C   UNL     1      36.576  52.535  43.696  1.00  0.00     0.215 C 
BRANCH  19  20
HETATM   20  C   UNL     1      37.320  53.824  43.909  1.00  0.00    -0.017 A 
HETATM   21  C   UNL     1      37.757  54.594  42.836  1.00  0.00     0.125 A 
HETATM   22  N   UNL     1      38.398  55.779  42.962  1.00  0.00    -0.272 NA
HETATM   23  C   UNL     1      38.618  56.219  44.218  1.00  0.00     0.116 A 
HETATM   24  C   UNL     1      38.225  55.536  45.355  1.00  0.00     0.020 A 
HETATM   25  C   UNL     1      37.562  54.322  45.194  1.00  0.00     0.012 A 
ENDBRANCH  19  20
ENDBRANCH  18  19
ENDBRANCH   4  18
TORSDOF 6
ENDMDL
MODEL 8
REMARK VINA RESULT:      -7.5      3.477      8.955
REMARK  6 active torsions:
REMARK  status: ('A' for Active; 'I' for Inactive)
REMARK    1  A    between atoms: C_2  and  N_3 
REMARK    2  A    between atoms: C_2  and  C_11 
REMARK       I    between atoms: N_3  and  C_4 
REMARK    3  A    between atoms: C_4  and  C_5 
REMARK    4  A    between atoms: C_14  and  O_15 
REMARK    5  A    between atoms: O_15  and  C_16 
REMARK    6  A    between atoms: C_16  and  C_17 
ROOT
HETATM    1  C   UNL     1      25.161  48.477  49.311  1.00  0.00    -0.036 A 
HETATM    2  C   UNL     1      23.945  47.866  49.655  1.00  0.00     0.012 A 
HETATM    3  C   UNL     1      22.723  48.395  49.220  1.00  0.00     0.037 A 
HETATM    4  C   UNL     1      22.700  49.545  48.434  1.00  0.00     0.069 A 
HETATM    5  C   UNL     1      23.906  50.132  48.048  1.00  0.00     0.037 A 
HETATM    6  C   UNL     1      25.125  49.604  48.478  1.00  0.00     0.012 A 
ENDROOT
BRANCH   1   7
HETATM    7  C   UNL     1      26.472  47.890  49.811  1.00  0.00     0.113 C 
HETATM    8  C   UNL     1      27.688  48.512  49.112  1.00  0.00     0.037 C 
BRANCH   7   9
HETATM    9  N   UNL     1      26.442  46.444  49.665  1.00  0.00    -0.352 N 
HETATM   10  C   UNL     1      26.390  45.604  50.751  1.00  0.00     0.225 C 
HETATM   11  O   UNL     1      26.391  45.989  51.912  1.00  0.00    -0.273 OA
HETATM   12  H   UNL     1      26.426  46.066  48.728  1.00  0.00     0.163 HD
BRANCH  10  13
HETATM   13  C   UNL     1      26.379  44.162  50.413  1.00  0.00     0.119 A 
HETATM   14  C   UNL     1      25.141  43.462  49.919  1.00  0.00     0.126 A 
HETATM   15 CL   UNL     1      23.605  44.288  49.745  1.00  0.00    -0.101 Cl
HETATM   16 CL   UNL     1      25.365  42.184  48.717  1.00  0.00    -0.101 Cl
HETATM   17  C   UNL     1      25.648  43.189  51.308  1.00  0.00     0.060 A 
ENDBRANCH  10  13
ENDBRANCH   7   9
ENDBRANCH   1   7
BRANCH   4  18
HETATM   18  O   UNL     1      21.583  50.180  47.970  1.00  0.00    -0.347 OA
BRANCH  18  19
HETATM   19  C   UNL     1      21.294  51.464  48.523  1.00  0.00     0.215 C 
BRANCH  19  20
HETATM   20  C   UNL     1      19.853  51.488  48.951  1.00  0.00    -0.017 A 
HETATM   21  C   UNL     1      19.359  50.578  49.880  1.00  0.00     0.125 A 
HETATM   22  N   UNL     1      18.084  50.571  50.333  1.00  0.00    -0.272 NA
HETATM   23  C   UNL     1      17.258  51.514  49.834  1.00  0.00     0.116 A 
HETATM   24  C   UNL     1      17.645  52.467  48.909  1.00  0.00     0.020 A 
HETATM   25  C   UNL     1      18.965  52.453  48.466  1.00  0.00     0.012 A 
ENDBRANCH  19  20
ENDBRANCH  18  19
ENDBRANCH   4  18
TORSDOF 6
ENDMDL
MODEL 9
REMARK VINA RESULT:      -7.3      4.059      9.111
REMARK  6 active torsions:
REMARK  status: ('A' for Active; 'I' for Inactive)
REMARK    1  A    between atoms: C_2  and  N_3 
REMARK    2  A    between atoms: C_2  and  C_11 
REMARK       I    between atoms: N_3  and  C_4 
REMARK    3  A    between atoms: C_4  and  C_5 
REMARK    4  A    between atoms: C_14  and  O_15 
REMARK    5  A    between atoms: O_15  and  C_16 
REMARK    6  A    between atoms: C_16  and  C_17 
ROOT
HETATM    1  C   UNL     1      24.266  45.823  49.904  1.00  0.00    -0.036 A 
HETATM    2  C   UNL     1      24.539  47.153  50.264  1.00  0.00     0.012 A 
HETATM    3  C   UNL     1      23.780  48.211  49.747  1.00  0.00     0.037 A 
HETATM    4  C   UNL     1      22.737  47.955  48.860  1.00  0.00     0.069 A 
HETATM    5  C   UNL     1      22.429  46.634  48.533  1.00  0.00     0.037 A 
HETATM    6  C   UNL     1      23.181  45.577  49.050  1.00  0.00     0.012 A 
ENDROOT
BRANCH   1   7
HETATM    7  C   UNL     1      25.116  44.695  50.467  1.00  0.00     0.113 C 
HETATM    8  C   UNL     1      24.367  43.356  50.479  1.00  0.00     0.037 C 
BRANCH   7   9
HETATM    9  N   UNL     1      25.593  45.063  51.790  1.00  0.00    -0.352 N 
HETATM   10  C   UNL     1      26.872  44.784  52.206  1.00  0.00     0.225 C 
HETATM   11  O   UNL     1      27.698  44.192  51.525  1.00  0.00    -0.273 OA
HETATM   12  H   UNL     1      24.959  45.567  52.394  1.00  0.00     0.163 HD
BRANCH  10  13
HETATM   13  C   UNL     1      27.177  45.221  53.588  1.00  0.00     0.119 A 
HETATM   14  C   UNL     1      28.351  44.679  54.360  1.00  0.00     0.126 A 
HETATM   15 CL   UNL     1      29.425  43.461  53.701  1.00  0.00    -0.101 Cl
HETATM   16 CL   UNL     1      29.181  45.799  55.450  1.00  0.00    -0.101 Cl
HETATM   17  C   UNL     1      26.956  44.268  54.740  1.00  0.00     0.060 A 
ENDBRANCH  10  13
ENDBRANCH   7   9
ENDBRANCH   1   7
BRANCH   4  18
HETATM   18  O   UNL     1      21.943  48.891  48.261  1.00  0.00    -0.347 OA
BRANCH  18  19
HETATM   19  C   UNL     1      22.032  50.226  48.756  1.00  0.00     0.215 C 
BRANCH  19  20
HETATM   20  C   UNL     1      20.647  50.704  49.096  1.00  0.00    -0.017 A 
HETATM   21  C   UNL     1      19.867  50.046  50.042  1.00  0.00     0.125 A 
HETATM   22  N   UNL     1      18.631  50.447  50.418  1.00  0.00    -0.272 NA
HETATM   23  C   UNL     1      18.145  51.556  49.822  1.00  0.00     0.116 A 
HETATM   24  C   UNL     1      18.836  52.287  48.873  1.00  0.00     0.020 A 
HETATM   25  C   UNL     1      20.108  51.853  48.509  1.00  0.00     0.012 A 
ENDBRANCH  19  20
ENDBRANCH  18  19
ENDBRANCH   4  18
TORSDOF 6
ENDMDL
MODEL 10
REMARK VINA RESULT:      -7.1      2.874      3.519
REMARK  6 active torsions:
REMARK  status: ('A' for Active; 'I' for Inactive)
REMARK    1  A    between atoms: C_2  and  N_3 
REMARK    2  A    between atoms: C_2  and  C_11 
REMARK       I    between atoms: N_3  and  C_4 
REMARK    3  A    between atoms: C_4  and  C_5 
REMARK    4  A    between atoms: C_14  and  O_15 
REMARK    5  A    between atoms: O_15  and  C_16 
REMARK    6  A    between atoms: C_16  and  C_17 
ROOT
HETATM    1  C   UNL     1      24.054  47.793  49.329  1.00  0.00    -0.036 A 
HETATM    2  C   UNL     1      25.348  48.297  49.538  1.00  0.00     0.012 A 
HETATM    3  C   UNL     1      26.373  47.475  50.022  1.00  0.00     0.037 A 
HETATM    4  C   UNL     1      26.120  46.134  50.304  1.00  0.00     0.069 A 
HETATM    5  C   UNL     1      24.849  45.614  50.055  1.00  0.00     0.037 A 
HETATM    6  C   UNL     1      23.826  46.430  49.570  1.00  0.00     0.012 A 
ENDROOT
BRANCH   1   7
HETATM    7  C   UNL     1      22.955  48.713  48.819  1.00  0.00     0.113 C 
HETATM    8  C   UNL     1      23.230  50.185  49.153  1.00  0.00     0.037 C 
BRANCH   7   9
HETATM    9  N   UNL     1      21.672  48.268  49.338  1.00  0.00    -0.352 N 
HETATM   10  C   UNL     1      20.615  47.974  48.512  1.00  0.00     0.225 C 
HETATM   11  O   UNL     1      20.649  48.084  47.294  1.00  0.00    -0.273 OA
HETATM   12  H   UNL     1      21.587  48.145  50.337  1.00  0.00     0.163 HD
BRANCH  10  13
HETATM   13  C   UNL     1      19.384  47.549  49.217  1.00  0.00     0.119 A 
HETATM   14  C   UNL     1      18.058  48.230  48.999  1.00  0.00     0.126 A 
HETATM   15 CL   UNL     1      17.875  49.603  47.926  1.00  0.00    -0.101 Cl
HETATM   16 CL   UNL     1      16.613  47.210  49.050  1.00  0.00    -0.101 Cl
HETATM   17  C   UNL     1      18.795  48.432  50.294  1.00  0.00     0.060 A 
ENDBRANCH  10  13
ENDBRANCH   7   9
ENDBRANCH   1   7
BRANCH   4  18
HETATM   18  O   UNL     1      27.016  45.235  50.807  1.00  0.00    -0.347 OA
BRANCH  18  19
HETATM   19  C   UNL     1      26.617  44.505  51.967  1.00  0.00     0.215 C 
BRANCH  19  20
HETATM   20  C   UNL     1      27.848  44.133  52.745  1.00  0.00    -0.017 A 
HETATM   21  C   UNL     1      28.067  44.619  54.030  1.00  0.00     0.125 A 
HETATM   22  N   UNL     1      29.135  44.292  54.794  1.00  0.00    -0.272 NA
HETATM   23  C   UNL     1      30.031  43.441  54.253  1.00  0.00     0.116 A 
HETATM   24  C   UNL     1      29.910  42.897  52.987  1.00  0.00     0.020 A 
HETATM   25  C   UNL     1      28.798  43.248  52.225  1.00  0.00     0.012 A 
ENDBRANCH  19  20
ENDBRANCH  18  19
ENDBRANCH   4  18
TORSDOF 6
ENDMDL
