MODEL 1
REMARK VINA RESULT:      -8.8      0.000      0.000
REMARK  10 active torsions:
REMARK  status: ('A' for Active; 'I' for Inactive)
REMARK    1  A    between atoms: C_2  and  O_3 
REMARK    2  A    between atoms: O_3  and  C_4 
REMARK    3  A    between atoms: C_4  and  C_5 
REMARK    4  A    between atoms: C_6  and  C_7 
REMARK    5  A    between atoms: C_14  and  C_15 
REMARK    6  A    between atoms: C_15  and  C_16 
REMARK       I    between atoms: C_16  and  N_17 
REMARK    7  A    between atoms: N_17  and  C_18 
REMARK    8  A    between atoms: C_18  and  C_19 
REMARK    9  A    between atoms: C_19  and  N_20 
REMARK   10  A    between atoms: C_31  and  C_32 
ROOT
HETATM    1  C   UNL     1      22.207  48.088  48.383  1.00  0.00     0.071 C 
HETATM    2  C   UNL     1      23.540  47.386  48.745  1.00  0.00     0.150 C 
HETATM    3  N   UNL     1      23.462  46.091  49.359  1.00  0.00    -0.321 N 
HETATM    4  C   UNL     1      24.121  45.399  50.228  1.00  0.00     0.011 C 
HETATM    5  C   UNL     1      22.614  45.237  48.443  1.00  0.00     0.170 C 
HETATM    6  S   UNL     1      22.820  43.551  48.749  1.00  0.00    -0.086 SA
HETATM    7  C   UNL     1      23.769  43.926  50.261  1.00  0.00     0.135 C 
HETATM    8  N   UNL     1      21.915  45.743  47.500  1.00  0.00    -0.223 NA
HETATM    9  C   UNL     1      21.608  47.120  47.491  1.00  0.00     0.084 C 
ENDROOT
BRANCH   4  10
HETATM   10  C   UNL     1      25.272  45.990  50.991  1.00  0.00     0.156 C 
BRANCH  10  11
HETATM   11  C   UNL     1      25.976  45.065  51.970  1.00  0.00     0.223 C 
HETATM   12  N   UNL     1      25.443  45.106  53.234  1.00  0.00    -0.359 N 
HETATM   13  H   UNL     1      24.700  45.779  53.411  1.00  0.00     0.162 HD
HETATM   14  O   UNL     1      26.930  44.360  51.663  1.00  0.00    -0.273 OA
BRANCH  12  15
HETATM   15  C   UNL     1      25.711  44.216  54.368  1.00  0.00     0.150 C 
BRANCH  15  16
HETATM   16  C   UNL     1      27.059  43.476  54.482  1.00  0.00     0.254 C 
BRANCH  16  17
HETATM   17  N   UNL     1      28.253  44.395  54.430  1.00  0.00    -0.070 N 
HETATM   18  H   UNL     1      28.155  44.908  53.534  1.00  0.00     0.279 HD
HETATM   19  C   UNL     1      29.578  43.647  54.360  1.00  0.00     0.235 C 
HETATM   20  C   UNL     1      30.313  44.050  55.624  1.00  0.00     0.029 C 
HETATM   21  C   UNL     1      29.853  45.474  55.848  1.00  0.00     0.029 C 
HETATM   22  C   UNL     1      28.366  45.390  55.565  1.00  0.00     0.235 C 
ENDBRANCH  16  17
ENDBRANCH  15  16
ENDBRANCH  12  15
ENDBRANCH  10  11
ENDBRANCH   4  10
BRANCH   2  23
HETATM   23  C   UNL     1      23.494  48.554  49.559  1.00  0.00     0.037 C 
HETATM   24  C   UNL     1      23.797  49.806  48.238  1.00  0.00    -0.009 C 
HETATM   25  C   UNL     1      25.481  50.054  47.773  1.00  0.00    -0.003 C 
HETATM   26  C   UNL     1      26.801  49.178  48.609  1.00  0.00    -0.001 C 
HETATM   27  C   UNL     1      26.490  48.095  50.018  1.00  0.00    -0.003 C 
HETATM   28  C   UNL     1      24.842  47.832  50.598  1.00  0.00    -0.009 C 
ENDBRANCH   2  23
BRANCH   1  29
HETATM   29  C   UNL     1      22.077  49.998  49.342  1.00  0.00     0.293 C 
HETATM   30  O   UNL     1      22.409  50.266  50.536  1.00  0.00    -0.259 OA
BRANCH  29  31
HETATM   31  O   UNL     1      21.616  51.230  48.750  1.00  0.00    -0.318 OA
BRANCH  31  32
HETATM   32  C   UNL     1      20.300  51.317  48.160  1.00  0.00     0.174 C 
HETATM   33  C   UNL     1      19.340  51.971  49.135  1.00  0.00     0.034 C 
ENDBRANCH  31  32
ENDBRANCH  29  31
ENDBRANCH   1  29
BRANCH   9  34
HETATM   34  C   UNL     1      20.461  47.228  46.521  1.00  0.00    -0.006 A 
HETATM   35  C   UNL     1      20.371  46.348  45.432  1.00  0.00     0.014 A 
HETATM   36  C   UNL     1      19.282  46.413  44.560  1.00  0.00     0.001 A 
HETATM   37  C   UNL     1      18.260  47.335  44.784  1.00  0.00     0.000 A 
HETATM   38  C   UNL     1      18.317  48.186  45.885  1.00  0.00     0.001 A 
HETATM   39  C   UNL     1      19.405  48.126  46.759  1.00  0.00     0.014 A 
ENDBRANCH   9  34
TORSDOF 10
ENDMDL
MODEL 2
REMARK VINA RESULT:      -8.8      1.019      1.455
REMARK  10 active torsions:
REMARK  status: ('A' for Active; 'I' for Inactive)
REMARK    1  A    between atoms: C_2  and  O_3 
REMARK    2  A    between atoms: O_3  and  C_4 
REMARK    3  A    between atoms: C_4  and  C_5 
REMARK    4  A    between atoms: C_6  and  C_7 
REMARK    5  A    between atoms: C_14  and  C_15 
REMARK    6  A    between atoms: C_15  and  C_16 
REMARK       I    between atoms: C_16  and  N_17 
REMARK    7  A    between atoms: N_17  and  C_18 
REMARK    8  A    between atoms: C_18  and  C_19 
REMARK    9  A    between atoms: C_19  and  N_20 
REMARK   10  A    between atoms: C_31  and  C_32 
ROOT
HETATM    1  C   UNL     1      21.909  48.348  48.362  1.00  0.00     0.071 C 
HETATM    2  C   UNL     1      23.275  47.634  48.516  1.00  0.00     0.150 C 
HETATM    3  N   UNL     1      23.265  46.276  48.981  1.00  0.00    -0.321 N 
HETATM    4  C   UNL     1      24.009  45.502  49.700  1.00  0.00     0.011 C 
HETATM    5  C   UNL     1      22.341  45.517  48.054  1.00  0.00     0.170 C 
HETATM    6  S   UNL     1      22.589  43.811  48.144  1.00  0.00    -0.086 SA
HETATM    7  C   UNL     1      23.672  44.029  49.594  1.00  0.00     0.135 C 
HETATM    8  N   UNL     1      21.553  46.115  47.245  1.00  0.00    -0.223 NA
HETATM    9  C   UNL     1      21.236  47.477  47.423  1.00  0.00     0.084 C 
ENDROOT
BRANCH   4  10
HETATM   10  C   UNL     1      25.221  46.023  50.417  1.00  0.00     0.156 C 
BRANCH  10  11
HETATM   11  C   UNL     1      26.388  45.059  50.553  1.00  0.00     0.223 C 
HETATM   12  N   UNL     1      26.514  44.535  51.814  1.00  0.00    -0.359 N 
HETATM   13  H   UNL     1      25.883  44.881  52.535  1.00  0.00     0.162 HD
HETATM   14  O   UNL     1      27.146  44.786  49.630  1.00  0.00    -0.273 OA
BRANCH  12  15
HETATM   15  C   UNL     1      27.369  43.432  52.264  1.00  0.00     0.150 C 
BRANCH  15  16
HETATM   16  C   UNL     1      28.824  43.695  52.700  1.00  0.00     0.254 C 
BRANCH  16  17
HETATM   17  N   UNL     1      29.058  43.473  54.173  1.00  0.00    -0.070 N 
HETATM   18  H   UNL     1      28.409  42.706  54.432  1.00  0.00     0.279 HD
HETATM   19  C   UNL     1      28.673  44.675  55.025  1.00  0.00     0.235 C 
HETATM   20  C   UNL     1      29.968  45.105  55.688  1.00  0.00     0.029 C 
HETATM   21  C   UNL     1      30.704  43.797  55.881  1.00  0.00     0.029 C 
HETATM   22  C   UNL     1      30.469  43.086  54.564  1.00  0.00     0.235 C 
ENDBRANCH  16  17
ENDBRANCH  15  16
ENDBRANCH  12  15
ENDBRANCH  10  11
ENDBRANCH   4  10
BRANCH   2  23
HETATM   23  C   UNL     1      23.296  48.700  49.460  1.00  0.00     0.037 C 
HETATM   24  C   UNL     1      23.313  50.108  48.267  1.00  0.00    -0.009 C 
HETATM   25  C   UNL     1      24.885  50.527  47.581  1.00  0.00    -0.003 C 
HETATM   26  C   UNL     1      26.368  49.665  48.095  1.00  0.00    -0.001 C 
HETATM   27  C   UNL     1      26.348  48.415  49.396  1.00  0.00    -0.003 C 
HETATM   28  C   UNL     1      24.832  47.970  50.187  1.00  0.00    -0.009 C 
ENDBRANCH   2  23
BRANCH   1  29
HETATM   29  C   UNL     1      21.854  50.133  49.543  1.00  0.00     0.293 C 
HETATM   30  O   UNL     1      22.506  50.352  50.609  1.00  0.00    -0.259 OA
BRANCH  29  31
HETATM   31  O   UNL     1      21.087  51.324  49.270  1.00  0.00    -0.318 OA
BRANCH  31  32
HETATM   32  C   UNL     1      19.643  51.284  49.254  1.00  0.00     0.174 C 
HETATM   33  C   UNL     1      19.102  52.465  48.473  1.00  0.00     0.034 C 
ENDBRANCH  31  32
ENDBRANCH  29  31
ENDBRANCH   1  29
BRANCH   9  34
HETATM   34  C   UNL     1      20.002  47.674  46.583  1.00  0.00    -0.006 A 
HETATM   35  C   UNL     1      19.312  48.895  46.616  1.00  0.00     0.014 A 
HETATM   36  C   UNL     1      18.197  49.098  45.801  1.00  0.00     0.001 A 
HETATM   37  C   UNL     1      17.779  48.097  44.925  1.00  0.00     0.000 A 
HETATM   38  C   UNL     1      18.480  46.895  44.853  1.00  0.00     0.001 A 
HETATM   39  C   UNL     1      19.594  46.687  45.668  1.00  0.00     0.014 A 
ENDBRANCH   9  34
TORSDOF 10
ENDMDL
MODEL 3
REMARK VINA RESULT:      -8.6      4.141      9.896
REMARK  10 active torsions:
REMARK  status: ('A' for Active; 'I' for Inactive)
REMARK    1  A    between atoms: C_2  and  O_3 
REMARK    2  A    between atoms: O_3  and  C_4 
REMARK    3  A    between atoms: C_4  and  C_5 
REMARK    4  A    between atoms: C_6  and  C_7 
REMARK    5  A    between atoms: C_14  and  C_15 
REMARK    6  A    between atoms: C_15  and  C_16 
REMARK       I    between atoms: C_16  and  N_17 
REMARK    7  A    between atoms: N_17  and  C_18 
REMARK    8  A    between atoms: C_18  and  C_19 
REMARK    9  A    between atoms: C_19  and  N_20 
REMARK   10  A    between atoms: C_31  and  C_32 
ROOT
HETATM    1  C   UNL     1      22.538  47.070  48.612  1.00  0.00     0.071 C 
HETATM    2  C   UNL     1      21.132  47.547  48.169  1.00  0.00     0.150 C 
HETATM    3  N   UNL     1      20.402  48.390  49.073  1.00  0.00    -0.321 N 
HETATM    4  C   UNL     1      19.173  48.600  49.409  1.00  0.00     0.011 C 
HETATM    5  C   UNL     1      21.311  49.556  49.392  1.00  0.00     0.170 C 
HETATM    6  S   UNL     1      20.442  50.897  50.046  1.00  0.00    -0.086 SA
HETATM    7  C   UNL     1      18.943  49.870  50.202  1.00  0.00     0.135 C 
HETATM    8  N   UNL     1      22.555  49.544  49.103  1.00  0.00    -0.223 NA
HETATM    9  C   UNL     1      23.215  48.332  48.816  1.00  0.00     0.084 C 
ENDROOT
BRANCH   4  10
HETATM   10  C   UNL     1      18.058  47.744  48.879  1.00  0.00     0.156 C 
BRANCH  10  11
HETATM   11  C   UNL     1      16.740  48.450  48.604  1.00  0.00     0.223 C 
HETATM   12  N   UNL     1      16.891  49.776  48.288  1.00  0.00    -0.359 N 
HETATM   13  H   UNL     1      17.830  50.169  48.334  1.00  0.00     0.162 HD
HETATM   14  O   UNL     1      15.651  47.891  48.670  1.00  0.00    -0.273 OA
BRANCH  12  15
HETATM   15  C   UNL     1      15.890  50.710  47.762  1.00  0.00     0.150 C 
BRANCH  15  16
HETATM   16  C   UNL     1      16.284  52.149  47.378  1.00  0.00     0.254 C 
BRANCH  16  17
HETATM   17  N   UNL     1      15.878  53.176  48.405  1.00  0.00    -0.070 N 
HETATM   18  H   UNL     1      16.581  53.933  48.317  1.00  0.00     0.279 HD
HETATM   19  C   UNL     1      15.973  52.658  49.834  1.00  0.00     0.235 C 
HETATM   20  C   UNL     1      14.552  52.721  50.360  1.00  0.00     0.029 C 
HETATM   21  C   UNL     1      13.978  53.930  49.653  1.00  0.00     0.029 C 
HETATM   22  C   UNL     1      14.491  53.760  48.237  1.00  0.00     0.235 C 
ENDBRANCH  16  17
ENDBRANCH  15  16
ENDBRANCH  12  15
ENDBRANCH  10  11
ENDBRANCH   4  10
BRANCH   2  23
HETATM   23  C   UNL     1      21.031  46.132  48.291  1.00  0.00     0.037 C 
HETATM   24  C   UNL     1      22.125  45.667  46.880  1.00  0.00    -0.009 C 
HETATM   25  C   UNL     1      21.384  45.699  45.278  1.00  0.00    -0.003 C 
HETATM   26  C   UNL     1      19.648  46.091  45.080  1.00  0.00    -0.001 C 
HETATM   27  C   UNL     1      18.559  46.364  46.493  1.00  0.00    -0.003 C 
HETATM   28  C   UNL     1      19.195  46.292  48.140  1.00  0.00    -0.009 C 
ENDBRANCH   2  23
BRANCH   1  29
HETATM   29  C   UNL     1      22.642  44.932  48.617  1.00  0.00     0.293 C 
HETATM   30  O   UNL     1      21.815  44.139  49.161  1.00  0.00    -0.259 OA
BRANCH  29  31
HETATM   31  O   UNL     1      23.651  44.116  47.986  1.00  0.00    -0.318 OA
BRANCH  31  32
HETATM   32  C   UNL     1      24.530  43.287  48.779  1.00  0.00     0.174 C 
HETATM   33  C   UNL     1      25.607  44.140  49.418  1.00  0.00     0.034 C 
ENDBRANCH  31  32
ENDBRANCH  29  31
ENDBRANCH   1  29
BRANCH   9  34
HETATM   34  C   UNL     1      24.675  48.672  48.964  1.00  0.00    -0.006 A 
HETATM   35  C   UNL     1      25.519  47.849  49.726  1.00  0.00     0.014 A 
HETATM   36  C   UNL     1      26.882  48.133  49.823  1.00  0.00     0.001 A 
HETATM   37  C   UNL     1      27.421  49.221  49.139  1.00  0.00     0.000 A 
HETATM   38  C   UNL     1      26.602  50.022  48.346  1.00  0.00     0.001 A 
HETATM   39  C   UNL     1      25.237  49.743  48.247  1.00  0.00     0.014 A 
ENDBRANCH   9  34
TORSDOF 10
ENDMDL
MODEL 4
REMARK VINA RESULT:      -8.5      4.802      9.850
REMARK  10 active torsions:
REMARK  status: ('A' for Active; 'I' for Inactive)
REMARK    1  A    between atoms: C_2  and  O_3 
REMARK    2  A    between atoms: O_3  and  C_4 
REMARK    3  A    between atoms: C_4  and  C_5 
REMARK    4  A    between atoms: C_6  and  C_7 
REMARK    5  A    between atoms: C_14  and  C_15 
REMARK    6  A    between atoms: C_15  and  C_16 
REMARK       I    between atoms: C_16  and  N_17 
REMARK    7  A    between atoms: N_17  and  C_18 
REMARK    8  A    between atoms: C_18  and  C_19 
REMARK    9  A    between atoms: C_19  and  N_20 
REMARK   10  A    between atoms: C_31  and  C_32 
ROOT
HETATM    1  C   UNL     1      27.539  43.604  51.411  1.00  0.00     0.071 C 
HETATM    2  C   UNL     1      26.817  42.393  50.769  1.00  0.00     0.150 C 
HETATM    3  N   UNL     1      27.632  41.305  50.308  1.00  0.00    -0.321 N 
HETATM    4  C   UNL     1      27.617  40.431  49.356  1.00  0.00     0.011 C 
HETATM    5  C   UNL     1      28.485  40.885  51.484  1.00  0.00     0.170 C 
HETATM    6  S   UNL     1      29.148  39.305  51.275  1.00  0.00    -0.086 SA
HETATM    7  C   UNL     1      28.585  39.281  49.540  1.00  0.00     0.135 C 
HETATM    8  N   UNL     1      28.597  41.607  52.532  1.00  0.00    -0.223 NA
HETATM    9  C   UNL     1      28.239  42.971  52.507  1.00  0.00     0.084 C 
ENDROOT
BRANCH   4  10
HETATM   10  C   UNL     1      26.581  40.473  48.269  1.00  0.00     0.156 C 
BRANCH  10  11
HETATM   11  C   UNL     1      26.519  39.263  47.352  1.00  0.00     0.223 C 
HETATM   12  N   UNL     1      25.488  38.409  47.651  1.00  0.00    -0.359 N 
HETATM   13  H   UNL     1      24.924  38.618  48.472  1.00  0.00     0.162 HD
HETATM   14  O   UNL     1      27.317  39.066  46.443  1.00  0.00    -0.273 OA
BRANCH  12  15
HETATM   15  C   UNL     1      24.989  37.271  46.871  1.00  0.00     0.150 C 
BRANCH  15  16
HETATM   16  C   UNL     1      23.611  37.336  46.184  1.00  0.00     0.254 C 
BRANCH  16  17
HETATM   17  N   UNL     1      22.491  37.708  47.123  1.00  0.00    -0.070 N 
HETATM   18  H   UNL     1      22.933  37.749  48.060  1.00  0.00     0.279 HD
HETATM   19  C   UNL     1      21.402  36.645  47.202  1.00  0.00     0.235 C 
HETATM   20  C   UNL     1      20.152  37.338  46.695  1.00  0.00     0.029 C 
HETATM   21  C   UNL     1      20.344  38.768  47.154  1.00  0.00     0.029 C 
HETATM   22  C   UNL     1      21.803  39.025  46.836  1.00  0.00     0.235 C 
ENDBRANCH  16  17
ENDBRANCH  15  16
ENDBRANCH  12  15
ENDBRANCH  10  11
ENDBRANCH   4  10
BRANCH   2  23
HETATM   23  C   UNL     1      26.556  43.493  49.903  1.00  0.00     0.037 C 
HETATM   24  C   UNL     1      25.447  44.452  51.023  1.00  0.00    -0.009 C 
HETATM   25  C   UNL     1      23.759  43.939  51.073  1.00  0.00    -0.003 C 
HETATM   26  C   UNL     1      23.176  42.609  50.026  1.00  0.00    -0.001 C 
HETATM   27  C   UNL     1      24.241  41.808  48.809  1.00  0.00    -0.003 C 
HETATM   28  C   UNL     1      25.931  42.295  48.641  1.00  0.00    -0.009 C 
ENDBRANCH   2  23
BRANCH   1  29
HETATM   29  C   UNL     1      27.057  45.409  50.366  1.00  0.00     0.293 C 
HETATM   30  O   UNL     1      27.285  45.656  49.143  1.00  0.00    -0.259 OA
BRANCH  29  31
HETATM   31  O   UNL     1      26.393  46.569  50.909  1.00  0.00    -0.318 OA
BRANCH  31  32
HETATM   32  C   UNL     1      26.136  47.726  50.082  1.00  0.00     0.174 C 
HETATM   33  C   UNL     1      24.655  47.823  49.774  1.00  0.00     0.034 C 
ENDBRANCH  31  32
ENDBRANCH  29  31
ENDBRANCH   1  29
BRANCH   9  34
HETATM   34  C   UNL     1      28.903  43.541  53.734  1.00  0.00    -0.006 A 
HETATM   35  C   UNL     1      30.083  42.965  54.230  1.00  0.00     0.014 A 
HETATM   36  C   UNL     1      30.728  43.522  55.336  1.00  0.00     0.001 A 
HETATM   37  C   UNL     1      30.220  44.672  55.938  1.00  0.00     0.000 A 
HETATM   38  C   UNL     1      29.072  45.276  55.430  1.00  0.00     0.001 A 
HETATM   39  C   UNL     1      28.422  44.722  54.324  1.00  0.00     0.014 A 
ENDBRANCH   9  34
TORSDOF 10
ENDMDL
MODEL 5
REMARK VINA RESULT:      -8.5      4.942      8.683
REMARK  10 active torsions:
REMARK  status: ('A' for Active; 'I' for Inactive)
REMARK    1  A    between atoms: C_2  and  O_3 
REMARK    2  A    between atoms: O_3  and  C_4 
REMARK    3  A    between atoms: C_4  and  C_5 
REMARK    4  A    between atoms: C_6  and  C_7 
REMARK    5  A    between atoms: C_14  and  C_15 
REMARK    6  A    between atoms: C_15  and  C_16 
REMARK       I    between atoms: C_16  and  N_17 
REMARK    7  A    between atoms: N_17  and  C_18 
REMARK    8  A    between atoms: C_18  and  C_19 
REMARK    9  A    between atoms: C_19  and  N_20 
REMARK   10  A    between atoms: C_31  and  C_32 
ROOT
HETATM    1  C   UNL     1      26.730  45.047  51.692  1.00  0.00     0.071 C 
HETATM    2  C   UNL     1      26.455  43.562  51.348  1.00  0.00     0.150 C 
HETATM    3  N   UNL     1      27.451  42.599  51.724  1.00  0.00    -0.321 N 
HETATM    4  C   UNL     1      27.925  41.484  51.276  1.00  0.00     0.011 C 
HETATM    5  C   UNL     1      27.690  42.793  53.205  1.00  0.00     0.170 C 
HETATM    6  S   UNL     1      28.464  41.426  53.922  1.00  0.00    -0.086 SA
HETATM    7  C   UNL     1      28.764  40.710  52.272  1.00  0.00     0.135 C 
HETATM    8  N   UNL     1      27.266  43.822  53.831  1.00  0.00    -0.223 NA
HETATM    9  C   UNL     1      26.882  44.984  53.129  1.00  0.00     0.084 C 
ENDROOT
BRANCH   4  10
HETATM   10  C   UNL     1      27.505  40.931  49.945  1.00  0.00     0.156 C 
BRANCH  10  11
HETATM   11  C   UNL     1      27.965  39.519  49.626  1.00  0.00     0.223 C 
HETATM   12  N   UNL     1      27.007  38.568  49.870  1.00  0.00    -0.359 N 
HETATM   13  H   UNL     1      26.134  38.875  50.294  1.00  0.00     0.162 HD
HETATM   14  O   UNL     1      29.085  39.256  49.203  1.00  0.00    -0.273 OA
BRANCH  12  15
HETATM   15  C   UNL     1      27.009  37.151  49.491  1.00  0.00     0.150 C 
BRANCH  15  16
HETATM   16  C   UNL     1      26.905  36.736  48.011  1.00  0.00     0.254 C 
BRANCH  16  17
HETATM   17  N   UNL     1      27.702  37.618  47.084  1.00  0.00    -0.070 N 
HETATM   18  H   UNL     1      28.151  38.318  47.703  1.00  0.00     0.279 HD
HETATM   19  C   UNL     1      26.831  38.397  46.106  1.00  0.00     0.235 C 
HETATM   20  C   UNL     1      27.261  37.909  44.736  1.00  0.00     0.029 C 
HETATM   21  C   UNL     1      28.735  37.621  44.923  1.00  0.00     0.029 C 
HETATM   22  C   UNL     1      28.768  36.920  46.266  1.00  0.00     0.235 C 
ENDBRANCH  16  17
ENDBRANCH  15  16
ENDBRANCH  12  15
ENDBRANCH  10  11
ENDBRANCH   4  10
BRANCH   2  23
HETATM   23  C   UNL     1      26.559  44.228  50.094  1.00  0.00     0.037 C 
HETATM   24  C   UNL     1      25.006  45.220  50.193  1.00  0.00    -0.009 C 
HETATM   25  C   UNL     1      23.518  44.378  49.755  1.00  0.00    -0.003 C 
HETATM   26  C   UNL     1      23.559  42.683  49.179  1.00  0.00    -0.001 C 
HETATM   27  C   UNL     1      25.109  41.796  48.920  1.00  0.00    -0.003 C 
HETATM   28  C   UNL     1      26.656  42.575  49.271  1.00  0.00    -0.009 C 
ENDBRANCH   2  23
BRANCH   1  29
HETATM   29  C   UNL     1      26.681  46.252  49.923  1.00  0.00     0.293 C 
HETATM   30  O   UNL     1      27.509  46.217  48.964  1.00  0.00    -0.259 OA
BRANCH  29  31
HETATM   31  O   UNL     1      25.690  47.244  49.583  1.00  0.00    -0.318 OA
BRANCH  31  32
HETATM   32  C   UNL     1      26.083  48.591  49.239  1.00  0.00     0.174 C 
HETATM   33  C   UNL     1      24.878  49.372  48.754  1.00  0.00     0.034 C 
ENDBRANCH  31  32
ENDBRANCH  29  31
ENDBRANCH   1  29
BRANCH   9  34
HETATM   34  C   UNL     1      26.875  46.058  54.185  1.00  0.00    -0.006 A 
HETATM   35  C   UNL     1      27.781  46.004  55.255  1.00  0.00     0.014 A 
HETATM   36  C   UNL     1      27.811  47.024  56.207  1.00  0.00     0.001 A 
HETATM   37  C   UNL     1      26.957  48.120  56.086  1.00  0.00     0.000 A 
HETATM   38  C   UNL     1      26.080  48.205  55.007  1.00  0.00     0.001 A 
HETATM   39  C   UNL     1      26.046  47.186  54.053  1.00  0.00     0.014 A 
ENDBRANCH   9  34
TORSDOF 10
ENDMDL
MODEL 6
REMARK VINA RESULT:      -8.5      5.719      9.966
REMARK  10 active torsions:
REMARK  status: ('A' for Active; 'I' for Inactive)
REMARK    1  A    between atoms: C_2  and  O_3 
REMARK    2  A    between atoms: O_3  and  C_4 
REMARK    3  A    between atoms: C_4  and  C_5 
REMARK    4  A    between atoms: C_6  and  C_7 
REMARK    5  A    between atoms: C_14  and  C_15 
REMARK    6  A    between atoms: C_15  and  C_16 
REMARK       I    between atoms: C_16  and  N_17 
REMARK    7  A    between atoms: N_17  and  C_18 
REMARK    8  A    between atoms: C_18  and  C_19 
REMARK    9  A    between atoms: C_19  and  N_20 
REMARK   10  A    between atoms: C_31  and  C_32 
ROOT
HETATM    1  C   UNL     1      27.566  43.668  51.463  1.00  0.00     0.071 C 
HETATM    2  C   UNL     1      26.855  42.447  50.827  1.00  0.00     0.150 C 
HETATM    3  N   UNL     1      27.677  41.354  50.393  1.00  0.00    -0.321 N 
HETATM    4  C   UNL     1      27.677  40.467  49.453  1.00  0.00     0.011 C 
HETATM    5  C   UNL     1      28.514  40.951  51.586  1.00  0.00     0.170 C 
HETATM    6  S   UNL     1      29.181  39.369  51.409  1.00  0.00    -0.086 SA
HETATM    7  C   UNL     1      28.643  39.320  49.667  1.00  0.00     0.135 C 
HETATM    8  N   UNL     1      28.609  41.688  52.626  1.00  0.00    -0.223 NA
HETATM    9  C   UNL     1      28.251  43.051  52.577  1.00  0.00     0.084 C 
ENDROOT
BRANCH   4  10
HETATM   10  C   UNL     1      26.657  40.492  48.351  1.00  0.00     0.156 C 
BRANCH  10  11
HETATM   11  C   UNL     1      26.747  39.376  47.324  1.00  0.00     0.223 C 
HETATM   12  N   UNL     1      27.611  39.654  46.295  1.00  0.00    -0.359 N 
HETATM   13  H   UNL     1      28.041  40.577  46.276  1.00  0.00     0.162 HD
HETATM   14  O   UNL     1      26.105  38.335  47.404  1.00  0.00    -0.273 OA
BRANCH  12  15
HETATM   15  C   UNL     1      28.113  38.751  45.254  1.00  0.00     0.150 C 
BRANCH  15  16
HETATM   16  C   UNL     1      27.536  38.804  43.826  1.00  0.00     0.254 C 
BRANCH  16  17
HETATM   17  N   UNL     1      28.582  39.040  42.766  1.00  0.00    -0.070 N 
HETATM   18  H   UNL     1      28.051  39.356  41.933  1.00  0.00     0.279 HD
HETATM   19  C   UNL     1      29.313  37.767  42.357  1.00  0.00     0.235 C 
HETATM   20  C   UNL     1      30.762  38.021  42.728  1.00  0.00     0.029 C 
HETATM   21  C   UNL     1      30.916  39.510  42.506  1.00  0.00     0.029 C 
HETATM   22  C   UNL     1      29.641  40.068  43.104  1.00  0.00     0.235 C 
ENDBRANCH  16  17
ENDBRANCH  15  16
ENDBRANCH  12  15
ENDBRANCH  10  11
ENDBRANCH   4  10
BRANCH   2  23
HETATM   23  C   UNL     1      26.605  43.534  49.942  1.00  0.00     0.037 C 
HETATM   24  C   UNL     1      25.464  44.499  51.025  1.00  0.00    -0.009 C 
HETATM   25  C   UNL     1      23.779  43.973  51.043  1.00  0.00    -0.003 C 
HETATM   26  C   UNL     1      23.229  42.625  49.999  1.00  0.00    -0.001 C 
HETATM   27  C   UNL     1      24.328  41.818  48.817  1.00  0.00    -0.003 C 
HETATM   28  C   UNL     1      26.018  42.317  48.680  1.00  0.00    -0.009 C 
ENDBRANCH   2  23
BRANCH   1  29
HETATM   29  C   UNL     1      27.098  45.458  50.386  1.00  0.00     0.293 C 
HETATM   30  O   UNL     1      27.394  45.710  49.179  1.00  0.00    -0.259 OA
BRANCH  29  31
HETATM   31  O   UNL     1      26.367  46.598  50.884  1.00  0.00    -0.318 OA
BRANCH  31  32
HETATM   32  C   UNL     1      26.203  47.781  50.070  1.00  0.00     0.174 C 
HETATM   33  C   UNL     1      24.744  47.952  49.697  1.00  0.00     0.034 C 
ENDBRANCH  31  32
ENDBRANCH  29  31
ENDBRANCH   1  29
BRANCH   9  34
HETATM   34  C   UNL     1      28.897  43.638  53.805  1.00  0.00    -0.006 A 
HETATM   35  C   UNL     1      30.048  43.048  54.349  1.00  0.00     0.014 A 
HETATM   36  C   UNL     1      30.678  43.620  55.456  1.00  0.00     0.001 A 
HETATM   37  C   UNL     1      30.183  44.798  56.012  1.00  0.00     0.000 A 
HETATM   38  C   UNL     1      29.064  45.416  55.457  1.00  0.00     0.001 A 
HETATM   39  C   UNL     1      28.429  44.847  54.350  1.00  0.00     0.014 A 
ENDBRANCH   9  34
TORSDOF 10
ENDMDL
MODEL 7
REMARK VINA RESULT:      -8.4      4.063     10.140
REMARK  10 active torsions:
REMARK  status: ('A' for Active; 'I' for Inactive)
REMARK    1  A    between atoms: C_2  and  O_3 
REMARK    2  A    between atoms: O_3  and  C_4 
REMARK    3  A    between atoms: C_4  and  C_5 
REMARK    4  A    between atoms: C_6  and  C_7 
REMARK    5  A    between atoms: C_14  and  C_15 
REMARK    6  A    between atoms: C_15  and  C_16 
REMARK       I    between atoms: C_16  and  N_17 
REMARK    7  A    between atoms: N_17  and  C_18 
REMARK    8  A    between atoms: C_18  and  C_19 
REMARK    9  A    between atoms: C_19  and  N_20 
REMARK   10  A    between atoms: C_31  and  C_32 
ROOT
HETATM    1  C   UNL     1      22.461  47.082  48.634  1.00  0.00     0.071 C 
HETATM    2  C   UNL     1      21.054  47.546  48.183  1.00  0.00     0.150 C 
HETATM    3  N   UNL     1      20.324  48.407  49.070  1.00  0.00    -0.321 N 
HETATM    4  C   UNL     1      19.095  48.621  49.404  1.00  0.00     0.011 C 
HETATM    5  C   UNL     1      21.231  49.581  49.363  1.00  0.00     0.170 C 
HETATM    6  S   UNL     1      20.361  50.934  49.992  1.00  0.00    -0.086 SA
HETATM    7  C   UNL     1      18.864  49.907  50.171  1.00  0.00     0.135 C 
HETATM    8  N   UNL     1      22.475  49.566  49.073  1.00  0.00    -0.223 NA
HETATM    9  C   UNL     1      23.137  48.349  48.810  1.00  0.00     0.084 C 
ENDROOT
BRANCH   4  10
HETATM   10  C   UNL     1      17.980  47.753  48.894  1.00  0.00     0.156 C 
BRANCH  10  11
HETATM   11  C   UNL     1      16.764  48.476  48.340  1.00  0.00     0.223 C 
HETATM   12  N   UNL     1      17.085  49.536  47.530  1.00  0.00    -0.359 N 
HETATM   13  H   UNL     1      18.070  49.776  47.435  1.00  0.00     0.162 HD
HETATM   14  O   UNL     1      15.612  48.150  48.600  1.00  0.00    -0.273 OA
BRANCH  12  15
HETATM   15  C   UNL     1      16.203  50.322  46.661  1.00  0.00     0.150 C 
BRANCH  15  16
HETATM   16  C   UNL     1      15.625  51.668  47.142  1.00  0.00     0.254 C 
BRANCH  16  17
HETATM   17  N   UNL     1      16.096  52.846  46.327  1.00  0.00    -0.070 N 
HETATM   18  H   UNL     1      16.423  53.539  47.026  1.00  0.00     0.279 HD
HETATM   19  C   UNL     1      14.973  53.516  45.545  1.00  0.00     0.235 C 
HETATM   20  C   UNL     1      15.371  53.355  44.090  1.00  0.00     0.029 C 
HETATM   21  C   UNL     1      16.883  53.420  44.139  1.00  0.00     0.029 C 
HETATM   22  C   UNL     1      17.212  52.562  45.345  1.00  0.00     0.235 C 
ENDBRANCH  16  17
ENDBRANCH  15  16
ENDBRANCH  12  15
ENDBRANCH  10  11
ENDBRANCH   4  10
BRANCH   2  23
HETATM   23  C   UNL     1      20.956  46.134  48.335  1.00  0.00     0.037 C 
HETATM   24  C   UNL     1      22.112  45.643  46.983  1.00  0.00    -0.009 C 
HETATM   25  C   UNL     1      21.441  45.633  45.351  1.00  0.00    -0.003 C 
HETATM   26  C   UNL     1      19.712  46.008  45.069  1.00  0.00    -0.001 C 
HETATM   27  C   UNL     1      18.563  46.307  46.427  1.00  0.00    -0.003 C 
HETATM   28  C   UNL     1      19.127  46.278  48.101  1.00  0.00    -0.009 C 
ENDBRANCH   2  23
BRANCH   1  29
HETATM   29  C   UNL     1      22.569  44.944  48.683  1.00  0.00     0.293 C 
HETATM   30  O   UNL     1      21.662  44.153  49.081  1.00  0.00    -0.259 OA
BRANCH  29  31
HETATM   31  O   UNL     1      23.676  44.126  48.250  1.00  0.00    -0.318 OA
BRANCH  31  32
HETATM   32  C   UNL     1      24.837  43.952  49.092  1.00  0.00     0.174 C 
HETATM   33  C   UNL     1      24.554  44.492  50.480  1.00  0.00     0.034 C 
ENDBRANCH  31  32
ENDBRANCH  29  31
ENDBRANCH   1  29
BRANCH   9  34
HETATM   34  C   UNL     1      24.597  48.694  48.948  1.00  0.00    -0.006 A 
HETATM   35  C   UNL     1      25.444  47.884  49.719  1.00  0.00     0.014 A 
HETATM   36  C   UNL     1      26.807  48.172  49.808  1.00  0.00     0.001 A 
HETATM   37  C   UNL     1      27.341  49.252  49.106  1.00  0.00     0.000 A 
HETATM   38  C   UNL     1      26.518  50.040  48.305  1.00  0.00     0.001 A 
HETATM   39  C   UNL     1      25.153  49.757  48.215  1.00  0.00     0.014 A 
ENDBRANCH   9  34
TORSDOF 10
ENDMDL
MODEL 8
REMARK VINA RESULT:      -8.4      5.718      9.886
REMARK  10 active torsions:
REMARK  status: ('A' for Active; 'I' for Inactive)
REMARK    1  A    between atoms: C_2  and  O_3 
REMARK    2  A    between atoms: O_3  and  C_4 
REMARK    3  A    between atoms: C_4  and  C_5 
REMARK    4  A    between atoms: C_6  and  C_7 
REMARK    5  A    between atoms: C_14  and  C_15 
REMARK    6  A    between atoms: C_15  and  C_16 
REMARK       I    between atoms: C_16  and  N_17 
REMARK    7  A    between atoms: N_17  and  C_18 
REMARK    8  A    between atoms: C_18  and  C_19 
REMARK    9  A    between atoms: C_19  and  N_20 
REMARK   10  A    between atoms: C_31  and  C_32 
ROOT
HETATM    1  C   UNL     1      27.552  43.688  51.469  1.00  0.00     0.071 C 
HETATM    2  C   UNL     1      26.837  42.465  50.842  1.00  0.00     0.150 C 
HETATM    3  N   UNL     1      27.656  41.367  50.414  1.00  0.00    -0.321 N 
HETATM    4  C   UNL     1      27.653  40.474  49.480  1.00  0.00     0.011 C 
HETATM    5  C   UNL     1      28.493  40.970  51.609  1.00  0.00     0.170 C 
HETATM    6  S   UNL     1      29.157  39.385  51.441  1.00  0.00    -0.086 SA
HETATM    7  C   UNL     1      28.617  39.327  49.700  1.00  0.00     0.135 C 
HETATM    8  N   UNL     1      28.592  41.713  52.644  1.00  0.00    -0.223 NA
HETATM    9  C   UNL     1      28.237  43.076  52.587  1.00  0.00     0.084 C 
ENDROOT
BRANCH   4  10
HETATM   10  C   UNL     1      26.631  40.495  48.379  1.00  0.00     0.156 C 
BRANCH  10  11
HETATM   11  C   UNL     1      26.655  39.319  47.417  1.00  0.00     0.223 C 
HETATM   12  N   UNL     1      25.752  38.338  47.738  1.00  0.00    -0.359 N 
HETATM   13  H   UNL     1      25.220  38.449  48.598  1.00  0.00     0.162 HD
HETATM   14  O   UNL     1      27.413  39.251  46.456  1.00  0.00    -0.273 OA
BRANCH  12  15
HETATM   15  C   UNL     1      25.343  37.177  46.941  1.00  0.00     0.150 C 
BRANCH  15  16
HETATM   16  C   UNL     1      25.403  35.756  47.536  1.00  0.00     0.254 C 
BRANCH  16  17
HETATM   17  N   UNL     1      26.732  35.075  47.328  1.00  0.00    -0.070 N 
HETATM   18  H   UNL     1      27.267  35.265  48.196  1.00  0.00     0.279 HD
HETATM   19  C   UNL     1      27.536  35.677  46.182  1.00  0.00     0.235 C 
HETATM   20  C   UNL     1      27.690  34.545  45.185  1.00  0.00     0.029 C 
HETATM   21  C   UNL     1      27.763  33.318  46.069  1.00  0.00     0.029 C 
HETATM   22  C   UNL     1      26.676  33.581  47.091  1.00  0.00     0.235 C 
ENDBRANCH  16  17
ENDBRANCH  15  16
ENDBRANCH  12  15
ENDBRANCH  10  11
ENDBRANCH   4  10
BRANCH   2  23
HETATM   23  C   UNL     1      26.589  43.547  49.950  1.00  0.00     0.037 C 
HETATM   24  C   UNL     1      25.439  44.514  51.023  1.00  0.00    -0.009 C 
HETATM   25  C   UNL     1      23.756  43.983  51.034  1.00  0.00    -0.003 C 
HETATM   26  C   UNL     1      23.215  42.629  49.994  1.00  0.00    -0.001 C 
HETATM   27  C   UNL     1      24.322  41.819  48.822  1.00  0.00    -0.003 C 
HETATM   28  C   UNL     1      26.011  42.322  48.692  1.00  0.00    -0.009 C 
ENDBRANCH   2  23
BRANCH   1  29
HETATM   29  C   UNL     1      27.087  45.472  50.381  1.00  0.00     0.293 C 
HETATM   30  O   UNL     1      27.355  45.705  49.164  1.00  0.00    -0.259 OA
BRANCH  29  31
HETATM   31  O   UNL     1      26.390  46.632  50.884  1.00  0.00    -0.318 OA
BRANCH  31  32
HETATM   32  C   UNL     1      26.152  47.775  50.033  1.00  0.00     0.174 C 
HETATM   33  C   UNL     1      24.676  47.873  49.700  1.00  0.00     0.034 C 
ENDBRANCH  31  32
ENDBRANCH  29  31
ENDBRANCH   1  29
BRANCH   9  34
HETATM   34  C   UNL     1      28.885  43.670  53.810  1.00  0.00    -0.006 A 
HETATM   35  C   UNL     1      30.049  43.095  54.342  1.00  0.00     0.014 A 
HETATM   36  C   UNL     1      30.681  43.673  55.445  1.00  0.00     0.001 A 
HETATM   37  C   UNL     1      30.175  44.843  56.008  1.00  0.00     0.000 A 
HETATM   38  C   UNL     1      29.043  45.446  55.465  1.00  0.00     0.001 A 
HETATM   39  C   UNL     1      28.406  44.871  54.363  1.00  0.00     0.014 A 
ENDBRANCH   9  34
TORSDOF 10
ENDMDL
MODEL 9
REMARK VINA RESULT:      -8.2      4.599      9.753
REMARK  10 active torsions:
REMARK  status: ('A' for Active; 'I' for Inactive)
REMARK    1  A    between atoms: C_2  and  O_3 
REMARK    2  A    between atoms: O_3  and  C_4 
REMARK    3  A    between atoms: C_4  and  C_5 
REMARK    4  A    between atoms: C_6  and  C_7 
REMARK    5  A    between atoms: C_14  and  C_15 
REMARK    6  A    between atoms: C_15  and  C_16 
REMARK       I    between atoms: C_16  and  N_17 
REMARK    7  A    between atoms: N_17  and  C_18 
REMARK    8  A    between atoms: C_18  and  C_19 
REMARK    9  A    between atoms: C_19  and  N_20 
REMARK   10  A    between atoms: C_31  and  C_32 
ROOT
HETATM    1  C   UNL     1      27.510  43.722  51.388  1.00  0.00     0.071 C 
HETATM    2  C   UNL     1      26.773  42.530  50.729  1.00  0.00     0.150 C 
HETATM    3  N   UNL     1      27.574  41.441  50.246  1.00  0.00    -0.321 N 
HETATM    4  C   UNL     1      27.546  40.584  49.279  1.00  0.00     0.011 C 
HETATM    5  C   UNL     1      28.428  40.993  51.410  1.00  0.00     0.170 C 
HETATM    6  S   UNL     1      29.074  39.410  51.171  1.00  0.00    -0.086 SA
HETATM    7  C   UNL     1      28.503  39.421  49.439  1.00  0.00     0.135 C 
HETATM    8  N   UNL     1      28.552  41.696  52.470  1.00  0.00    -0.223 NA
HETATM    9  C   UNL     1      28.208  43.063  52.470  1.00  0.00     0.084 C 
ENDROOT
BRANCH   4  10
HETATM   10  C   UNL     1      26.506  40.655  48.198  1.00  0.00     0.156 C 
BRANCH  10  11
HETATM   11  C   UNL     1      26.926  40.154  46.826  1.00  0.00     0.223 C 
HETATM   12  N   UNL     1      27.622  41.086  46.098  1.00  0.00    -0.359 N 
HETATM   13  H   UNL     1      27.727  42.016  46.499  1.00  0.00     0.162 HD
HETATM   14  O   UNL     1      26.660  39.033  46.409  1.00  0.00    -0.273 OA
BRANCH  12  15
HETATM   15  C   UNL     1      28.360  40.900  44.845  1.00  0.00     0.150 C 
BRANCH  15  16
HETATM   16  C   UNL     1      27.691  41.200  43.489  1.00  0.00     0.254 C 
BRANCH  16  17
HETATM   17  N   UNL     1      26.625  42.263  43.570  1.00  0.00    -0.070 N 
HETATM   18  H   UNL     1      26.776  42.723  44.487  1.00  0.00     0.279 HD
HETATM   19  C   UNL     1      25.214  41.690  43.599  1.00  0.00     0.235 C 
HETATM   20  C   UNL     1      24.552  42.234  42.347  1.00  0.00     0.029 C 
HETATM   21  C   UNL     1      25.195  43.594  42.185  1.00  0.00     0.029 C 
HETATM   22  C   UNL     1      26.654  43.309  42.475  1.00  0.00     0.235 C 
ENDBRANCH  16  17
ENDBRANCH  15  16
ENDBRANCH  12  15
ENDBRANCH  10  11
ENDBRANCH   4  10
BRANCH   2  23
HETATM   23  C   UNL     1      26.519  43.646  49.883  1.00  0.00     0.037 C 
HETATM   24  C   UNL     1      25.470  44.624  51.044  1.00  0.00    -0.009 C 
HETATM   25  C   UNL     1      23.770  44.157  51.136  1.00  0.00    -0.003 C 
HETATM   26  C   UNL     1      23.119  42.857  50.091  1.00  0.00    -0.001 C 
HETATM   27  C   UNL     1      24.127  42.041  48.836  1.00  0.00    -0.003 C 
HETATM   28  C   UNL     1      25.825  42.482  48.625  1.00  0.00    -0.009 C 
ENDBRANCH   2  23
BRANCH   1  29
HETATM   29  C   UNL     1      27.042  45.550  50.376  1.00  0.00     0.293 C 
HETATM   30  O   UNL     1      27.372  45.862  49.193  1.00  0.00    -0.259 OA
BRANCH  29  31
HETATM   31  O   UNL     1      26.273  46.653  50.900  1.00  0.00    -0.318 OA
BRANCH  31  32
HETATM   32  C   UNL     1      26.037  47.832  50.099  1.00  0.00     0.174 C 
HETATM   33  C   UNL     1      24.569  47.921  49.732  1.00  0.00     0.034 C 
ENDBRANCH  31  32
ENDBRANCH  29  31
ENDBRANCH   1  29
BRANCH   9  34
HETATM   34  C   UNL     1      28.883  43.605  53.703  1.00  0.00    -0.006 A 
HETATM   35  C   UNL     1      30.038  42.986  54.206  1.00  0.00     0.014 A 
HETATM   36  C   UNL     1      30.694  43.516  55.319  1.00  0.00     0.001 A 
HETATM   37  C   UNL     1      30.223  44.682  55.920  1.00  0.00     0.000 A 
HETATM   38  C   UNL     1      29.102  45.328  55.406  1.00  0.00     0.001 A 
HETATM   39  C   UNL     1      28.441  44.801  54.294  1.00  0.00     0.014 A 
ENDBRANCH   9  34
TORSDOF 10
ENDMDL
MODEL 10
REMARK VINA RESULT:      -8.2      4.138     10.089
REMARK  10 active torsions:
REMARK  status: ('A' for Active; 'I' for Inactive)
REMARK    1  A    between atoms: C_2  and  O_3 
REMARK    2  A    between atoms: O_3  and  C_4 
REMARK    3  A    between atoms: C_4  and  C_5 
REMARK    4  A    between atoms: C_6  and  C_7 
REMARK    5  A    between atoms: C_14  and  C_15 
REMARK    6  A    between atoms: C_15  and  C_16 
REMARK       I    between atoms: C_16  and  N_17 
REMARK    7  A    between atoms: N_17  and  C_18 
REMARK    8  A    between atoms: C_18  and  C_19 
REMARK    9  A    between atoms: C_19  and  N_20 
REMARK   10  A    between atoms: C_31  and  C_32 
ROOT
HETATM    1  C   UNL     1      22.481  47.057  48.636  1.00  0.00     0.071 C 
HETATM    2  C   UNL     1      21.062  47.518  48.220  1.00  0.00     0.150 C 
HETATM    3  N   UNL     1      20.342  48.356  49.136  1.00  0.00    -0.321 N 
HETATM    4  C   UNL     1      19.117  48.554  49.496  1.00  0.00     0.011 C 
HETATM    5  C   UNL     1      21.244  49.532  49.434  1.00  0.00     0.170 C 
HETATM    6  S   UNL     1      20.375  50.865  50.103  1.00  0.00    -0.086 SA
HETATM    7  C   UNL     1      18.890  49.824  50.291  1.00  0.00     0.135 C 
HETATM    8  N   UNL     1      22.483  49.532  49.121  1.00  0.00    -0.223 NA
HETATM    9  C   UNL     1      23.150  48.326  48.823  1.00  0.00     0.084 C 
ENDROOT
BRANCH   4  10
HETATM   10  C   UNL     1      18.000  47.686  48.990  1.00  0.00     0.156 C 
BRANCH  10  11
HETATM   11  C   UNL     1      16.819  48.408  48.363  1.00  0.00     0.223 C 
HETATM   12  N   UNL     1      17.189  49.429  47.525  1.00  0.00    -0.359 N 
HETATM   13  H   UNL     1      18.181  49.648  47.458  1.00  0.00     0.162 HD
HETATM   14  O   UNL     1      15.652  48.112  48.592  1.00  0.00    -0.273 OA
BRANCH  12  15
HETATM   15  C   UNL     1      16.354  50.195  46.594  1.00  0.00     0.150 C 
BRANCH  15  16
HETATM   16  C   UNL     1      15.802  49.538  45.314  1.00  0.00     0.254 C 
BRANCH  16  17
HETATM   17  N   UNL     1      14.981  48.301  45.582  1.00  0.00    -0.070 N 
HETATM   18  H   UNL     1      15.235  48.018  46.546  1.00  0.00     0.279 HD
HETATM   19  C   UNL     1      15.348  47.134  44.675  1.00  0.00     0.235 C 
HETATM   20  C   UNL     1      14.084  46.847  43.888  1.00  0.00     0.029 C 
HETATM   21  C   UNL     1      12.985  47.185  44.872  1.00  0.00     0.029 C 
HETATM   22  C   UNL     1      13.480  48.476  45.491  1.00  0.00     0.235 C 
ENDBRANCH  16  17
ENDBRANCH  15  16
ENDBRANCH  12  15
ENDBRANCH  10  11
ENDBRANCH   4  10
BRANCH   2  23
HETATM   23  C   UNL     1      20.978  46.102  48.347  1.00  0.00     0.037 C 
HETATM   24  C   UNL     1      22.119  45.646  46.970  1.00  0.00    -0.009 C 
HETATM   25  C   UNL     1      21.425  45.659  45.348  1.00  0.00    -0.003 C 
HETATM   26  C   UNL     1      19.690  46.025  45.097  1.00  0.00    -0.001 C 
HETATM   27  C   UNL     1      18.556  46.290  46.476  1.00  0.00    -0.003 C 
HETATM   28  C   UNL     1      19.145  46.235  48.141  1.00  0.00    -0.009 C 
ENDBRANCH   2  23
BRANCH   1  29
HETATM   29  C   UNL     1      22.607  44.920  48.643  1.00  0.00     0.293 C 
HETATM   30  O   UNL     1      21.822  44.121  49.239  1.00  0.00    -0.259 OA
BRANCH  29  31
HETATM   31  O   UNL     1      23.584  44.111  47.957  1.00  0.00    -0.318 OA
BRANCH  31  32
HETATM   32  C   UNL     1      24.560  43.346  48.698  1.00  0.00     0.174 C 
HETATM   33  C   UNL     1      25.360  44.265  49.600  1.00  0.00     0.034 C 
ENDBRANCH  31  32
ENDBRANCH  29  31
ENDBRANCH   1  29
BRANCH   9  34
HETATM   34  C   UNL     1      24.609  48.680  48.941  1.00  0.00    -0.006 A 
HETATM   35  C   UNL     1      25.471  47.880  49.706  1.00  0.00     0.014 A 
HETATM   36  C   UNL     1      26.833  48.177  49.777  1.00  0.00     0.001 A 
HETATM   37  C   UNL     1      27.352  49.256  49.063  1.00  0.00     0.000 A 
HETATM   38  C   UNL     1      26.514  50.035  48.267  1.00  0.00     0.001 A 
HETATM   39  C   UNL     1      25.150  49.742  48.195  1.00  0.00     0.014 A 
ENDBRANCH   9  34
TORSDOF 10
ENDMDL
