MODEL 1
REMARK VINA RESULT:      -9.1      0.000      0.000
REMARK  6 active torsions:
REMARK  status: ('A' for Active; 'I' for Inactive)
REMARK    1  A    between atoms: C_2  and  O_3 
REMARK    2  A    between atoms: C_2  and  C_4 
REMARK    3  A    between atoms: C_7  and  N_8 
REMARK       I    between atoms: N_8  and  C_9 
REMARK    4  A    between atoms: C_9  and  C_10 
REMARK    5  A    between atoms: C_13  and  C_14 
REMARK    6  A    between atoms: C_19  and  C_20 
ROOT
HETATM    1  C   UNL     1      25.566  45.113  51.375  1.00  0.00     0.096 C 
HETATM    2  C   UNL     1      24.782  45.835  50.494  1.00  0.00     0.138 C 
HETATM    3  N   UNL     1      24.132  44.901  49.718  1.00  0.00    -0.240 N 
HETATM    4  C   UNL     1      23.231  45.218  48.626  1.00  0.00     0.221 C 
HETATM    5  C   UNL     1      22.825  46.702  48.665  1.00  0.00     0.068 C 
HETATM    6  C   UNL     1      24.039  47.584  48.982  1.00  0.00     0.143 C 
HETATM    7  N   UNL     1      24.594  47.171  50.285  1.00  0.00    -0.363 N 
HETATM    8  N   UNL     1      24.576  43.650  49.910  1.00  0.00    -0.181 NA
HETATM    9  C   UNL     1      25.419  43.774  50.938  1.00  0.00     0.160 C 
HETATM   10  H   UNL     1      25.349  47.800  50.569  1.00  0.00     0.162 HD
ENDROOT
BRANCH   1  11
HETATM   11  C   UNL     1      26.403  45.564  52.475  1.00  0.00     0.261 C 
HETATM   12  N   UNL     1      27.170  44.559  53.035  1.00  0.00    -0.323 N 
HETATM   13  H   UNL     1      27.124  43.663  52.565  1.00  0.00     0.169 HD
HETATM   14  O   UNL     1      26.413  46.746  52.796  1.00  0.00    -0.267 OA
BRANCH  12  15
HETATM   15  C   UNL     1      28.101  44.676  54.087  1.00  0.00     0.035 A 
HETATM   16  C   UNL     1      28.093  45.708  55.026  1.00  0.00     0.030 A 
HETATM   17  C   UNL     1      29.069  45.768  56.028  1.00  0.00     0.012 A 
HETATM   18  C   UNL     1      30.076  44.799  56.113  1.00  0.00    -0.030 A 
HETATM   19  C   UNL     1      30.067  43.751  55.183  1.00  0.00     0.012 A 
HETATM   20  C   UNL     1      29.091  43.691  54.181  1.00  0.00     0.030 A 
BRANCH  18  21
HETATM   21  C   UNL     1      31.118  44.890  57.207  1.00  0.00     0.147 C 
HETATM   22  C   UNL     1      30.568  45.578  58.450  1.00  0.00     0.044 C 
BRANCH  21  23
HETATM   23  O   UNL     1      31.577  43.586  57.561  1.00  0.00    -0.391 OA
HETATM   24  H   UNL     1      31.116  43.336  58.379  1.00  0.00     0.210 HD
ENDBRANCH  21  23
ENDBRANCH  18  21
ENDBRANCH  12  15
ENDBRANCH   1  11
BRANCH   4  25
HETATM   25  C   UNL     1      21.988  44.354  48.660  1.00  0.00     0.409 C 
HETATM   26  F   UNL     1      21.573  44.102  49.922  1.00  0.00    -0.169 F 
HETATM   27  F   UNL     1      20.965  45.005  48.041  1.00  0.00    -0.169 F 
HETATM   28  F   UNL     1      22.127  43.178  48.015  1.00  0.00    -0.169 F 
ENDBRANCH   4  25
BRANCH   6  29
HETATM   29  C   UNL     1      23.648  49.025  48.930  1.00  0.00     0.075 A 
HETATM   30  O   UNL     1      22.791  49.455  49.901  1.00  0.00    -0.325 OA
HETATM   31  C   UNL     1      22.580  50.779  49.688  1.00  0.00     0.142 A 
HETATM   32  C   UNL     1      23.291  51.209  48.592  1.00  0.00     0.027 A 
HETATM   33  C   UNL     1      23.982  50.076  48.100  1.00  0.00     0.037 A 
ENDBRANCH   6  29
TORSDOF 6
ENDMDL
MODEL 2
REMARK VINA RESULT:      -9.1      4.467      8.490
REMARK  6 active torsions:
REMARK  status: ('A' for Active; 'I' for Inactive)
REMARK    1  A    between atoms: C_2  and  O_3 
REMARK    2  A    between atoms: C_2  and  C_4 
REMARK    3  A    between atoms: C_7  and  N_8 
REMARK       I    between atoms: N_8  and  C_9 
REMARK    4  A    between atoms: C_9  and  C_10 
REMARK    5  A    between atoms: C_13  and  C_14 
REMARK    6  A    between atoms: C_19  and  C_20 
ROOT
HETATM    1  C   UNL     1      26.071  45.171  52.666  1.00  0.00     0.096 C 
HETATM    2  C   UNL     1      26.990  45.526  53.637  1.00  0.00     0.138 C 
HETATM    3  N   UNL     1      26.766  46.861  53.894  1.00  0.00    -0.240 N 
HETATM    4  C   UNL     1      27.539  47.662  54.826  1.00  0.00     0.221 C 
HETATM    5  C   UNL     1      28.400  46.767  55.733  1.00  0.00     0.068 C 
HETATM    6  C   UNL     1      29.048  45.640  54.920  1.00  0.00     0.143 C 
HETATM    7  N   UNL     1      27.980  44.846  54.283  1.00  0.00    -0.363 N 
HETATM    8  N   UNL     1      25.906  47.430  53.039  1.00  0.00    -0.181 NA
HETATM    9  C   UNL     1      25.457  46.399  52.317  1.00  0.00     0.160 C 
HETATM   10  H   UNL     1      28.375  44.031  53.808  1.00  0.00     0.162 HD
ENDROOT
BRANCH   1  11
HETATM   11  C   UNL     1      25.788  43.877  52.069  1.00  0.00     0.261 C 
HETATM   12  N   UNL     1      26.894  43.278  51.496  1.00  0.00    -0.323 N 
HETATM   13  H   UNL     1      27.773  43.763  51.634  1.00  0.00     0.169 HD
HETATM   14  O   UNL     1      24.663  43.398  52.141  1.00  0.00    -0.267 OA
BRANCH  12  15
HETATM   15  C   UNL     1      26.960  42.016  50.870  1.00  0.00     0.035 A 
HETATM   16  C   UNL     1      25.962  41.506  50.039  1.00  0.00     0.030 A 
HETATM   17  C   UNL     1      26.089  40.231  49.473  1.00  0.00     0.012 A 
HETATM   18  C   UNL     1      27.214  39.438  49.727  1.00  0.00    -0.030 A 
HETATM   19  C   UNL     1      28.225  39.963  50.542  1.00  0.00     0.012 A 
HETATM   20  C   UNL     1      28.098  41.238  51.108  1.00  0.00     0.030 A 
BRANCH  18  21
HETATM   21  C   UNL     1      27.324  38.064  49.102  1.00  0.00     0.147 C 
HETATM   22  C   UNL     1      28.674  37.862  48.424  1.00  0.00     0.044 C 
BRANCH  21  23
HETATM   23  O   UNL     1      27.145  37.054  50.093  1.00  0.00    -0.391 OA
HETATM   24  H   UNL     1      28.031  36.760  50.362  1.00  0.00     0.210 HD
ENDBRANCH  21  23
ENDBRANCH  18  21
ENDBRANCH  12  15
ENDBRANCH   1  11
BRANCH   4  25
HETATM   25  C   UNL     1      26.647  48.539  55.680  1.00  0.00     0.409 C 
HETATM   26  F   UNL     1      26.670  48.179  56.983  1.00  0.00    -0.169 F 
HETATM   27  F   UNL     1      27.091  49.825  55.627  1.00  0.00    -0.169 F 
HETATM   28  F   UNL     1      25.364  48.570  55.269  1.00  0.00    -0.169 F 
ENDBRANCH   4  25
BRANCH   6  29
HETATM   29  C   UNL     1      29.949  44.833  55.797  1.00  0.00     0.075 A 
HETATM   30  O   UNL     1      30.189  45.335  57.044  1.00  0.00    -0.325 OA
HETATM   31  C   UNL     1      31.005  44.455  57.678  1.00  0.00     0.142 A 
HETATM   32  C   UNL     1      31.294  43.390  56.856  1.00  0.00     0.027 A 
HETATM   33  C   UNL     1      30.613  43.634  55.639  1.00  0.00     0.037 A 
ENDBRANCH   6  29
TORSDOF 6
ENDMDL
MODEL 3
REMARK VINA RESULT:      -9.0      3.039      9.148
REMARK  6 active torsions:
REMARK  status: ('A' for Active; 'I' for Inactive)
REMARK    1  A    between atoms: C_2  and  O_3 
REMARK    2  A    between atoms: C_2  and  C_4 
REMARK    3  A    between atoms: C_7  and  N_8 
REMARK       I    between atoms: N_8  and  C_9 
REMARK    4  A    between atoms: C_9  and  C_10 
REMARK    5  A    between atoms: C_13  and  C_14 
REMARK    6  A    between atoms: C_19  and  C_20 
ROOT
HETATM    1  C   UNL     1      23.918  46.674  49.760  1.00  0.00     0.096 C 
HETATM    2  C   UNL     1      24.712  46.216  50.796  1.00  0.00     0.138 C 
HETATM    3  N   UNL     1      24.967  44.892  50.515  1.00  0.00    -0.240 N 
HETATM    4  C   UNL     1      25.734  44.001  51.367  1.00  0.00     0.221 C 
HETATM    5  C   UNL     1      26.510  44.795  52.431  1.00  0.00     0.068 C 
HETATM    6  C   UNL     1      25.631  45.905  53.021  1.00  0.00     0.143 C 
HETATM    7  N   UNL     1      25.202  46.798  51.928  1.00  0.00    -0.363 N 
HETATM    8  N   UNL     1      24.252  44.420  49.484  1.00  0.00    -0.181 NA
HETATM    9  C   UNL     1      23.644  45.508  49.004  1.00  0.00     0.160 C 
HETATM   10  H   UNL     1      24.690  47.601  52.301  1.00  0.00     0.162 HD
ENDROOT
BRANCH   1  11
HETATM   11  C   UNL     1      23.412  48.008  49.483  1.00  0.00     0.261 C 
HETATM   12  N   UNL     1      22.056  48.041  49.216  1.00  0.00    -0.323 N 
HETATM   13  H   UNL     1      21.568  47.160  49.328  1.00  0.00     0.169 HD
HETATM   14  O   UNL     1      24.161  48.975  49.541  1.00  0.00    -0.267 OA
BRANCH  12  15
HETATM   15  C   UNL     1      21.262  49.174  48.944  1.00  0.00     0.035 A 
HETATM   16  C   UNL     1      21.115  50.252  49.817  1.00  0.00     0.030 A 
HETATM   17  C   UNL     1      20.287  51.331  49.485  1.00  0.00     0.012 A 
HETATM   18  C   UNL     1      19.585  51.356  48.274  1.00  0.00    -0.030 A 
HETATM   19  C   UNL     1      19.754  50.282  47.389  1.00  0.00     0.012 A 
HETATM   20  C   UNL     1      20.582  49.204  47.721  1.00  0.00     0.030 A 
BRANCH  18  21
HETATM   21  C   UNL     1      18.698  52.535  47.942  1.00  0.00     0.147 C 
HETATM   22  C   UNL     1      17.731  52.208  46.811  1.00  0.00     0.044 C 
BRANCH  21  23
HETATM   23  O   UNL     1      17.952  52.931  49.091  1.00  0.00    -0.391 OA
HETATM   24  H   UNL     1      17.746  52.122  49.589  1.00  0.00     0.210 HD
ENDBRANCH  21  23
ENDBRANCH  18  21
ENDBRANCH  12  15
ENDBRANCH   1  11
BRANCH   4  25
HETATM   25  C   UNL     1      26.701  43.157  50.562  1.00  0.00     0.409 C 
HETATM   26  F   UNL     1      27.797  42.813  51.276  1.00  0.00    -0.169 F 
HETATM   27  F   UNL     1      26.096  41.993  50.201  1.00  0.00    -0.169 F 
HETATM   28  F   UNL     1      27.105  43.740  49.416  1.00  0.00    -0.169 F 
ENDBRANCH   4  25
BRANCH   6  29
HETATM   29  C   UNL     1      26.366  46.610  54.115  1.00  0.00     0.075 A 
HETATM   30  O   UNL     1      25.783  47.743  54.603  1.00  0.00    -0.325 OA
HETATM   31  C   UNL     1      26.590  48.214  55.587  1.00  0.00     0.142 A 
HETATM   32  C   UNL     1      27.687  47.398  55.742  1.00  0.00     0.027 A 
HETATM   33  C   UNL     1      27.545  46.360  54.789  1.00  0.00     0.037 A 
ENDBRANCH   6  29
TORSDOF 6
ENDMDL
MODEL 4
REMARK VINA RESULT:      -8.9      1.624      2.001
REMARK  6 active torsions:
REMARK  status: ('A' for Active; 'I' for Inactive)
REMARK    1  A    between atoms: C_2  and  O_3 
REMARK    2  A    between atoms: C_2  and  C_4 
REMARK    3  A    between atoms: C_7  and  N_8 
REMARK       I    between atoms: N_8  and  C_9 
REMARK    4  A    between atoms: C_9  and  C_10 
REMARK    5  A    between atoms: C_13  and  C_14 
REMARK    6  A    between atoms: C_19  and  C_20 
ROOT
HETATM    1  C   UNL     1      24.662  46.126  50.094  1.00  0.00     0.096 C 
HETATM    2  C   UNL     1      23.581  46.726  49.473  1.00  0.00     0.138 C 
HETATM    3  N   UNL     1      23.077  45.782  48.605  1.00  0.00    -0.240 N 
HETATM    4  C   UNL     1      21.955  46.000  47.710  1.00  0.00     0.221 C 
HETATM    5  C   UNL     1      21.191  47.279  48.093  1.00  0.00     0.068 C 
HETATM    6  C   UNL     1      22.169  48.408  48.438  1.00  0.00     0.143 C 
HETATM    7  N   UNL     1      23.021  47.967  49.559  1.00  0.00    -0.363 N 
HETATM    8  N   UNL     1      23.856  44.697  48.490  1.00  0.00    -0.181 NA
HETATM    9  C   UNL     1      24.797  44.890  49.418  1.00  0.00     0.160 C 
HETATM   10  H   UNL     1      23.623  48.732  49.874  1.00  0.00     0.162 HD
ENDROOT
BRANCH   1  11
HETATM   11  C   UNL     1      25.523  46.615  51.159  1.00  0.00     0.261 C 
HETATM   12  N   UNL     1      25.906  45.634  52.055  1.00  0.00    -0.323 N 
HETATM   13  H   UNL     1      25.617  44.692  51.819  1.00  0.00     0.169 HD
HETATM   14  O   UNL     1      25.876  47.787  51.175  1.00  0.00    -0.267 OA
BRANCH  12  15
HETATM   15  C   UNL     1      26.758  45.775  53.169  1.00  0.00     0.035 A 
HETATM   16  C   UNL     1      26.793  46.906  53.986  1.00  0.00     0.030 A 
HETATM   17  C   UNL     1      27.687  46.981  55.061  1.00  0.00     0.012 A 
HETATM   18  C   UNL     1      28.566  45.929  55.344  1.00  0.00    -0.030 A 
HETATM   19  C   UNL     1      28.511  44.785  54.536  1.00  0.00     0.012 A 
HETATM   20  C   UNL     1      27.618  44.710  53.461  1.00  0.00     0.030 A 
BRANCH  18  21
HETATM   21  C   UNL     1      29.521  46.038  56.512  1.00  0.00     0.147 C 
HETATM   22  C   UNL     1      28.776  46.120  57.839  1.00  0.00     0.044 C 
BRANCH  21  23
HETATM   23  O   UNL     1      30.399  44.914  56.540  1.00  0.00    -0.391 OA
HETATM   24  H   UNL     1      31.140  45.148  57.123  1.00  0.00     0.210 HD
ENDBRANCH  21  23
ENDBRANCH  18  21
ENDBRANCH  12  15
ENDBRANCH   1  11
BRANCH   4  25
HETATM   25  C   UNL     1      21.003  44.822  47.713  1.00  0.00     0.409 C 
HETATM   26  F   UNL     1      20.813  44.320  48.954  1.00  0.00    -0.169 F 
HETATM   27  F   UNL     1      19.781  45.226  47.270  1.00  0.00    -0.169 F 
HETATM   28  F   UNL     1      21.382  43.816  46.900  1.00  0.00    -0.169 F 
ENDBRANCH   4  25
BRANCH   6  29
HETATM   29  C   UNL     1      21.414  49.666  48.721  1.00  0.00     0.075 A 
HETATM   30  O   UNL     1      20.762  49.724  49.919  1.00  0.00    -0.325 OA
HETATM   31  C   UNL     1      20.162  50.940  49.987  1.00  0.00     0.142 A 
HETATM   32  C   UNL     1      20.421  51.669  48.850  1.00  0.00     0.027 A 
HETATM   33  C   UNL     1      21.230  50.846  48.029  1.00  0.00     0.037 A 
ENDBRANCH   6  29
TORSDOF 6
ENDMDL
MODEL 5
REMARK VINA RESULT:      -8.9      4.888      9.033
REMARK  6 active torsions:
REMARK  status: ('A' for Active; 'I' for Inactive)
REMARK    1  A    between atoms: C_2  and  O_3 
REMARK    2  A    between atoms: C_2  and  C_4 
REMARK    3  A    between atoms: C_7  and  N_8 
REMARK       I    between atoms: N_8  and  C_9 
REMARK    4  A    between atoms: C_9  and  C_10 
REMARK    5  A    between atoms: C_13  and  C_14 
REMARK    6  A    between atoms: C_19  and  C_20 
ROOT
HETATM    1  C   UNL     1      27.461  43.362  51.768  1.00  0.00     0.096 C 
HETATM    2  C   UNL     1      27.923  44.016  52.896  1.00  0.00     0.138 C 
HETATM    3  N   UNL     1      27.232  45.206  52.949  1.00  0.00    -0.240 N 
HETATM    4  C   UNL     1      27.431  46.232  53.956  1.00  0.00     0.221 C 
HETATM    5  C   UNL     1      28.250  45.685  55.138  1.00  0.00     0.068 C 
HETATM    6  C   UNL     1      29.413  44.822  54.635  1.00  0.00     0.143 C 
HETATM    7  N   UNL     1      28.863  43.710  53.837  1.00  0.00    -0.363 N 
HETATM    8  N   UNL     1      26.501  45.445  51.851  1.00  0.00    -0.181 NA
HETATM    9  C   UNL     1      26.612  44.313  51.151  1.00  0.00     0.160 C 
HETATM   10  H   UNL     1      29.607  43.064  53.563  1.00  0.00     0.162 HD
ENDROOT
BRANCH   1  11
HETATM   11  C   UNL     1      27.771  42.037  51.257  1.00  0.00     0.261 C 
HETATM   12  N   UNL     1      27.226  41.782  50.012  1.00  0.00    -0.323 N 
HETATM   13  H   UNL     1      26.755  42.566  49.574  1.00  0.00     0.169 HD
HETATM   14  O   UNL     1      28.491  41.282  51.899  1.00  0.00    -0.267 OA
BRANCH  12  15
HETATM   15  C   UNL     1      27.366  40.614  49.236  1.00  0.00     0.035 A 
HETATM   16  C   UNL     1      28.211  40.509  48.131  1.00  0.00     0.030 A 
HETATM   17  C   UNL     1      28.277  39.320  47.394  1.00  0.00     0.012 A 
HETATM   18  C   UNL     1      27.498  38.210  47.744  1.00  0.00    -0.030 A 
HETATM   19  C   UNL     1      26.668  38.312  48.869  1.00  0.00     0.012 A 
HETATM   20  C   UNL     1      26.603  39.501  49.605  1.00  0.00     0.030 A 
BRANCH  18  21
HETATM   21  C   UNL     1      27.589  36.938  46.930  1.00  0.00     0.147 C 
HETATM   22  C   UNL     1      28.908  36.851  46.172  1.00  0.00     0.044 C 
BRANCH  21  23
HETATM   23  O   UNL     1      27.463  35.798  47.778  1.00  0.00    -0.391 OA
HETATM   24  H   UNL     1      27.643  36.098  48.684  1.00  0.00     0.210 HD
ENDBRANCH  21  23
ENDBRANCH  18  21
ENDBRANCH  12  15
ENDBRANCH   1  11
BRANCH   4  25
HETATM   25  C   UNL     1      26.113  46.779  54.463  1.00  0.00     0.409 C 
HETATM   26  F   UNL     1      25.517  47.596  53.566  1.00  0.00    -0.169 F 
HETATM   27  F   UNL     1      25.249  45.750  54.681  1.00  0.00    -0.169 F 
HETATM   28  F   UNL     1      26.215  47.436  55.636  1.00  0.00    -0.169 F 
ENDBRANCH   4  25
BRANCH   6  29
HETATM   29  C   UNL     1      30.249  44.372  55.789  1.00  0.00     0.075 A 
HETATM   30  O   UNL     1      30.237  45.174  56.894  1.00  0.00    -0.325 OA
HETATM   31  C   UNL     1      31.035  44.585  57.821  1.00  0.00     0.142 A 
HETATM   32  C   UNL     1      31.560  43.413  57.330  1.00  0.00     0.027 A 
HETATM   33  C   UNL     1      31.054  43.274  56.014  1.00  0.00     0.037 A 
ENDBRANCH   6  29
TORSDOF 6
ENDMDL
MODEL 6
REMARK VINA RESULT:      -8.8      3.251      8.746
REMARK  6 active torsions:
REMARK  status: ('A' for Active; 'I' for Inactive)
REMARK    1  A    between atoms: C_2  and  O_3 
REMARK    2  A    between atoms: C_2  and  C_4 
REMARK    3  A    between atoms: C_7  and  N_8 
REMARK       I    between atoms: N_8  and  C_9 
REMARK    4  A    between atoms: C_9  and  C_10 
REMARK    5  A    between atoms: C_13  and  C_14 
REMARK    6  A    between atoms: C_19  and  C_20 
ROOT
HETATM    1  C   UNL     1      25.346  43.126  50.926  1.00  0.00     0.096 C 
HETATM    2  C   UNL     1      26.450  42.704  51.644  1.00  0.00     0.138 C 
HETATM    3  N   UNL     1      26.693  41.412  51.233  1.00  0.00    -0.240 N 
HETATM    4  C   UNL     1      27.744  40.562  51.763  1.00  0.00     0.221 C 
HETATM    5  C   UNL     1      28.756  41.386  52.577  1.00  0.00     0.068 C 
HETATM    6  C   UNL     1      28.031  42.406  53.463  1.00  0.00     0.143 C 
HETATM    7  N   UNL     1      27.226  43.292  52.600  1.00  0.00    -0.363 N 
HETATM    8  N   UNL     1      25.728  40.913  50.449  1.00  0.00    -0.181 NA
HETATM    9  C   UNL     1      24.930  41.962  50.233  1.00  0.00     0.160 C 
HETATM   10  H   UNL     1      26.802  44.042  53.151  1.00  0.00     0.162 HD
ENDROOT
BRANCH   1  11
HETATM   11  C   UNL     1      24.691  44.423  50.884  1.00  0.00     0.261 C 
HETATM   12  N   UNL     1      24.598  44.956  49.612  1.00  0.00    -0.323 N 
HETATM   13  H   UNL     1      24.914  44.351  48.862  1.00  0.00     0.169 HD
HETATM   14  O   UNL     1      24.245  44.920  51.911  1.00  0.00    -0.267 OA
BRANCH  12  15
HETATM   15  C   UNL     1      23.995  46.172  49.233  1.00  0.00     0.035 A 
HETATM   16  C   UNL     1      22.774  46.262  48.564  1.00  0.00     0.030 A 
HETATM   17  C   UNL     1      22.252  47.509  48.197  1.00  0.00     0.012 A 
HETATM   18  C   UNL     1      22.940  48.693  48.491  1.00  0.00    -0.030 A 
HETATM   19  C   UNL     1      24.154  48.600  49.184  1.00  0.00     0.012 A 
HETATM   20  C   UNL     1      24.676  47.353  49.549  1.00  0.00     0.030 A 
BRANCH  18  21
HETATM   21  C   UNL     1      22.352  50.026  48.083  1.00  0.00     0.147 C 
HETATM   22  C   UNL     1      21.947  50.856  49.295  1.00  0.00     0.044 C 
BRANCH  21  23
HETATM   23  O   UNL     1      23.293  50.765  47.306  1.00  0.00    -0.391 OA
HETATM   24  H   UNL     1      23.357  50.324  46.443  1.00  0.00     0.210 HD
ENDBRANCH  21  23
ENDBRANCH  18  21
ENDBRANCH  12  15
ENDBRANCH   1  11
BRANCH   4  25
HETATM   25  C   UNL     1      28.469  39.820  50.660  1.00  0.00     0.409 C 
HETATM   26  F   UNL     1      28.846  40.638  49.652  1.00  0.00    -0.169 F 
HETATM   27  F   UNL     1      29.611  39.269  51.157  1.00  0.00    -0.169 F 
HETATM   28  F   UNL     1      27.760  38.799  50.136  1.00  0.00    -0.169 F 
ENDBRANCH   4  25
BRANCH   6  29
HETATM   29  C   UNL     1      29.019  43.138  54.312  1.00  0.00     0.075 A 
HETATM   30  O   UNL     1      28.615  44.342  54.810  1.00  0.00    -0.325 OA
HETATM   31  C   UNL     1      29.638  44.827  55.559  1.00  0.00     0.142 A 
HETATM   32  C   UNL     1      30.697  43.950  55.551  1.00  0.00     0.027 A 
HETATM   33  C   UNL     1      30.300  42.857  54.744  1.00  0.00     0.037 A 
ENDBRANCH   6  29
TORSDOF 6
ENDMDL
MODEL 7
REMARK VINA RESULT:      -8.5      1.986      2.773
REMARK  6 active torsions:
REMARK  status: ('A' for Active; 'I' for Inactive)
REMARK    1  A    between atoms: C_2  and  O_3 
REMARK    2  A    between atoms: C_2  and  C_4 
REMARK    3  A    between atoms: C_7  and  N_8 
REMARK       I    between atoms: N_8  and  C_9 
REMARK    4  A    between atoms: C_9  and  C_10 
REMARK    5  A    between atoms: C_13  and  C_14 
REMARK    6  A    between atoms: C_19  and  C_20 
ROOT
HETATM    1  C   UNL     1      23.999  46.011  49.621  1.00  0.00     0.096 C 
HETATM    2  C   UNL     1      22.954  46.728  49.066  1.00  0.00     0.138 C 
HETATM    3  N   UNL     1      22.464  45.946  48.044  1.00  0.00    -0.240 N 
HETATM    4  C   UNL     1      21.381  46.330  47.157  1.00  0.00     0.221 C 
HETATM    5  C   UNL     1      20.628  47.552  47.712  1.00  0.00     0.068 C 
HETATM    6  C   UNL     1      21.615  48.588  48.264  1.00  0.00     0.143 C 
HETATM    7  N   UNL     1      22.416  47.954  49.329  1.00  0.00    -0.363 N 
HETATM    8  N   UNL     1      23.225  44.874  47.784  1.00  0.00    -0.181 NA
HETATM    9  C   UNL     1      24.135  44.894  48.762  1.00  0.00     0.160 C 
HETATM   10  H   UNL     1      23.021  48.644  49.781  1.00  0.00     0.162 HD
ENDROOT
BRANCH   1  11
HETATM   11  C   UNL     1      24.830  46.304  50.777  1.00  0.00     0.261 C 
HETATM   12  N   UNL     1      25.464  45.192  51.298  1.00  0.00    -0.323 N 
HETATM   13  H   UNL     1      25.345  44.335  50.771  1.00  0.00     0.169 HD
HETATM   14  O   UNL     1      24.949  47.457  51.173  1.00  0.00    -0.267 OA
BRANCH  12  15
HETATM   15  C   UNL     1      26.357  45.145  52.389  1.00  0.00     0.035 A 
HETATM   16  C   UNL     1      26.236  45.939  53.530  1.00  0.00     0.030 A 
HETATM   17  C   UNL     1      27.180  45.852  54.562  1.00  0.00     0.012 A 
HETATM   18  C   UNL     1      28.265  44.972  54.475  1.00  0.00    -0.030 A 
HETATM   19  C   UNL     1      28.369  44.159  53.338  1.00  0.00     0.012 A 
HETATM   20  C   UNL     1      27.426  44.246  52.307  1.00  0.00     0.030 A 
BRANCH  18  21
HETATM   21  C   UNL     1      29.268  44.900  55.605  1.00  0.00     0.147 C 
HETATM   22  C   UNL     1      30.337  43.847  55.340  1.00  0.00     0.044 C 
BRANCH  21  23
HETATM   23  O   UNL     1      29.898  46.166  55.788  1.00  0.00    -0.391 OA
HETATM   24  H   UNL     1      30.075  46.260  56.739  1.00  0.00     0.210 HD
ENDBRANCH  21  23
ENDBRANCH  18  21
ENDBRANCH  12  15
ENDBRANCH   1  11
BRANCH   4  25
HETATM   25  C   UNL     1      20.406  45.192  46.942  1.00  0.00     0.409 C 
HETATM   26  F   UNL     1      19.201  45.623  46.508  1.00  0.00    -0.169 F 
HETATM   27  F   UNL     1      20.887  44.359  45.979  1.00  0.00    -0.169 F 
HETATM   28  F   UNL     1      20.215  44.427  48.036  1.00  0.00    -0.169 F 
ENDBRANCH   4  25
BRANCH   6  29
HETATM   29  C   UNL     1      20.875  49.804  48.717  1.00  0.00     0.075 A 
HETATM   30  O   UNL     1      20.161  49.682  49.874  1.00  0.00    -0.325 OA
HETATM   31  C   UNL     1      19.586  50.888  50.117  1.00  0.00     0.142 A 
HETATM   32  C   UNL     1      19.922  51.787  49.132  1.00  0.00     0.027 A 
HETATM   33  C   UNL     1      20.755  51.088  48.225  1.00  0.00     0.037 A 
ENDBRANCH   6  29
TORSDOF 6
ENDMDL
MODEL 8
REMARK VINA RESULT:      -8.5      3.184      5.250
REMARK  6 active torsions:
REMARK  status: ('A' for Active; 'I' for Inactive)
REMARK    1  A    between atoms: C_2  and  O_3 
REMARK    2  A    between atoms: C_2  and  C_4 
REMARK    3  A    between atoms: C_7  and  N_8 
REMARK       I    between atoms: N_8  and  C_9 
REMARK    4  A    between atoms: C_9  and  C_10 
REMARK    5  A    between atoms: C_13  and  C_14 
REMARK    6  A    between atoms: C_19  and  C_20 
ROOT
HETATM    1  C   UNL     1      25.904  43.861  51.495  1.00  0.00     0.096 C 
HETATM    2  C   UNL     1      25.422  43.042  50.490  1.00  0.00     0.138 C 
HETATM    3  N   UNL     1      24.124  43.447  50.267  1.00  0.00    -0.240 N 
HETATM    4  C   UNL     1      23.218  42.829  49.316  1.00  0.00     0.221 C 
HETATM    5  C   UNL     1      23.984  41.903  48.355  1.00  0.00     0.068 C 
HETATM    6  C   UNL     1      25.027  41.078  49.118  1.00  0.00     0.143 C 
HETATM    7  N   UNL     1      25.960  42.003  49.788  1.00  0.00    -0.363 N 
HETATM    8  N   UNL     1      23.681  44.333  51.170  1.00  0.00    -0.181 NA
HETATM    9  C   UNL     1      24.770  44.611  51.893  1.00  0.00     0.160 C 
HETATM   10  H   UNL     1      26.723  41.485  50.231  1.00  0.00     0.162 HD
ENDROOT
BRANCH   1  11
HETATM   11  C   UNL     1      27.232  43.947  52.081  1.00  0.00     0.261 C 
HETATM   12  N   UNL     1      27.227  43.951  53.464  1.00  0.00    -0.323 N 
HETATM   13  H   UNL     1      26.322  43.810  53.897  1.00  0.00     0.169 HD
HETATM   14  O   UNL     1      28.222  43.964  51.361  1.00  0.00    -0.267 OA
BRANCH  12  15
HETATM   15  C   UNL     1      28.341  43.992  54.326  1.00  0.00     0.035 A 
HETATM   16  C   UNL     1      29.284  42.969  54.432  1.00  0.00     0.030 A 
HETATM   17  C   UNL     1      30.351  43.073  55.332  1.00  0.00     0.012 A 
HETATM   18  C   UNL     1      30.501  44.202  56.147  1.00  0.00    -0.030 A 
HETATM   19  C   UNL     1      29.566  45.238  56.020  1.00  0.00     0.012 A 
HETATM   20  C   UNL     1      28.499  45.133  55.121  1.00  0.00     0.030 A 
BRANCH  18  21
HETATM   21  C   UNL     1      31.664  44.287  57.110  1.00  0.00     0.147 C 
HETATM   22  C   UNL     1      31.277  45.005  58.396  1.00  0.00     0.044 C 
BRANCH  21  23
HETATM   23  O   UNL     1      32.137  42.979  57.431  1.00  0.00    -0.391 OA
HETATM   24  H   UNL     1      33.101  43.044  57.534  1.00  0.00     0.210 HD
ENDBRANCH  21  23
ENDBRANCH  18  21
ENDBRANCH  12  15
ENDBRANCH   1  11
BRANCH   4  25
HETATM   25  C   UNL     1      22.455  43.865  48.519  1.00  0.00     0.409 C 
HETATM   26  F   UNL     1      23.243  44.890  48.122  1.00  0.00    -0.169 F 
HETATM   27  F   UNL     1      21.965  43.294  47.384  1.00  0.00    -0.169 F 
HETATM   28  F   UNL     1      21.390  44.374  49.170  1.00  0.00    -0.169 F 
ENDBRANCH   4  25
BRANCH   6  29
HETATM   29  C   UNL     1      25.700  40.122  48.188  1.00  0.00     0.075 A 
HETATM   30  O   UNL     1      24.925  39.601  47.192  1.00  0.00    -0.325 OA
HETATM   31  C   UNL     1      25.720  38.782  46.457  1.00  0.00     0.142 A 
HETATM   32  C   UNL     1      26.998  38.768  46.965  1.00  0.00     0.027 A 
HETATM   33  C   UNL     1      26.987  39.634  48.086  1.00  0.00     0.037 A 
ENDBRANCH   6  29
TORSDOF 6
ENDMDL
MODEL 9
REMARK VINA RESULT:      -8.4     18.141     19.613
REMARK  6 active torsions:
REMARK  status: ('A' for Active; 'I' for Inactive)
REMARK    1  A    between atoms: C_2  and  O_3 
REMARK    2  A    between atoms: C_2  and  C_4 
REMARK    3  A    between atoms: C_7  and  N_8 
REMARK       I    between atoms: N_8  and  C_9 
REMARK    4  A    between atoms: C_9  and  C_10 
REMARK    5  A    between atoms: C_13  and  C_14 
REMARK    6  A    between atoms: C_19  and  C_20 
ROOT
HETATM    1  C   UNL     1      39.794  44.592  64.491  1.00  0.00     0.096 C 
HETATM    2  C   UNL     1      38.776  43.667  64.635  1.00  0.00     0.138 C 
HETATM    3  N   UNL     1      39.190  42.546  63.949  1.00  0.00    -0.240 N 
HETATM    4  C   UNL     1      38.406  41.333  63.800  1.00  0.00     0.221 C 
HETATM    5  C   UNL     1      37.219  41.326  64.780  1.00  0.00     0.068 C 
HETATM    6  C   UNL     1      36.554  42.707  64.831  1.00  0.00     0.143 C 
HETATM    7  N   UNL     1      37.561  43.699  65.255  1.00  0.00    -0.363 N 
HETATM    8  N   UNL     1      40.303  42.744  63.230  1.00  0.00    -0.181 NA
HETATM    9  C   UNL     1      40.689  43.972  63.586  1.00  0.00     0.160 C 
HETATM   10  H   UNL     1      37.127  44.615  65.388  1.00  0.00     0.162 HD
ENDROOT
BRANCH   1  11
HETATM   11  C   UNL     1      39.944  45.920  65.065  1.00  0.00     0.261 C 
HETATM   12  N   UNL     1      38.914  46.783  64.740  1.00  0.00    -0.323 N 
HETATM   13  H   UNL     1      38.147  46.371  64.222  1.00  0.00     0.169 HD
HETATM   14  O   UNL     1      40.895  46.170  65.795  1.00  0.00    -0.267 OA
BRANCH  12  15
HETATM   15  C   UNL     1      38.749  48.118  65.161  1.00  0.00     0.035 A 
HETATM   16  C   UNL     1      39.686  49.128  64.939  1.00  0.00     0.030 A 
HETATM   17  C   UNL     1      39.461  50.427  65.412  1.00  0.00     0.012 A 
HETATM   18  C   UNL     1      38.294  50.745  66.118  1.00  0.00    -0.030 A 
HETATM   19  C   UNL     1      37.345  49.734  66.318  1.00  0.00     0.012 A 
HETATM   20  C   UNL     1      37.571  48.436  65.846  1.00  0.00     0.030 A 
BRANCH  18  21
HETATM   21  C   UNL     1      38.077  52.157  66.617  1.00  0.00     0.147 C 
HETATM   22  C   UNL     1      37.544  52.172  68.043  1.00  0.00     0.044 C 
BRANCH  21  23
HETATM   23  O   UNL     1      39.300  52.891  66.569  1.00  0.00    -0.391 OA
HETATM   24  H   UNL     1      39.663  52.895  67.470  1.00  0.00     0.210 HD
ENDBRANCH  21  23
ENDBRANCH  18  21
ENDBRANCH  12  15
ENDBRANCH   1  11
BRANCH   4  25
HETATM   25  C   UNL     1      39.248  40.094  64.018  1.00  0.00     0.409 C 
HETATM   26  F   UNL     1      39.798  39.639  62.870  1.00  0.00    -0.169 F 
HETATM   27  F   UNL     1      40.284  40.390  64.851  1.00  0.00    -0.169 F 
HETATM   28  F   UNL     1      38.579  39.079  64.601  1.00  0.00    -0.169 F 
ENDBRANCH   4  25
BRANCH   6  29
HETATM   29  C   UNL     1      35.352  42.660  65.717  1.00  0.00     0.075 A 
HETATM   30  O   UNL     1      35.339  43.536  66.764  1.00  0.00    -0.325 OA
HETATM   31  C   UNL     1      34.168  43.348  67.425  1.00  0.00     0.142 A 
HETATM   32  C   UNL     1      33.425  42.363  66.818  1.00  0.00     0.027 A 
HETATM   33  C   UNL     1      34.190  41.916  65.713  1.00  0.00     0.037 A 
ENDBRANCH   6  29
TORSDOF 6
ENDMDL
MODEL 10
REMARK VINA RESULT:      -8.3      4.772      9.560
REMARK  6 active torsions:
REMARK  status: ('A' for Active; 'I' for Inactive)
REMARK    1  A    between atoms: C_2  and  O_3 
REMARK    2  A    between atoms: C_2  and  C_4 
REMARK    3  A    between atoms: C_7  and  N_8 
REMARK       I    between atoms: N_8  and  C_9 
REMARK    4  A    between atoms: C_9  and  C_10 
REMARK    5  A    between atoms: C_13  and  C_14 
REMARK    6  A    between atoms: C_19  and  C_20 
ROOT
HETATM    1  C   UNL     1      23.497  47.344  49.258  1.00  0.00     0.096 C 
HETATM    2  C   UNL     1      23.763  45.991  49.148  1.00  0.00     0.138 C 
HETATM    3  N   UNL     1      24.907  45.773  49.884  1.00  0.00    -0.240 N 
HETATM    4  C   UNL     1      25.573  44.490  50.012  1.00  0.00     0.221 C 
HETATM    5  C   UNL     1      24.666  43.351  49.517  1.00  0.00     0.068 C 
HETATM    6  C   UNL     1      23.953  43.755  48.221  1.00  0.00     0.143 C 
HETATM    7  N   UNL     1      23.154  44.968  48.483  1.00  0.00    -0.363 N 
HETATM    8  N   UNL     1      25.493  46.903  50.303  1.00  0.00    -0.181 NA
HETATM    9  C   UNL     1      24.620  47.853  49.954  1.00  0.00     0.160 C 
HETATM   10  H   UNL     1      22.593  45.211  47.662  1.00  0.00     0.162 HD
ENDROOT
BRANCH   1  11
HETATM   11  C   UNL     1      22.377  48.125  48.759  1.00  0.00     0.261 C 
HETATM   12  N   UNL     1      21.821  48.964  49.708  1.00  0.00    -0.323 N 
HETATM   13  H   UNL     1      22.306  48.997  50.597  1.00  0.00     0.169 HD
HETATM   14  O   UNL     1      22.038  48.035  47.586  1.00  0.00    -0.267 OA
BRANCH  12  15
HETATM   15  C   UNL     1      20.753  49.867  49.534  1.00  0.00     0.035 A 
HETATM   16  C   UNL     1      20.858  51.076  48.845  1.00  0.00     0.030 A 
HETATM   17  C   UNL     1      19.756  51.933  48.737  1.00  0.00     0.012 A 
HETATM   18  C   UNL     1      18.524  51.601  49.316  1.00  0.00    -0.030 A 
HETATM   19  C   UNL     1      18.417  50.375  49.987  1.00  0.00     0.012 A 
HETATM   20  C   UNL     1      19.519  49.519  50.094  1.00  0.00     0.030 A 
BRANCH  18  21
HETATM   21  C   UNL     1      17.351  52.547  49.184  1.00  0.00     0.147 C 
HETATM   22  C   UNL     1      16.307  52.013  48.211  1.00  0.00     0.044 C 
BRANCH  21  23
HETATM   23  O   UNL     1      16.738  52.756  50.455  1.00  0.00    -0.391 OA
HETATM   24  H   UNL     1      15.777  52.753  50.310  1.00  0.00     0.210 HD
ENDBRANCH  21  23
ENDBRANCH  18  21
ENDBRANCH  12  15
ENDBRANCH   1  11
BRANCH   4  25
HETATM   25  C   UNL     1      25.990  44.218  51.443  1.00  0.00     0.409 C 
HETATM   26  F   UNL     1      25.078  44.664  52.336  1.00  0.00    -0.169 F 
HETATM   27  F   UNL     1      26.095  42.875  51.637  1.00  0.00    -0.169 F 
HETATM   28  F   UNL     1      27.191  44.738  51.766  1.00  0.00    -0.169 F 
ENDBRANCH   4  25
BRANCH   6  29
HETATM   29  C   UNL     1      23.145  42.608  47.706  1.00  0.00     0.075 A 
HETATM   30  O   UNL     1      22.256  42.894  46.710  1.00  0.00    -0.325 OA
HETATM   31  C   UNL     1      21.645  41.728  46.376  1.00  0.00     0.142 A 
HETATM   32  C   UNL     1      22.130  40.694  47.141  1.00  0.00     0.027 A 
HETATM   33  C   UNL     1      23.100  41.261  48.004  1.00  0.00     0.037 A 
ENDBRANCH   6  29
TORSDOF 6
ENDMDL
