MODEL 1
REMARK VINA RESULT:      -8.9      0.000      0.000
REMARK  2 active torsions:
REMARK  status: ('A' for Active; 'I' for Inactive)
REMARK    1  A    between atoms: N_3  and  C_4 
REMARK    2  A    between atoms: C_12  and  C_13 
REMARK       I    between atoms: C_13  and  N_14 
ROOT
HETATM    1  C   UNL     1      26.282  43.089  50.810  1.00  0.00     0.262 C 
HETATM    2  N   UNL     1      25.510  43.869  49.926  1.00  0.00    -0.311 N 
HETATM    3  C   UNL     1      25.455  45.288  49.884  1.00  0.00     0.064 A 
HETATM    4  C   UNL     1      24.272  45.999  49.596  1.00  0.00     0.061 A 
HETATM    5  C   UNL     1      24.321  47.407  49.572  1.00  0.00     0.032 A 
HETATM    6  C   UNL     1      25.507  48.103  49.799  1.00  0.00     0.002 A 
HETATM    7  C   UNL     1      26.677  47.403  50.046  1.00  0.00     0.002 A 
HETATM    8  C   UNL     1      26.651  46.009  50.081  1.00  0.00     0.032 A 
HETATM    9  N   UNL     1      22.988  45.466  49.351  1.00  0.00    -0.325 N 
HETATM   10  C   UNL     1      22.476  44.213  49.235  1.00  0.00     0.227 C 
HETATM   11  O   UNL     1      21.268  44.135  48.990  1.00  0.00    -0.273 OA
HETATM   12  C   UNL     1      23.307  42.972  49.466  1.00  0.00     0.092 C 
HETATM   13  C   UNL     1      22.649  41.762  48.795  1.00  0.00     0.021 C 
HETATM   14  C   UNL     1      24.709  43.166  48.930  1.00  0.00     0.146 C 
HETATM   15  O   UNL     1      26.525  41.906  50.565  1.00  0.00    -0.267 OA
HETATM   16  H   UNL     1      22.251  46.144  49.184  1.00  0.00     0.169 HD
ENDROOT
BRANCH   1  17
HETATM   17  C   UNL     1      26.712  43.655  52.091  1.00  0.00     0.075 C 
HETATM   18  C   UNL     1      28.025  43.725  52.558  1.00  0.00     0.050 C 
HETATM   19  C   UNL     1      29.276  43.385  51.826  1.00  0.00     0.071 C 
HETATM   20  N   UNL     1      27.964  44.238  53.851  1.00  0.00    -0.238 N 
HETATM   21  N   UNL     1      26.698  44.630  54.155  1.00  0.00    -0.179 NA
HETATM   22  C   UNL     1      25.952  44.190  53.146  1.00  0.00     0.158 C 
BRANCH  20  23
HETATM   23  C   UNL     1      28.979  44.394  54.841  1.00  0.00     0.061 A 
HETATM   24  C   UNL     1      29.887  43.347  55.048  1.00  0.00     0.051 A 
HETATM   25  C   UNL     1      30.869  43.502  56.010  1.00  0.00     0.118 A 
HETATM   26  N   UNL     1      31.018  44.617  56.754  1.00  0.00    -0.273 NA
HETATM   27  C   UNL     1      30.154  45.625  56.515  1.00  0.00     0.118 A 
HETATM   28  C   UNL     1      29.130  45.565  55.582  1.00  0.00     0.051 A 
ENDBRANCH  20  23
ENDBRANCH   1  17
TORSDOF 2
ENDMDL
MODEL 2
REMARK VINA RESULT:      -8.4     11.814     14.949
REMARK  2 active torsions:
REMARK  status: ('A' for Active; 'I' for Inactive)
REMARK    1  A    between atoms: N_3  and  C_4 
REMARK    2  A    between atoms: C_12  and  C_13 
REMARK       I    between atoms: C_13  and  N_14 
ROOT
HETATM    1  C   UNL     1      31.073  49.129  42.006  1.00  0.00     0.262 C 
HETATM    2  N   UNL     1      31.483  50.443  41.710  1.00  0.00    -0.311 N 
HETATM    3  C   UNL     1      30.660  51.490  41.213  1.00  0.00     0.064 A 
HETATM    4  C   UNL     1      31.117  52.448  40.285  1.00  0.00     0.061 A 
HETATM    5  C   UNL     1      30.225  53.451  39.857  1.00  0.00     0.032 A 
HETATM    6  C   UNL     1      28.923  53.531  40.346  1.00  0.00     0.002 A 
HETATM    7  C   UNL     1      28.485  52.611  41.285  1.00  0.00     0.002 A 
HETATM    8  C   UNL     1      29.348  51.605  41.718  1.00  0.00     0.032 A 
HETATM    9  N   UNL     1      32.390  52.517  39.680  1.00  0.00    -0.325 N 
HETATM   10  C   UNL     1      33.550  51.819  39.804  1.00  0.00     0.227 C 
HETATM   11  O   UNL     1      34.493  52.194  39.100  1.00  0.00    -0.273 OA
HETATM   12  C   UNL     1      33.675  50.601  40.690  1.00  0.00     0.092 C 
HETATM   13  C   UNL     1      35.146  50.338  41.025  1.00  0.00     0.021 C 
HETATM   14  C   UNL     1      32.877  50.788  41.963  1.00  0.00     0.146 C 
HETATM   15  O   UNL     1      31.754  48.401  42.731  1.00  0.00    -0.267 OA
HETATM   16  H   UNL     1      32.525  53.272  39.016  1.00  0.00     0.169 HD
ENDROOT
BRANCH   1  17
HETATM   17  C   UNL     1      29.879  48.577  41.360  1.00  0.00     0.075 C 
HETATM   18  C   UNL     1      29.711  48.361  39.992  1.00  0.00     0.050 C 
HETATM   19  C   UNL     1      30.727  48.497  38.912  1.00  0.00     0.071 C 
HETATM   20  N   UNL     1      28.401  47.925  39.813  1.00  0.00    -0.238 N 
HETATM   21  N   UNL     1      27.794  47.718  41.011  1.00  0.00    -0.179 NA
HETATM   22  C   UNL     1      28.643  48.200  41.913  1.00  0.00     0.158 C 
BRANCH  20  23
HETATM   23  C   UNL     1      27.652  47.689  38.622  1.00  0.00     0.061 A 
HETATM   24  C   UNL     1      26.840  48.714  38.121  1.00  0.00     0.051 A 
HETATM   25  C   UNL     1      26.115  48.481  36.965  1.00  0.00     0.118 A 
HETATM   26  N   UNL     1      26.157  47.322  36.278  1.00  0.00    -0.273 NA
HETATM   27  C   UNL     1      26.970  46.360  36.760  1.00  0.00     0.118 A 
HETATM   28  C   UNL     1      27.729  46.491  37.913  1.00  0.00     0.051 A 
ENDBRANCH  20  23
ENDBRANCH   1  17
TORSDOF 2
ENDMDL
MODEL 3
REMARK VINA RESULT:      -8.0      7.479     10.752
REMARK  2 active torsions:
REMARK  status: ('A' for Active; 'I' for Inactive)
REMARK    1  A    between atoms: N_3  and  C_4 
REMARK    2  A    between atoms: C_12  and  C_13 
REMARK       I    between atoms: C_13  and  N_14 
ROOT
HETATM    1  C   UNL     1      18.139  50.336  49.391  1.00  0.00     0.262 C 
HETATM    2  N   UNL     1      17.161  50.719  48.453  1.00  0.00    -0.311 N 
HETATM    3  C   UNL     1      17.351  50.873  47.054  1.00  0.00     0.064 A 
HETATM    4  C   UNL     1      16.706  51.876  46.300  1.00  0.00     0.061 A 
HETATM    5  C   UNL     1      16.957  51.944  44.915  1.00  0.00     0.032 A 
HETATM    6  C   UNL     1      17.798  51.035  44.277  1.00  0.00     0.002 A 
HETATM    7  C   UNL     1      18.404  50.027  45.012  1.00  0.00     0.002 A 
HETATM    8  C   UNL     1      18.176  49.945  46.385  1.00  0.00     0.032 A 
HETATM    9  N   UNL     1      15.835  52.879  46.775  1.00  0.00    -0.325 N 
HETATM   10  C   UNL     1      15.286  53.181  47.981  1.00  0.00     0.227 C 
HETATM   11  O   UNL     1      14.528  54.156  48.009  1.00  0.00    -0.273 OA
HETATM   12  C   UNL     1      15.633  52.425  49.243  1.00  0.00     0.092 C 
HETATM   13  C   UNL     1      14.539  52.624  50.297  1.00  0.00     0.021 C 
HETATM   14  C   UNL     1      15.808  50.951  48.946  1.00  0.00     0.146 C 
HETATM   15  O   UNL     1      17.819  49.909  50.502  1.00  0.00    -0.267 OA
HETATM   16  H   UNL     1      15.485  53.529  46.078  1.00  0.00     0.169 HD
ENDROOT
BRANCH   1  17
HETATM   17  C   UNL     1      19.557  50.546  49.089  1.00  0.00     0.075 C 
HETATM   18  C   UNL     1      20.539  49.557  49.026  1.00  0.00     0.050 C 
HETATM   19  C   UNL     1      20.358  48.081  49.102  1.00  0.00     0.071 C 
HETATM   20  N   UNL     1      21.751  50.208  48.814  1.00  0.00    -0.238 N 
HETATM   21  N   UNL     1      21.553  51.536  48.594  1.00  0.00    -0.179 NA
HETATM   22  C   UNL     1      20.266  51.738  48.857  1.00  0.00     0.158 C 
BRANCH  20  23
HETATM   23  C   UNL     1      23.088  49.710  48.804  1.00  0.00     0.061 A 
HETATM   24  C   UNL     1      24.064  50.411  48.084  1.00  0.00     0.051 A 
HETATM   25  C   UNL     1      25.359  49.924  48.076  1.00  0.00     0.118 A 
HETATM   26  N   UNL     1      25.745  48.817  48.740  1.00  0.00    -0.273 NA
HETATM   27  C   UNL     1      24.797  48.176  49.454  1.00  0.00     0.118 A 
HETATM   28  C   UNL     1      23.471  48.576  49.518  1.00  0.00     0.051 A 
ENDBRANCH  20  23
ENDBRANCH   1  17
TORSDOF 2
ENDMDL
MODEL 4
REMARK VINA RESULT:      -7.9     10.733     12.740
REMARK  2 active torsions:
REMARK  status: ('A' for Active; 'I' for Inactive)
REMARK    1  A    between atoms: N_3  and  C_4 
REMARK    2  A    between atoms: C_12  and  C_13 
REMARK       I    between atoms: C_13  and  N_14 
ROOT
HETATM    1  C   UNL     1      28.741  46.132  39.646  1.00  0.00     0.262 C 
HETATM    2  N   UNL     1      27.337  46.237  39.605  1.00  0.00    -0.311 N 
HETATM    3  C   UNL     1      26.589  47.357  39.151  1.00  0.00     0.064 A 
HETATM    4  C   UNL     1      25.376  47.759  39.747  1.00  0.00     0.061 A 
HETATM    5  C   UNL     1      24.705  48.880  39.220  1.00  0.00     0.032 A 
HETATM    6  C   UNL     1      25.197  49.577  38.118  1.00  0.00     0.002 A 
HETATM    7  C   UNL     1      26.371  49.160  37.510  1.00  0.00     0.002 A 
HETATM    8  C   UNL     1      27.056  48.057  38.019  1.00  0.00     0.032 A 
HETATM    9  N   UNL     1      24.737  47.182  40.865  1.00  0.00    -0.325 N 
HETATM   10  C   UNL     1      24.975  46.102  41.655  1.00  0.00     0.227 C 
HETATM   11  O   UNL     1      24.158  45.892  42.557  1.00  0.00    -0.273 OA
HETATM   12  C   UNL     1      26.206  45.239  41.501  1.00  0.00     0.092 C 
HETATM   13  C   UNL     1      25.973  43.865  42.138  1.00  0.00     0.021 C 
HETATM   14  C   UNL     1      26.562  45.081  40.038  1.00  0.00     0.146 C 
HETATM   15  O   UNL     1      29.293  45.034  39.733  1.00  0.00    -0.267 OA
HETATM   16  H   UNL     1      23.875  47.629  41.162  1.00  0.00     0.169 HD
ENDROOT
BRANCH   1  17
HETATM   17  C   UNL     1      29.559  47.347  39.695  1.00  0.00     0.075 C 
HETATM   18  C   UNL     1      29.504  48.335  40.678  1.00  0.00     0.050 C 
HETATM   19  C   UNL     1      28.731  48.318  41.950  1.00  0.00     0.071 C 
HETATM   20  N   UNL     1      30.372  49.347  40.279  1.00  0.00    -0.238 N 
HETATM   21  N   UNL     1      31.073  48.974  39.175  1.00  0.00    -0.179 NA
HETATM   22  C   UNL     1      30.514  47.834  38.784  1.00  0.00     0.158 C 
BRANCH  20  23
HETATM   23  C   UNL     1      30.608  50.643  40.826  1.00  0.00     0.061 A 
HETATM   24  C   UNL     1      29.954  51.745  40.259  1.00  0.00     0.051 A 
HETATM   25  C   UNL     1      30.186  53.001  40.793  1.00  0.00     0.118 A 
HETATM   26  N   UNL     1      30.996  53.227  41.847  1.00  0.00    -0.273 NA
HETATM   27  C   UNL     1      31.590  52.149  42.398  1.00  0.00     0.118 A 
HETATM   28  C   UNL     1      31.431  50.852  41.932  1.00  0.00     0.051 A 
ENDBRANCH  20  23
ENDBRANCH   1  17
TORSDOF 2
ENDMDL
MODEL 5
REMARK VINA RESULT:      -7.7     11.418     14.520
REMARK  2 active torsions:
REMARK  status: ('A' for Active; 'I' for Inactive)
REMARK    1  A    between atoms: N_3  and  C_4 
REMARK    2  A    between atoms: C_12  and  C_13 
REMARK       I    between atoms: C_13  and  N_14 
ROOT
HETATM    1  C   UNL     1      28.581  51.217  38.485  1.00  0.00     0.262 C 
HETATM    2  N   UNL     1      29.812  50.974  39.124  1.00  0.00    -0.311 N 
HETATM    3  C   UNL     1      30.325  49.706  39.510  1.00  0.00     0.064 A 
HETATM    4  C   UNL     1      31.072  49.510  40.690  1.00  0.00     0.061 A 
HETATM    5  C   UNL     1      31.541  48.214  40.982  1.00  0.00     0.032 A 
HETATM    6  C   UNL     1      31.308  47.139  40.127  1.00  0.00     0.002 A 
HETATM    7  C   UNL     1      30.604  47.340  38.950  1.00  0.00     0.002 A 
HETATM    8  C   UNL     1      30.124  48.612  38.642  1.00  0.00     0.032 A 
HETATM    9  N   UNL     1      31.396  50.472  41.670  1.00  0.00    -0.325 N 
HETATM   10  C   UNL     1      31.203  51.811  41.801  1.00  0.00     0.227 C 
HETATM   11  O   UNL     1      31.660  52.333  42.823  1.00  0.00    -0.273 OA
HETATM   12  C   UNL     1      30.411  52.619  40.799  1.00  0.00     0.092 C 
HETATM   13  C   UNL     1      30.774  54.103  40.909  1.00  0.00     0.021 C 
HETATM   14  C   UNL     1      30.670  52.122  39.393  1.00  0.00     0.146 C 
HETATM   15  O   UNL     1      28.370  52.280  37.898  1.00  0.00    -0.267 OA
HETATM   16  H   UNL     1      31.927  50.133  42.466  1.00  0.00     0.169 HD
ENDROOT
BRANCH   1  17
HETATM   17  C   UNL     1      27.493  50.243  38.609  1.00  0.00     0.075 C 
HETATM   18  C   UNL     1      27.008  49.701  39.800  1.00  0.00     0.050 C 
HETATM   19  C   UNL     1      27.368  50.083  41.193  1.00  0.00     0.071 C 
HETATM   20  N   UNL     1      26.054  48.751  39.448  1.00  0.00    -0.238 N 
HETATM   21  N   UNL     1      25.815  48.780  38.110  1.00  0.00    -0.179 NA
HETATM   22  C   UNL     1      26.741  49.594  37.614  1.00  0.00     0.158 C 
BRANCH  20  23
HETATM   23  C   UNL     1      25.342  47.805  40.244  1.00  0.00     0.061 A 
HETATM   24  C   UNL     1      23.945  47.894  40.311  1.00  0.00     0.051 A 
HETATM   25  C   UNL     1      23.259  46.975  41.085  1.00  0.00     0.118 A 
HETATM   26  N   UNL     1      23.857  45.979  41.770  1.00  0.00    -0.273 NA
HETATM   27  C   UNL     1      25.199  45.892  41.665  1.00  0.00     0.118 A 
HETATM   28  C   UNL     1      25.979  46.768  40.925  1.00  0.00     0.051 A 
ENDBRANCH  20  23
ENDBRANCH   1  17
TORSDOF 2
ENDMDL
MODEL 6
REMARK VINA RESULT:      -7.6     11.881     14.626
REMARK  2 active torsions:
REMARK  status: ('A' for Active; 'I' for Inactive)
REMARK    1  A    between atoms: N_3  and  C_4 
REMARK    2  A    between atoms: C_12  and  C_13 
REMARK       I    between atoms: C_13  and  N_14 
ROOT
HETATM    1  C   UNL     1      30.321  48.808  41.533  1.00  0.00     0.262 C 
HETATM    2  N   UNL     1      30.445  50.186  41.271  1.00  0.00    -0.311 N 
HETATM    3  C   UNL     1      29.801  50.906  40.229  1.00  0.00     0.064 A 
HETATM    4  C   UNL     1      30.419  51.968  39.537  1.00  0.00     0.061 A 
HETATM    5  C   UNL     1      29.694  52.624  38.523  1.00  0.00     0.032 A 
HETATM    6  C   UNL     1      28.384  52.266  38.209  1.00  0.00     0.002 A 
HETATM    7  C   UNL     1      27.764  51.246  38.913  1.00  0.00     0.002 A 
HETATM    8  C   UNL     1      28.465  50.578  39.917  1.00  0.00     0.032 A 
HETATM    9  N   UNL     1      31.730  52.458  39.713  1.00  0.00    -0.325 N 
HETATM   10  C   UNL     1      32.752  52.181  40.566  1.00  0.00     0.227 C 
HETATM   11  O   UNL     1      33.780  52.852  40.426  1.00  0.00    -0.273 OA
HETATM   12  C   UNL     1      32.680  51.066  41.583  1.00  0.00     0.092 C 
HETATM   13  C   UNL     1      33.703  51.300  42.699  1.00  0.00     0.021 C 
HETATM   14  C   UNL     1      31.287  50.970  42.167  1.00  0.00     0.146 C 
HETATM   15  O   UNL     1      30.638  48.340  42.628  1.00  0.00    -0.267 OA
HETATM   16  H   UNL     1      32.005  53.220  39.102  1.00  0.00     0.169 HD
ENDROOT
BRANCH   1  17
HETATM   17  C   UNL     1      29.915  47.897  40.459  1.00  0.00     0.075 C 
HETATM   18  C   UNL     1      28.736  47.153  40.416  1.00  0.00     0.050 C 
HETATM   19  C   UNL     1      27.578  47.216  41.350  1.00  0.00     0.071 C 
HETATM   20  N   UNL     1      28.806  46.355  39.277  1.00  0.00    -0.238 N 
HETATM   21  N   UNL     1      29.899  46.674  38.533  1.00  0.00    -0.179 NA
HETATM   22  C   UNL     1      30.596  47.514  39.290  1.00  0.00     0.158 C 
BRANCH  20  23
HETATM   23  C   UNL     1      27.951  45.311  38.815  1.00  0.00     0.061 A 
HETATM   24  C   UNL     1      27.114  45.559  37.719  1.00  0.00     0.051 A 
HETATM   25  C   UNL     1      26.285  44.544  37.275  1.00  0.00     0.118 A 
HETATM   26  N   UNL     1      26.248  43.314  37.826  1.00  0.00    -0.273 NA
HETATM   27  C   UNL     1      27.085  43.087  38.859  1.00  0.00     0.118 A 
HETATM   28  C   UNL     1      27.946  44.039  39.385  1.00  0.00     0.051 A 
ENDBRANCH  20  23
ENDBRANCH   1  17
TORSDOF 2
ENDMDL
MODEL 7
REMARK VINA RESULT:      -7.5     17.531     19.610
REMARK  2 active torsions:
REMARK  status: ('A' for Active; 'I' for Inactive)
REMARK    1  A    between atoms: N_3  and  C_4 
REMARK    2  A    between atoms: C_12  and  C_13 
REMARK       I    between atoms: C_13  and  N_14 
ROOT
HETATM    1  C   UNL     1      38.271  43.809  64.509  1.00  0.00     0.262 C 
HETATM    2  N   UNL     1      38.742  45.136  64.484  1.00  0.00    -0.311 N 
HETATM    3  C   UNL     1      40.101  45.548  64.513  1.00  0.00     0.064 A 
HETATM    4  C   UNL     1      40.536  46.704  65.194  1.00  0.00     0.061 A 
HETATM    5  C   UNL     1      41.906  47.031  65.159  1.00  0.00     0.032 A 
HETATM    6  C   UNL     1      42.826  46.261  64.451  1.00  0.00     0.002 A 
HETATM    7  C   UNL     1      42.393  45.145  63.752  1.00  0.00     0.002 A 
HETATM    8  C   UNL     1      41.042  44.797  63.778  1.00  0.00     0.032 A 
HETATM    9  N   UNL     1      39.754  47.591  65.963  1.00  0.00    -0.325 N 
HETATM   10  C   UNL     1      38.430  47.705  66.246  1.00  0.00     0.227 C 
HETATM   11  O   UNL     1      38.102  48.655  66.965  1.00  0.00    -0.273 OA
HETATM   12  C   UNL     1      37.410  46.692  65.778  1.00  0.00     0.092 C 
HETATM   13  C   UNL     1      36.007  47.308  65.790  1.00  0.00     0.021 C 
HETATM   14  C   UNL     1      37.750  46.201  64.387  1.00  0.00     0.146 C 
HETATM   15  O   UNL     1      37.124  43.536  64.150  1.00  0.00    -0.267 OA
HETATM   16  H   UNL     1      40.254  48.360  66.399  1.00  0.00     0.169 HD
ENDROOT
BRANCH   1  17
HETATM   17  C   UNL     1      39.114  42.750  65.070  1.00  0.00     0.075 C 
HETATM   18  C   UNL     1      39.489  41.571  64.425  1.00  0.00     0.050 C 
HETATM   19  C   UNL     1      39.252  41.188  63.006  1.00  0.00     0.071 C 
HETATM   20  N   UNL     1      40.197  40.813  65.354  1.00  0.00    -0.238 N 
HETATM   21  N   UNL     1      40.410  41.524  66.494  1.00  0.00    -0.179 NA
HETATM   22  C   UNL     1      39.681  42.626  66.351  1.00  0.00     0.158 C 
BRANCH  20  23
HETATM   23  C   UNL     1      40.694  39.478  65.284  1.00  0.00     0.061 A 
HETATM   24  C   UNL     1      39.918  38.440  65.815  1.00  0.00     0.051 A 
HETATM   25  C   UNL     1      40.404  37.146  65.745  1.00  0.00     0.118 A 
HETATM   26  N   UNL     1      41.581  36.819  65.176  1.00  0.00    -0.273 NA
HETATM   27  C   UNL     1      42.297  37.829  64.641  1.00  0.00     0.118 A 
HETATM   28  C   UNL     1      41.904  39.159  64.668  1.00  0.00     0.051 A 
ENDBRANCH  20  23
ENDBRANCH   1  17
TORSDOF 2
ENDMDL
MODEL 8
REMARK VINA RESULT:      -7.4     17.081     19.387
REMARK  2 active torsions:
REMARK  status: ('A' for Active; 'I' for Inactive)
REMARK    1  A    between atoms: N_3  and  C_4 
REMARK    2  A    between atoms: C_12  and  C_13 
REMARK       I    between atoms: C_13  and  N_14 
ROOT
HETATM    1  C   UNL     1      37.650  45.753  64.003  1.00  0.00     0.262 C 
HETATM    2  N   UNL     1      38.183  46.665  64.933  1.00  0.00    -0.311 N 
HETATM    3  C   UNL     1      39.532  46.725  65.376  1.00  0.00     0.064 A 
HETATM    4  C   UNL     1      39.890  47.053  66.700  1.00  0.00     0.061 A 
HETATM    5  C   UNL     1      41.256  47.091  67.039  1.00  0.00     0.032 A 
HETATM    6  C   UNL     1      42.253  46.841  66.098  1.00  0.00     0.002 A 
HETATM    7  C   UNL     1      41.903  46.554  64.788  1.00  0.00     0.002 A 
HETATM    8  C   UNL     1      40.556  46.504  64.430  1.00  0.00     0.032 A 
HETATM    9  N   UNL     1      39.023  47.326  67.779  1.00  0.00    -0.325 N 
HETATM   10  C   UNL     1      37.676  47.441  67.923  1.00  0.00     0.227 C 
HETATM   11  O   UNL     1      37.268  47.719  69.056  1.00  0.00    -0.273 OA
HETATM   12  C   UNL     1      36.713  47.174  66.790  1.00  0.00     0.092 C 
HETATM   13  C   UNL     1      35.366  47.849  67.070  1.00  0.00     0.021 C 
HETATM   14  C   UNL     1      37.284  47.674  65.481  1.00  0.00     0.146 C 
HETATM   15  O   UNL     1      36.578  45.977  63.437  1.00  0.00    -0.267 OA
HETATM   16  H   UNL     1      39.471  47.521  68.669  1.00  0.00     0.169 HD
ENDROOT
BRANCH   1  17
HETATM   17  C   UNL     1      38.317  44.467  63.782  1.00  0.00     0.075 C 
HETATM   18  C   UNL     1      38.477  43.452  64.726  1.00  0.00     0.050 C 
HETATM   19  C   UNL     1      37.898  43.375  66.095  1.00  0.00     0.071 C 
HETATM   20  N   UNL     1      39.252  42.464  64.125  1.00  0.00    -0.238 N 
HETATM   21  N   UNL     1      39.455  42.744  62.810  1.00  0.00    -0.179 NA
HETATM   22  C   UNL     1      38.983  43.975  62.645  1.00  0.00     0.158 C 
BRANCH  20  23
HETATM   23  C   UNL     1      39.831  41.277  64.663  1.00  0.00     0.061 A 
HETATM   24  C   UNL     1      39.074  40.098  64.670  1.00  0.00     0.051 A 
HETATM   25  C   UNL     1      39.639  38.949  65.194  1.00  0.00     0.118 A 
HETATM   26  N   UNL     1      40.893  38.891  65.686  1.00  0.00    -0.273 NA
HETATM   27  C   UNL     1      41.617  40.028  65.640  1.00  0.00     0.118 A 
HETATM   28  C   UNL     1      41.139  41.233  65.145  1.00  0.00     0.051 A 
ENDBRANCH  20  23
ENDBRANCH   1  17
TORSDOF 2
ENDMDL
MODEL 9
REMARK VINA RESULT:      -7.4     12.021     14.202
REMARK  2 active torsions:
REMARK  status: ('A' for Active; 'I' for Inactive)
REMARK    1  A    between atoms: N_3  and  C_4 
REMARK    2  A    between atoms: C_12  and  C_13 
REMARK       I    between atoms: C_13  and  N_14 
ROOT
HETATM    1  C   UNL     1      28.591  49.687  38.893  1.00  0.00     0.262 C 
HETATM    2  N   UNL     1      29.814  50.200  39.366  1.00  0.00    -0.311 N 
HETATM    3  C   UNL     1      30.785  49.496  40.127  1.00  0.00     0.064 A 
HETATM    4  C   UNL     1      31.543  50.103  41.150  1.00  0.00     0.061 A 
HETATM    5  C   UNL     1      32.485  49.320  41.845  1.00  0.00     0.032 A 
HETATM    6  C   UNL     1      32.702  47.980  41.529  1.00  0.00     0.002 A 
HETATM    7  C   UNL     1      31.982  47.393  40.500  1.00  0.00     0.002 A 
HETATM    8  C   UNL     1      31.039  48.147  39.802  1.00  0.00     0.032 A 
HETATM    9  N   UNL     1      31.454  51.434  41.608  1.00  0.00    -0.325 N 
HETATM   10  C   UNL     1      30.746  52.532  41.234  1.00  0.00     0.227 C 
HETATM   11  O   UNL     1      30.953  53.565  41.881  1.00  0.00    -0.273 OA
HETATM   12  C   UNL     1      29.704  52.493  40.141  1.00  0.00     0.092 C 
HETATM   13  C   UNL     1      29.449  53.903  39.600  1.00  0.00     0.021 C 
HETATM   14  C   UNL     1      30.147  51.578  39.020  1.00  0.00     0.146 C 
HETATM   15  O   UNL     1      27.980  50.245  37.980  1.00  0.00    -0.267 OA
HETATM   16  H   UNL     1      32.072  51.682  42.375  1.00  0.00     0.169 HD
ENDROOT
BRANCH   1  17
HETATM   17  C   UNL     1      27.977  48.538  39.564  1.00  0.00     0.075 C 
HETATM   18  C   UNL     1      27.845  47.254  39.036  1.00  0.00     0.050 C 
HETATM   19  C   UNL     1      28.409  46.723  37.765  1.00  0.00     0.071 C 
HETATM   20  N   UNL     1      27.118  46.512  39.964  1.00  0.00    -0.238 N 
HETATM   21  N   UNL     1      26.921  47.226  41.104  1.00  0.00    -0.179 NA
HETATM   22  C   UNL     1      27.346  48.452  40.818  1.00  0.00     0.158 C 
BRANCH  20  23
HETATM   23  C   UNL     1      26.578  45.194  39.887  1.00  0.00     0.061 A 
HETATM   24  C   UNL     1      27.273  44.143  40.500  1.00  0.00     0.051 A 
HETATM   25  C   UNL     1      26.746  42.866  40.422  1.00  0.00     0.118 A 
HETATM   26  N   UNL     1      25.586  42.572  39.802  1.00  0.00    -0.273 NA
HETATM   27  C   UNL     1      24.917  43.603  39.247  1.00  0.00     0.118 A 
HETATM   28  C   UNL     1      25.363  44.916  39.261  1.00  0.00     0.051 A 
ENDBRANCH  20  23
ENDBRANCH   1  17
TORSDOF 2
ENDMDL
MODEL 10
REMARK VINA RESULT:      -7.4     17.858     20.077
REMARK  2 active torsions:
REMARK  status: ('A' for Active; 'I' for Inactive)
REMARK    1  A    between atoms: N_3  and  C_4 
REMARK    2  A    between atoms: C_12  and  C_13 
REMARK       I    between atoms: C_13  and  N_14 
ROOT
HETATM    1  C   UNL     1      38.664  45.913  64.698  1.00  0.00     0.262 C 
HETATM    2  N   UNL     1      39.524  46.992  64.980  1.00  0.00    -0.311 N 
HETATM    3  C   UNL     1      40.935  46.929  65.127  1.00  0.00     0.064 A 
HETATM    4  C   UNL     1      41.644  47.716  66.058  1.00  0.00     0.061 A 
HETATM    5  C   UNL     1      43.045  47.584  66.125  1.00  0.00     0.032 A 
HETATM    6  C   UNL     1      43.741  46.720  65.281  1.00  0.00     0.002 A 
HETATM    7  C   UNL     1      43.048  45.973  64.342  1.00  0.00     0.002 A 
HETATM    8  C   UNL     1      41.660  46.082  64.262  1.00  0.00     0.032 A 
HETATM    9  N   UNL     1      41.109  48.631  66.990  1.00  0.00    -0.325 N 
HETATM   10  C   UNL     1      39.865  49.105  67.264  1.00  0.00     0.227 C 
HETATM   11  O   UNL     1      39.785  49.941  68.170  1.00  0.00    -0.273 OA
HETATM   12  C   UNL     1      38.629  48.595  66.561  1.00  0.00     0.092 C 
HETATM   13  C   UNL     1      37.491  49.614  66.682  1.00  0.00     0.021 C 
HETATM   14  C   UNL     1      38.925  48.316  65.103  1.00  0.00     0.146 C 
HETATM   15  O   UNL     1      37.527  46.104  64.263  1.00  0.00    -0.267 OA
HETATM   16  H   UNL     1      41.781  49.090  67.596  1.00  0.00     0.169 HD
ENDROOT
BRANCH   1  17
HETATM   17  C   UNL     1      39.082  44.547  65.024  1.00  0.00     0.075 C 
HETATM   18  C   UNL     1      39.449  43.559  64.110  1.00  0.00     0.050 C 
HETATM   19  C   UNL     1      39.640  43.698  62.640  1.00  0.00     0.071 C 
HETATM   20  N   UNL     1      39.670  42.396  64.842  1.00  0.00    -0.238 N 
HETATM   21  N   UNL     1      39.604  42.647  66.177  1.00  0.00    -0.179 NA
HETATM   22  C   UNL     1      39.160  43.896  66.269  1.00  0.00     0.158 C 
BRANCH  20  23
HETATM   23  C   UNL     1      39.932  41.061  64.415  1.00  0.00     0.061 A 
HETATM   24  C   UNL     1      40.756  40.249  65.204  1.00  0.00     0.051 A 
HETATM   25  C   UNL     1      41.008  38.954  64.786  1.00  0.00     0.118 A 
HETATM   26  N   UNL     1      40.488  38.416  63.664  1.00  0.00    -0.273 NA
HETATM   27  C   UNL     1      39.671  39.205  62.936  1.00  0.00     0.118 A 
HETATM   28  C   UNL     1      39.364  40.517  63.263  1.00  0.00     0.051 A 
ENDBRANCH  20  23
ENDBRANCH   1  17
TORSDOF 2
ENDMDL
