MODEL 1
REMARK VINA RESULT:     -10.2      0.000      0.000
REMARK  6 active torsions:
REMARK  status: ('A' for Active; 'I' for Inactive)
REMARK    1  A    between atoms: C_4  and  N_5 
REMARK       I    between atoms: N_5  and  C_6 
REMARK    2  A    between atoms: C_6  and  C_7 
REMARK       I    between atoms: C_7  and  N_8 
REMARK    3  A    between atoms: N_8  and  C_9 
REMARK    4  A    between atoms: C_9  and  C_10 
REMARK    5  A    between atoms: C_10  and  C_11 
REMARK    6  A    between atoms: C_11  and  C_12 
ROOT
HETATM    1  C   UNL     1      23.872  44.374  50.805  1.00  0.00     0.309 C 
HETATM    2  N   UNL     1      24.798  44.758  51.750  1.00  0.00    -0.353 N 
HETATM    3  O   UNL     1      23.232  43.333  50.803  1.00  0.00    -0.262 OA
HETATM    4  H   UNL     1      25.283  45.635  51.570  1.00  0.00     0.162 HD
ENDROOT
BRANCH   1   5
HETATM    5  C   UNL     1      23.702  45.401  49.662  1.00  0.00     0.314 C 
HETATM    6  N   UNL     1      23.858  46.695  50.092  1.00  0.00    -0.317 N 
HETATM    7  H   UNL     1      24.075  46.825  51.084  1.00  0.00     0.169 HD
HETATM    8  O   UNL     1      23.446  44.987  48.539  1.00  0.00    -0.262 OA
BRANCH   6   9
HETATM    9  C   UNL     1      23.757  47.894  49.351  1.00  0.00     0.065 A 
HETATM   10  C   UNL     1      22.537  48.400  48.884  1.00  0.00     0.038 A 
HETATM   11  C   UNL     1      22.493  49.593  48.157  1.00  0.00    -0.059 A 
HETATM   12  C   UNL     1      21.189  50.145  47.660  1.00  0.00     0.048 C 
HETATM   13  C   UNL     1      23.685  50.276  47.903  1.00  0.00     0.020 A 
HETATM   14  C   UNL     1      24.913  49.775  48.366  1.00  0.00    -0.005 A 
HETATM   15  C   UNL     1      24.961  48.572  49.101  1.00  0.00     0.093 A 
HETATM   16  C   UNL     1      26.116  50.450  48.117  1.00  0.00     0.015 A 
HETATM   17  N   UNL     1      26.131  48.068  49.562  1.00  0.00    -0.258 NA
HETATM   18  C   UNL     1      27.270  48.747  49.300  1.00  0.00     0.117 A 
HETATM   19  C   UNL     1      27.313  49.930  48.591  1.00  0.00     0.020 A 
ENDBRANCH   6   9
ENDBRANCH   1   5
BRANCH   2  20
HETATM   20  C   UNL     1      25.218  43.895  52.829  1.00  0.00     0.123 C 
BRANCH  20  21
HETATM   21  C   UNL     1      25.421  44.650  54.141  1.00  0.00     0.024 C 
BRANCH  21  22
HETATM   22  C   UNL     1      26.311  45.883  53.970  1.00  0.00     0.042 C 
BRANCH  22  23
HETATM   23  C   UNL     1      27.530  45.826  54.834  1.00  0.00    -0.030 A 
HETATM   24  C   UNL     1      28.570  44.842  54.779  1.00  0.00    -0.002 A 
HETATM   25  C   UNL     1      29.509  45.169  55.757  1.00  0.00     0.042 A 
HETATM   26  C   UNL     1      28.796  43.697  53.986  1.00  0.00     0.014 A 
HETATM   27  C   UNL     1      30.665  44.412  55.981  1.00  0.00     0.030 A 
HETATM   28  N   UNL     1      29.060  46.309  56.382  1.00  0.00    -0.365 N 
HETATM   29  C   UNL     1      30.866  43.283  55.182  1.00  0.00     0.002 A 
HETATM   30  C   UNL     1      29.945  42.928  54.198  1.00  0.00     0.001 A 
HETATM   31  H   UNL     1      29.544  46.775  57.136  1.00  0.00     0.165 HD
HETATM   32  C   UNL     1      27.871  46.713  55.836  1.00  0.00     0.096 A 
ENDBRANCH  22  23
ENDBRANCH  21  22
ENDBRANCH  20  21
ENDBRANCH   2  20
TORSDOF 6
ENDMDL
MODEL 2
REMARK VINA RESULT:     -10.0      1.080      1.577
REMARK  6 active torsions:
REMARK  status: ('A' for Active; 'I' for Inactive)
REMARK    1  A    between atoms: C_4  and  N_5 
REMARK       I    between atoms: N_5  and  C_6 
REMARK    2  A    between atoms: C_6  and  C_7 
REMARK       I    between atoms: C_7  and  N_8 
REMARK    3  A    between atoms: N_8  and  C_9 
REMARK    4  A    between atoms: C_9  and  C_10 
REMARK    5  A    between atoms: C_10  and  C_11 
REMARK    6  A    between atoms: C_11  and  C_12 
ROOT
HETATM    1  C   UNL     1      24.905  44.030  50.891  1.00  0.00     0.309 C 
HETATM    2  N   UNL     1      26.262  43.809  50.984  1.00  0.00    -0.353 N 
HETATM    3  O   UNL     1      24.041  43.513  51.584  1.00  0.00    -0.262 OA
HETATM    4  H   UNL     1      26.840  44.280  50.291  1.00  0.00     0.162 HD
ENDROOT
BRANCH   1   5
HETATM    5  C   UNL     1      24.522  45.018  49.766  1.00  0.00     0.314 C 
HETATM    6  N   UNL     1      24.425  46.312  50.215  1.00  0.00    -0.317 N 
HETATM    7  H   UNL     1      24.624  46.469  51.206  1.00  0.00     0.169 HD
HETATM    8  O   UNL     1      24.338  44.577  48.640  1.00  0.00    -0.262 OA
BRANCH   6   9
HETATM    9  C   UNL     1      24.080  47.477  49.493  1.00  0.00     0.065 A 
HETATM   10  C   UNL     1      22.766  47.771  49.107  1.00  0.00     0.038 A 
HETATM   11  C   UNL     1      22.479  48.940  48.396  1.00  0.00    -0.059 A 
HETATM   12  C   UNL     1      21.073  49.268  47.985  1.00  0.00     0.048 C 
HETATM   13  C   UNL     1      23.523  49.813  48.075  1.00  0.00     0.020 A 
HETATM   14  C   UNL     1      24.843  49.524  48.458  1.00  0.00    -0.005 A 
HETATM   15  C   UNL     1      25.137  48.346  49.176  1.00  0.00     0.093 A 
HETATM   16  C   UNL     1      25.899  50.390  48.143  1.00  0.00     0.015 A 
HETATM   17  N   UNL     1      26.401  48.045  49.560  1.00  0.00    -0.258 NA
HETATM   18  C   UNL     1      27.392  48.904  49.236  1.00  0.00     0.117 A 
HETATM   19  C   UNL     1      27.194  50.077  48.537  1.00  0.00     0.020 A 
ENDBRANCH   6   9
ENDBRANCH   1   5
BRANCH   2  20
HETATM   20  C   UNL     1      26.835  42.822  51.869  1.00  0.00     0.123 C 
BRANCH  20  21
HETATM   21  C   UNL     1      27.150  43.385  53.253  1.00  0.00     0.024 C 
BRANCH  21  22
HETATM   22  C   UNL     1      28.629  43.748  53.411  1.00  0.00     0.042 C 
BRANCH  22  23
HETATM   23  C   UNL     1      28.879  44.588  54.622  1.00  0.00    -0.030 A 
HETATM   24  C   UNL     1      29.866  44.354  55.634  1.00  0.00    -0.002 A 
HETATM   25  C   UNL     1      29.754  45.378  56.574  1.00  0.00     0.042 A 
HETATM   26  C   UNL     1      30.844  43.358  55.838  1.00  0.00     0.014 A 
HETATM   27  C   UNL     1      30.572  45.460  57.707  1.00  0.00     0.030 A 
HETATM   28  N   UNL     1      28.739  46.205  56.150  1.00  0.00    -0.365 N 
HETATM   29  C   UNL     1      31.534  44.462  57.886  1.00  0.00     0.002 A 
HETATM   30  C   UNL     1      31.670  43.424  56.966  1.00  0.00     0.001 A 
HETATM   31  H   UNL     1      28.437  47.035  56.640  1.00  0.00     0.165 HD
HETATM   32  C   UNL     1      28.206  45.739  54.978  1.00  0.00     0.096 A 
ENDBRANCH  22  23
ENDBRANCH  21  22
ENDBRANCH  20  21
ENDBRANCH   2  20
TORSDOF 6
ENDMDL
MODEL 3
REMARK VINA RESULT:      -9.8      2.314      3.988
REMARK  6 active torsions:
REMARK  status: ('A' for Active; 'I' for Inactive)
REMARK    1  A    between atoms: C_4  and  N_5 
REMARK       I    between atoms: N_5  and  C_6 
REMARK    2  A    between atoms: C_6  and  C_7 
REMARK       I    between atoms: C_7  and  N_8 
REMARK    3  A    between atoms: N_8  and  C_9 
REMARK    4  A    between atoms: C_9  and  C_10 
REMARK    5  A    between atoms: C_10  and  C_11 
REMARK    6  A    between atoms: C_11  and  C_12 
ROOT
HETATM    1  C   UNL     1      25.707  48.797  49.144  1.00  0.00     0.309 C 
HETATM    2  N   UNL     1      25.302  47.841  50.049  1.00  0.00    -0.353 N 
HETATM    3  O   UNL     1      26.856  49.162  48.946  1.00  0.00    -0.262 OA
HETATM    4  H   UNL     1      24.298  47.696  50.127  1.00  0.00     0.162 HD
ENDROOT
BRANCH   1   5
HETATM    5  C   UNL     1      24.535  49.435  48.362  1.00  0.00     0.314 C 
HETATM    6  N   UNL     1      23.311  49.083  48.873  1.00  0.00    -0.317 N 
HETATM    7  H   UNL     1      23.316  48.470  49.693  1.00  0.00     0.169 HD
HETATM    8  O   UNL     1      24.794  50.149  47.403  1.00  0.00    -0.262 OA
BRANCH   6   9
HETATM    9  C   UNL     1      22.023  49.448  48.420  1.00  0.00     0.065 A 
HETATM   10  C   UNL     1      21.434  50.684  48.717  1.00  0.00     0.038 A 
HETATM   11  C   UNL     1      20.158  50.995  48.241  1.00  0.00    -0.059 A 
HETATM   12  C   UNL     1      19.522  52.320  48.547  1.00  0.00     0.048 C 
HETATM   13  C   UNL     1      19.476  50.056  47.462  1.00  0.00     0.020 A 
HETATM   14  C   UNL     1      20.060  48.814  47.161  1.00  0.00    -0.005 A 
HETATM   15  C   UNL     1      21.348  48.496  47.639  1.00  0.00     0.093 A 
HETATM   16  C   UNL     1      19.387  47.863  46.382  1.00  0.00     0.015 A 
HETATM   17  N   UNL     1      21.935  47.307  47.361  1.00  0.00    -0.258 NA
HETATM   18  C   UNL     1      21.254  46.416  46.608  1.00  0.00     0.117 A 
HETATM   19  C   UNL     1      19.991  46.644  46.100  1.00  0.00     0.020 A 
ENDBRANCH   6   9
ENDBRANCH   1   5
BRANCH   2  20
HETATM   20  C   UNL     1      26.209  47.214  50.983  1.00  0.00     0.123 C 
BRANCH  20  21
HETATM   21  C   UNL     1      25.524  46.813  52.288  1.00  0.00     0.024 C 
BRANCH  21  22
HETATM   22  C   UNL     1      26.088  45.512  52.864  1.00  0.00     0.042 C 
BRANCH  22  23
HETATM   23  C   UNL     1      27.114  45.759  53.922  1.00  0.00    -0.030 A 
HETATM   24  C   UNL     1      28.205  44.900  54.271  1.00  0.00    -0.002 A 
HETATM   25  C   UNL     1      28.911  45.516  55.304  1.00  0.00     0.042 A 
HETATM   26  C   UNL     1      28.656  43.647  53.803  1.00  0.00     0.014 A 
HETATM   27  C   UNL     1      30.047  44.945  55.892  1.00  0.00     0.030 A 
HETATM   28  N   UNL     1      28.276  46.705  55.573  1.00  0.00    -0.365 N 
HETATM   29  C   UNL     1      30.473  43.704  55.409  1.00  0.00     0.002 A 
HETATM   30  C   UNL     1      29.788  43.062  54.379  1.00  0.00     0.001 A 
HETATM   31  H   UNL     1      28.572  47.363  56.280  1.00  0.00     0.165 HD
HETATM   32  C   UNL     1      27.194  46.863  54.749  1.00  0.00     0.096 A 
ENDBRANCH  22  23
ENDBRANCH  21  22
ENDBRANCH  20  21
ENDBRANCH   2  20
TORSDOF 6
ENDMDL
MODEL 4
REMARK VINA RESULT:      -9.7      2.779      8.170
REMARK  6 active torsions:
REMARK  status: ('A' for Active; 'I' for Inactive)
REMARK    1  A    between atoms: C_4  and  N_5 
REMARK       I    between atoms: N_5  and  C_6 
REMARK    2  A    between atoms: C_6  and  C_7 
REMARK       I    between atoms: C_7  and  N_8 
REMARK    3  A    between atoms: N_8  and  C_9 
REMARK    4  A    between atoms: C_9  and  C_10 
REMARK    5  A    between atoms: C_10  and  C_11 
REMARK    6  A    between atoms: C_11  and  C_12 
ROOT
HETATM    1  C   UNL     1      28.137  41.237  51.328  1.00  0.00     0.309 C 
HETATM    2  N   UNL     1      27.484  42.247  50.656  1.00  0.00    -0.353 N 
HETATM    3  O   UNL     1      28.412  40.133  50.882  1.00  0.00    -0.262 OA
HETATM    4  H   UNL     1      27.285  43.087  51.195  1.00  0.00     0.162 HD
ENDROOT
BRANCH   1   5
HETATM    5  C   UNL     1      28.501  41.607  52.785  1.00  0.00     0.314 C 
HETATM    6  N   UNL     1      28.889  42.918  52.911  1.00  0.00    -0.317 N 
HETATM    7  H   UNL     1      28.880  43.483  52.058  1.00  0.00     0.169 HD
HETATM    8  O   UNL     1      28.425  40.739  53.644  1.00  0.00    -0.262 OA
BRANCH   6   9
HETATM    9  C   UNL     1      29.310  43.610  54.069  1.00  0.00     0.065 A 
HETATM   10  C   UNL     1      30.382  43.182  54.864  1.00  0.00     0.038 A 
HETATM   11  C   UNL     1      30.758  43.906  55.999  1.00  0.00    -0.059 A 
HETATM   12  C   UNL     1      31.910  43.459  56.851  1.00  0.00     0.048 C 
HETATM   13  C   UNL     1      30.052  45.065  56.330  1.00  0.00     0.020 A 
HETATM   14  C   UNL     1      28.976  45.500  55.538  1.00  0.00    -0.005 A 
HETATM   15  C   UNL     1      28.592  44.772  54.392  1.00  0.00     0.093 A 
HETATM   16  C   UNL     1      28.258  46.660  55.859  1.00  0.00     0.015 A 
HETATM   17  N   UNL     1      27.560  45.172  53.611  1.00  0.00    -0.258 NA
HETATM   18  C   UNL     1      26.892  46.295  53.954  1.00  0.00     0.117 A 
HETATM   19  C   UNL     1      27.199  47.065  55.056  1.00  0.00     0.020 A 
ENDBRANCH   6   9
ENDBRANCH   1   5
BRANCH   2  20
HETATM   20  C   UNL     1      26.929  42.074  49.334  1.00  0.00     0.123 C 
BRANCH  20  21
HETATM   21  C   UNL     1      25.411  41.902  49.351  1.00  0.00     0.024 C 
BRANCH  21  22
HETATM   22  C   UNL     1      24.757  42.629  50.529  1.00  0.00     0.042 C 
BRANCH  22  23
HETATM   23  C   UNL     1      24.126  43.920  50.117  1.00  0.00    -0.030 A 
HETATM   24  C   UNL     1      24.765  45.200  50.055  1.00  0.00    -0.002 A 
HETATM   25  C   UNL     1      23.813  46.123  49.621  1.00  0.00     0.042 A 
HETATM   26  C   UNL     1      26.070  45.661  50.333  1.00  0.00     0.014 A 
HETATM   27  C   UNL     1      24.100  47.483  49.448  1.00  0.00     0.030 A 
HETATM   28  N   UNL     1      22.641  45.432  49.426  1.00  0.00    -0.365 N 
HETATM   29  C   UNL     1      25.400  47.913  49.729  1.00  0.00     0.002 A 
HETATM   30  C   UNL     1      26.373  47.016  50.166  1.00  0.00     0.001 A 
HETATM   31  H   UNL     1      21.778  45.850  49.109  1.00  0.00     0.165 HD
HETATM   32  C   UNL     1      22.817  44.106  49.721  1.00  0.00     0.096 A 
ENDBRANCH  22  23
ENDBRANCH  21  22
ENDBRANCH  20  21
ENDBRANCH   2  20
TORSDOF 6
ENDMDL
MODEL 5
REMARK VINA RESULT:      -9.7      2.861      8.027
REMARK  6 active torsions:
REMARK  status: ('A' for Active; 'I' for Inactive)
REMARK    1  A    between atoms: C_4  and  N_5 
REMARK       I    between atoms: N_5  and  C_6 
REMARK    2  A    between atoms: C_6  and  C_7 
REMARK       I    between atoms: C_7  and  N_8 
REMARK    3  A    between atoms: N_8  and  C_9 
REMARK    4  A    between atoms: C_9  and  C_10 
REMARK    5  A    between atoms: C_10  and  C_11 
REMARK    6  A    between atoms: C_11  and  C_12 
ROOT
HETATM    1  C   UNL     1      27.868  40.852  51.651  1.00  0.00     0.309 C 
HETATM    2  N   UNL     1      26.511  40.894  51.418  1.00  0.00    -0.353 N 
HETATM    3  O   UNL     1      28.719  40.430  50.882  1.00  0.00    -0.262 OA
HETATM    4  H   UNL     1      25.936  41.226  52.190  1.00  0.00     0.162 HD
ENDROOT
BRANCH   1   5
HETATM    5  C   UNL     1      28.267  41.382  53.047  1.00  0.00     0.314 C 
HETATM    6  N   UNL     1      28.690  42.687  53.011  1.00  0.00    -0.317 N 
HETATM    7  H   UNL     1      28.681  43.147  52.097  1.00  0.00     0.169 HD
HETATM    8  O   UNL     1      28.183  40.625  54.005  1.00  0.00    -0.262 OA
BRANCH   6   9
HETATM    9  C   UNL     1      29.148  43.500  54.073  1.00  0.00     0.065 A 
HETATM   10  C   UNL     1      30.214  43.134  54.905  1.00  0.00     0.038 A 
HETATM   11  C   UNL     1      30.629  43.978  55.940  1.00  0.00    -0.059 A 
HETATM   12  C   UNL     1      31.775  43.597  56.832  1.00  0.00     0.048 C 
HETATM   13  C   UNL     1      29.966  45.194  56.132  1.00  0.00     0.020 A 
HETATM   14  C   UNL     1      28.897  45.566  55.302  1.00  0.00    -0.005 A 
HETATM   15  C   UNL     1      28.475  44.718  54.256  1.00  0.00     0.093 A 
HETATM   16  C   UNL     1      28.223  46.782  55.484  1.00  0.00     0.015 A 
HETATM   17  N   UNL     1      27.448  45.055  53.440  1.00  0.00    -0.258 NA
HETATM   18  C   UNL     1      26.823  46.235  53.647  1.00  0.00     0.117 A 
HETATM   19  C   UNL     1      27.170  47.123  54.645  1.00  0.00     0.020 A 
ENDBRANCH   6   9
ENDBRANCH   1   5
BRANCH   2  20
HETATM   20  C   UNL     1      25.902  40.324  50.240  1.00  0.00     0.123 C 
BRANCH  20  21
HETATM   21  C   UNL     1      25.765  41.334  49.102  1.00  0.00     0.024 C 
BRANCH  21  22
HETATM   22  C   UNL     1      24.850  42.505  49.470  1.00  0.00     0.042 C 
BRANCH  22  23
HETATM   23  C   UNL     1      25.610  43.778  49.662  1.00  0.00    -0.030 A 
HETATM   24  C   UNL     1      25.078  45.106  49.610  1.00  0.00    -0.002 A 
HETATM   25  C   UNL     1      26.131  45.990  49.846  1.00  0.00     0.042 A 
HETATM   26  C   UNL     1      23.792  45.639  49.380  1.00  0.00     0.014 A 
HETATM   27  C   UNL     1      25.964  47.380  49.866  1.00  0.00     0.030 A 
HETATM   28  N   UNL     1      27.261  45.229  50.035  1.00  0.00    -0.365 N 
HETATM   29  C   UNL     1      24.680  47.882  49.635  1.00  0.00     0.002 A 
HETATM   30  C   UNL     1      23.608  47.026  49.395  1.00  0.00     0.001 A 
HETATM   31  H   UNL     1      28.178  45.607  50.226  1.00  0.00     0.165 HD
HETATM   32  C   UNL     1      26.960  43.898  49.927  1.00  0.00     0.096 A 
ENDBRANCH  22  23
ENDBRANCH  21  22
ENDBRANCH  20  21
ENDBRANCH   2  20
TORSDOF 6
ENDMDL
MODEL 6
REMARK VINA RESULT:      -9.6      1.090      1.929
REMARK  6 active torsions:
REMARK  status: ('A' for Active; 'I' for Inactive)
REMARK    1  A    between atoms: C_4  and  N_5 
REMARK       I    between atoms: N_5  and  C_6 
REMARK    2  A    between atoms: C_6  and  C_7 
REMARK       I    between atoms: C_7  and  N_8 
REMARK    3  A    between atoms: N_8  and  C_9 
REMARK    4  A    between atoms: C_9  and  C_10 
REMARK    5  A    between atoms: C_10  and  C_11 
REMARK    6  A    between atoms: C_11  and  C_12 
ROOT
HETATM    1  C   UNL     1      23.789  44.326  50.743  1.00  0.00     0.309 C 
HETATM    2  N   UNL     1      24.896  44.577  51.524  1.00  0.00    -0.353 N 
HETATM    3  O   UNL     1      23.032  43.373  50.851  1.00  0.00    -0.262 OA
HETATM    4  H   UNL     1      25.452  45.389  51.263  1.00  0.00     0.162 HD
ENDROOT
BRANCH   1   5
HETATM    5  C   UNL     1      23.569  45.381  49.635  1.00  0.00     0.314 C 
HETATM    6  N   UNL     1      23.864  46.653  50.057  1.00  0.00    -0.317 N 
HETATM    7  H   UNL     1      24.196  46.752  51.020  1.00  0.00     0.169 HD
HETATM    8  O   UNL     1      23.163  45.005  48.544  1.00  0.00    -0.262 OA
BRANCH   6   9
HETATM    9  C   UNL     1      23.768  47.869  49.342  1.00  0.00     0.065 A 
HETATM   10  C   UNL     1      22.550  48.391  48.888  1.00  0.00     0.038 A 
HETATM   11  C   UNL     1      22.511  49.599  48.187  1.00  0.00    -0.059 A 
HETATM   12  C   UNL     1      21.210  50.170  47.704  1.00  0.00     0.048 C 
HETATM   13  C   UNL     1      23.707  50.283  47.946  1.00  0.00     0.020 A 
HETATM   14  C   UNL     1      24.932  49.765  48.398  1.00  0.00    -0.005 A 
HETATM   15  C   UNL     1      24.975  48.546  49.106  1.00  0.00     0.093 A 
HETATM   16  C   UNL     1      26.139  50.439  48.162  1.00  0.00     0.015 A 
HETATM   17  N   UNL     1      26.143  48.026  49.554  1.00  0.00    -0.258 NA
HETATM   18  C   UNL     1      27.285  48.705  49.306  1.00  0.00     0.117 A 
HETATM   19  C   UNL     1      27.334  49.902  48.623  1.00  0.00     0.020 A 
ENDBRANCH   6   9
ENDBRANCH   1   5
BRANCH   2  20
HETATM   20  C   UNL     1      25.371  43.654  52.528  1.00  0.00     0.123 C 
BRANCH  20  21
HETATM   21  C   UNL     1      26.602  42.873  52.072  1.00  0.00     0.024 C 
BRANCH  21  22
HETATM   22  C   UNL     1      27.815  43.779  51.844  1.00  0.00     0.042 C 
BRANCH  22  23
HETATM   23  C   UNL     1      28.821  43.665  52.945  1.00  0.00    -0.030 A 
HETATM   24  C   UNL     1      28.889  44.473  54.125  1.00  0.00    -0.002 A 
HETATM   25  C   UNL     1      29.975  44.025  54.877  1.00  0.00     0.042 A 
HETATM   26  C   UNL     1      28.125  45.550  54.623  1.00  0.00     0.014 A 
HETATM   27  C   UNL     1      30.336  44.598  56.103  1.00  0.00     0.030 A 
HETATM   28  N   UNL     1      30.545  42.985  54.182  1.00  0.00    -0.365 N 
HETATM   29  C   UNL     1      29.563  45.663  56.574  1.00  0.00     0.002 A 
HETATM   30  C   UNL     1      28.472  46.134  55.846  1.00  0.00     0.001 A 
HETATM   31  H   UNL     1      31.355  42.466  54.492  1.00  0.00     0.165 HD
HETATM   32  C   UNL     1      29.860  42.760  53.018  1.00  0.00     0.096 A 
ENDBRANCH  22  23
ENDBRANCH  21  22
ENDBRANCH  20  21
ENDBRANCH   2  20
TORSDOF 6
ENDMDL
MODEL 7
REMARK VINA RESULT:      -9.6      1.602      7.430
REMARK  6 active torsions:
REMARK  status: ('A' for Active; 'I' for Inactive)
REMARK    1  A    between atoms: C_4  and  N_5 
REMARK       I    between atoms: N_5  and  C_6 
REMARK    2  A    between atoms: C_6  and  C_7 
REMARK       I    between atoms: C_7  and  N_8 
REMARK    3  A    between atoms: N_8  and  C_9 
REMARK    4  A    between atoms: C_9  and  C_10 
REMARK    5  A    between atoms: C_10  and  C_11 
REMARK    6  A    between atoms: C_11  and  C_12 
ROOT
HETATM    1  C   UNL     1      24.147  44.547  49.787  1.00  0.00     0.309 C 
HETATM    2  N   UNL     1      22.847  44.978  49.934  1.00  0.00    -0.353 N 
HETATM    3  O   UNL     1      24.749  44.415  48.732  1.00  0.00    -0.262 OA
HETATM    4  H   UNL     1      22.481  44.979  50.883  1.00  0.00     0.162 HD
ENDROOT
BRANCH   1   5
HETATM    5  C   UNL     1      24.831  44.198  51.129  1.00  0.00     0.314 C 
HETATM    6  N   UNL     1      26.024  44.853  51.296  1.00  0.00    -0.317 N 
HETATM    7  H   UNL     1      26.309  45.487  50.544  1.00  0.00     0.169 HD
HETATM    8  O   UNL     1      24.277  43.401  51.875  1.00  0.00    -0.262 OA
BRANCH   6   9
HETATM    9  C   UNL     1      26.936  44.775  52.374  1.00  0.00     0.065 A 
HETATM   10  C   UNL     1      27.884  43.752  52.495  1.00  0.00     0.038 A 
HETATM   11  C   UNL     1      28.764  43.723  53.581  1.00  0.00    -0.059 A 
HETATM   12  C   UNL     1      29.789  42.634  53.715  1.00  0.00     0.048 C 
HETATM   13  C   UNL     1      28.685  44.732  54.545  1.00  0.00     0.020 A 
HETATM   14  C   UNL     1      27.736  45.761  54.431  1.00  0.00    -0.005 A 
HETATM   15  C   UNL     1      26.846  45.793  53.337  1.00  0.00     0.093 A 
HETATM   16  C   UNL     1      27.645  46.778  55.391  1.00  0.00     0.015 A 
HETATM   17  N   UNL     1      25.924  46.776  53.201  1.00  0.00    -0.258 NA
HETATM   18  C   UNL     1      25.866  47.738  54.148  1.00  0.00     0.117 A 
HETATM   19  C   UNL     1      26.697  47.783  55.249  1.00  0.00     0.020 A 
ENDBRANCH   6   9
ENDBRANCH   1   5
BRANCH   2  20
HETATM   20  C   UNL     1      21.975  45.227  48.810  1.00  0.00     0.123 C 
BRANCH  20  21
HETATM   21  C   UNL     1      22.297  46.537  48.094  1.00  0.00     0.024 C 
BRANCH  21  22
HETATM   22  C   UNL     1      22.380  47.722  49.059  1.00  0.00     0.042 C 
BRANCH  22  23
HETATM   23  C   UNL     1      23.395  48.732  48.629  1.00  0.00    -0.030 A 
HETATM   24  C   UNL     1      24.798  48.706  48.913  1.00  0.00    -0.002 A 
HETATM   25  C   UNL     1      25.367  49.834  48.323  1.00  0.00     0.042 A 
HETATM   26  C   UNL     1      25.639  47.824  49.625  1.00  0.00     0.014 A 
HETATM   27  C   UNL     1      26.735  50.125  48.404  1.00  0.00     0.030 A 
HETATM   28  N   UNL     1      24.350  50.520  47.702  1.00  0.00    -0.365 N 
HETATM   29  C   UNL     1      27.545  49.235  49.114  1.00  0.00     0.002 A 
HETATM   30  C   UNL     1      27.007  48.100  49.717  1.00  0.00     0.001 A 
HETATM   31  H   UNL     1      24.472  51.383  47.190  1.00  0.00     0.165 HD
HETATM   32  C   UNL     1      23.159  49.868  47.880  1.00  0.00     0.096 A 
ENDBRANCH  22  23
ENDBRANCH  21  22
ENDBRANCH  20  21
ENDBRANCH   2  20
TORSDOF 6
ENDMDL
MODEL 8
REMARK VINA RESULT:      -9.4      2.569      9.313
REMARK  6 active torsions:
REMARK  status: ('A' for Active; 'I' for Inactive)
REMARK    1  A    between atoms: C_4  and  N_5 
REMARK       I    between atoms: N_5  and  C_6 
REMARK    2  A    between atoms: C_6  and  C_7 
REMARK       I    between atoms: C_7  and  N_8 
REMARK    3  A    between atoms: N_8  and  C_9 
REMARK    4  A    between atoms: C_9  and  C_10 
REMARK    5  A    between atoms: C_10  and  C_11 
REMARK    6  A    between atoms: C_11  and  C_12 
ROOT
HETATM    1  C   UNL     1      24.418  46.065  49.802  1.00  0.00     0.309 C 
HETATM    2  N   UNL     1      23.535  46.912  49.166  1.00  0.00    -0.353 N 
HETATM    3  O   UNL     1      24.535  44.865  49.604  1.00  0.00    -0.262 OA
HETATM    4  H   UNL     1      23.529  47.876  49.491  1.00  0.00     0.162 HD
ENDROOT
BRANCH   1   5
HETATM    5  C   UNL     1      25.287  46.774  50.866  1.00  0.00     0.314 C 
HETATM    6  N   UNL     1      25.473  46.006  51.987  1.00  0.00    -0.317 N 
HETATM    7  H   UNL     1      25.041  45.078  51.984  1.00  0.00     0.169 HD
HETATM    8  O   UNL     1      25.698  47.902  50.626  1.00  0.00    -0.262 OA
BRANCH   6   9
HETATM    9  C   UNL     1      26.185  46.318  53.167  1.00  0.00     0.065 A 
HETATM   10  C   UNL     1      25.886  47.430  53.965  1.00  0.00     0.038 A 
HETATM   11  C   UNL     1      26.621  47.691  55.124  1.00  0.00    -0.059 A 
HETATM   12  C   UNL     1      26.303  48.877  55.989  1.00  0.00     0.048 C 
HETATM   13  C   UNL     1      27.660  46.825  55.480  1.00  0.00     0.020 A 
HETATM   14  C   UNL     1      27.966  45.709  54.685  1.00  0.00    -0.005 A 
HETATM   15  C   UNL     1      27.226  45.441  53.514  1.00  0.00     0.093 A 
HETATM   16  C   UNL     1      29.005  44.833  55.029  1.00  0.00     0.015 A 
HETATM   17  N   UNL     1      27.500  44.370  52.731  1.00  0.00    -0.258 NA
HETATM   18  C   UNL     1      28.510  43.550  53.095  1.00  0.00     0.117 A 
HETATM   19  C   UNL     1      29.283  43.736  54.223  1.00  0.00     0.020 A 
ENDBRANCH   6   9
ENDBRANCH   1   5
BRANCH   2  20
HETATM   20  C   UNL     1      22.534  46.443  48.238  1.00  0.00     0.123 C 
BRANCH  20  21
HETATM   21  C   UNL     1      21.456  47.489  47.959  1.00  0.00     0.024 C 
BRANCH  21  22
HETATM   22  C   UNL     1      21.540  48.681  48.916  1.00  0.00     0.042 C 
BRANCH  22  23
HETATM   23  C   UNL     1      20.193  49.115  49.398  1.00  0.00    -0.030 A 
HETATM   24  C   UNL     1      19.575  50.387  49.174  1.00  0.00    -0.002 A 
HETATM   25  C   UNL     1      18.327  50.363  49.796  1.00  0.00     0.042 A 
HETATM   26  C   UNL     1      19.968  51.563  48.500  1.00  0.00     0.014 A 
HETATM   27  C   UNL     1      17.449  51.454  49.776  1.00  0.00     0.030 A 
HETATM   28  N   UNL     1      18.189  49.123  50.375  1.00  0.00    -0.365 N 
HETATM   29  C   UNL     1      17.861  52.606  49.101  1.00  0.00     0.002 A 
HETATM   30  C   UNL     1      19.103  52.662  48.471  1.00  0.00     0.001 A 
HETATM   31  H   UNL     1      17.377  48.824  50.896  1.00  0.00     0.165 HD
HETATM   32  C   UNL     1      19.305  48.364  50.143  1.00  0.00     0.096 A 
ENDBRANCH  22  23
ENDBRANCH  21  22
ENDBRANCH  20  21
ENDBRANCH   2  20
TORSDOF 6
ENDMDL
MODEL 9
REMARK VINA RESULT:      -9.4      2.814      4.522
REMARK  6 active torsions:
REMARK  status: ('A' for Active; 'I' for Inactive)
REMARK    1  A    between atoms: C_4  and  N_5 
REMARK       I    between atoms: N_5  and  C_6 
REMARK    2  A    between atoms: C_6  and  C_7 
REMARK       I    between atoms: C_7  and  N_8 
REMARK    3  A    between atoms: N_8  and  C_9 
REMARK    4  A    between atoms: C_9  and  C_10 
REMARK    5  A    between atoms: C_10  and  C_11 
REMARK    6  A    between atoms: C_11  and  C_12 
ROOT
HETATM    1  C   UNL     1      23.995  48.034  49.422  1.00  0.00     0.309 C 
HETATM    2  N   UNL     1      24.536  46.874  49.933  1.00  0.00    -0.353 N 
HETATM    3  O   UNL     1      24.489  49.150  49.487  1.00  0.00    -0.262 OA
HETATM    4  H   UNL     1      23.966  46.036  49.840  1.00  0.00     0.162 HD
ENDROOT
BRANCH   1   5
HETATM    5  C   UNL     1      22.624  47.821  48.741  1.00  0.00     0.314 C 
HETATM    6  N   UNL     1      21.584  48.312  49.490  1.00  0.00    -0.317 N 
HETATM    7  H   UNL     1      21.830  48.759  50.377  1.00  0.00     0.169 HD
HETATM    8  O   UNL     1      22.593  47.253  47.657  1.00  0.00    -0.262 OA
BRANCH   6   9
HETATM    9  C   UNL     1      20.199  48.285  49.210  1.00  0.00     0.065 A 
HETATM   10  C   UNL     1      19.530  47.128  48.792  1.00  0.00     0.038 A 
HETATM   11  C   UNL     1      18.157  47.156  48.531  1.00  0.00    -0.059 A 
HETATM   12  C   UNL     1      17.430  45.918  48.091  1.00  0.00     0.048 C 
HETATM   13  C   UNL     1      17.459  48.356  48.693  1.00  0.00     0.020 A 
HETATM   14  C   UNL     1      18.124  49.521  49.110  1.00  0.00    -0.005 A 
HETATM   15  C   UNL     1      19.509  49.497  49.375  1.00  0.00     0.093 A 
HETATM   16  C   UNL     1      17.437  50.732  49.275  1.00  0.00     0.015 A 
HETATM   17  N   UNL     1      20.173  50.606  49.781  1.00  0.00    -0.258 NA
HETATM   18  C   UNL     1      19.477  51.754  49.928  1.00  0.00     0.117 A 
HETATM   19  C   UNL     1      18.122  51.867  49.691  1.00  0.00     0.020 A 
ENDBRANCH   6   9
ENDBRANCH   1   5
BRANCH   2  20
HETATM   20  C   UNL     1      25.741  46.858  50.729  1.00  0.00     0.123 C 
BRANCH  20  21
HETATM   21  C   UNL     1      25.454  46.820  52.229  1.00  0.00     0.024 C 
BRANCH  21  22
HETATM   22  C   UNL     1      25.931  45.520  52.880  1.00  0.00     0.042 C 
BRANCH  22  23
HETATM   23  C   UNL     1      26.994  45.757  53.904  1.00  0.00    -0.030 A 
HETATM   24  C   UNL     1      28.082  44.882  54.224  1.00  0.00    -0.002 A 
HETATM   25  C   UNL     1      28.830  45.493  55.230  1.00  0.00     0.042 A 
HETATM   26  C   UNL     1      28.498  43.620  53.750  1.00  0.00     0.014 A 
HETATM   27  C   UNL     1      29.974  44.908  55.786  1.00  0.00     0.030 A 
HETATM   28  N   UNL     1      28.222  46.694  55.512  1.00  0.00    -0.365 N 
HETATM   29  C   UNL     1      30.365  43.658  55.298  1.00  0.00     0.002 A 
HETATM   30  C   UNL     1      29.638  43.021  54.294  1.00  0.00     0.001 A 
HETATM   31  H   UNL     1      28.550  47.352  56.205  1.00  0.00     0.165 HD
HETATM   32  C   UNL     1      27.117  46.864  54.721  1.00  0.00     0.096 A 
ENDBRANCH  22  23
ENDBRANCH  21  22
ENDBRANCH  20  21
ENDBRANCH   2  20
TORSDOF 6
ENDMDL
MODEL 10
REMARK VINA RESULT:      -9.2      2.393      9.280
REMARK  6 active torsions:
REMARK  status: ('A' for Active; 'I' for Inactive)
REMARK    1  A    between atoms: C_4  and  N_5 
REMARK       I    between atoms: N_5  and  C_6 
REMARK    2  A    between atoms: C_6  and  C_7 
REMARK       I    between atoms: C_7  and  N_8 
REMARK    3  A    between atoms: N_8  and  C_9 
REMARK    4  A    between atoms: C_9  and  C_10 
REMARK    5  A    between atoms: C_10  and  C_11 
REMARK    6  A    between atoms: C_11  and  C_12 
ROOT
HETATM    1  C   UNL     1      24.584  44.742  49.985  1.00  0.00     0.309 C 
HETATM    2  N   UNL     1      23.542  45.645  49.980  1.00  0.00    -0.353 N 
HETATM    3  O   UNL     1      25.056  44.181  49.007  1.00  0.00    -0.262 OA
HETATM    4  H   UNL     1      23.236  45.977  50.892  1.00  0.00     0.162 HD
ENDROOT
BRANCH   1   5
HETATM    5  C   UNL     1      25.134  44.450  51.399  1.00  0.00     0.314 C 
HETATM    6  N   UNL     1      26.382  44.984  51.598  1.00  0.00    -0.317 N 
HETATM    7  H   UNL     1      26.785  45.509  50.817  1.00  0.00     0.169 HD
HETATM    8  O   UNL     1      24.445  43.792  52.168  1.00  0.00    -0.262 OA
BRANCH   6   9
HETATM    9  C   UNL     1      27.206  44.910  52.743  1.00  0.00     0.065 A 
HETATM   10  C   UNL     1      28.130  43.878  52.950  1.00  0.00     0.038 A 
HETATM   11  C   UNL     1      28.923  43.854  54.101  1.00  0.00    -0.059 A 
HETATM   12  C   UNL     1      29.921  42.755  54.327  1.00  0.00     0.048 C 
HETATM   13  C   UNL     1      28.783  44.877  55.044  1.00  0.00     0.020 A 
HETATM   14  C   UNL     1      27.858  45.914  54.844  1.00  0.00    -0.005 A 
HETATM   15  C   UNL     1      27.056  45.942  53.683  1.00  0.00     0.093 A 
HETATM   16  C   UNL     1      27.706  46.945  55.781  1.00  0.00     0.015 A 
HETATM   17  N   UNL     1      26.158  46.934  53.465  1.00  0.00    -0.258 NA
HETATM   18  C   UNL     1      26.040  47.909  54.392  1.00  0.00     0.117 A 
HETATM   19  C   UNL     1      26.784  47.959  55.554  1.00  0.00     0.020 A 
ENDBRANCH   6   9
ENDBRANCH   1   5
BRANCH   2  20
HETATM   20  C   UNL     1      22.787  45.961  48.791  1.00  0.00     0.123 C 
BRANCH  20  21
HETATM   21  C   UNL     1      22.680  47.465  48.545  1.00  0.00     0.024 C 
BRANCH  21  22
HETATM   22  C   UNL     1      21.460  47.830  47.696  1.00  0.00     0.042 C 
BRANCH  22  23
HETATM   23  C   UNL     1      20.327  48.345  48.526  1.00  0.00    -0.030 A 
HETATM   24  C   UNL     1      19.934  49.713  48.679  1.00  0.00    -0.002 A 
HETATM   25  C   UNL     1      18.833  49.740  49.535  1.00  0.00     0.042 A 
HETATM   26  C   UNL     1      20.418  50.936  48.168  1.00  0.00     0.014 A 
HETATM   27  C   UNL     1      18.189  50.927  49.906  1.00  0.00     0.030 A 
HETATM   28  N   UNL     1      18.565  48.438  49.889  1.00  0.00    -0.365 N 
HETATM   29  C   UNL     1      18.688  52.124  49.386  1.00  0.00     0.002 A 
HETATM   30  C   UNL     1      19.787  52.131  48.529  1.00  0.00     0.001 A 
HETATM   31  H   UNL     1      17.816  48.156  50.504  1.00  0.00     0.165 HD
HETATM   32  C   UNL     1      19.457  47.590  49.288  1.00  0.00     0.096 A 
ENDBRANCH  22  23
ENDBRANCH  21  22
ENDBRANCH  20  21
ENDBRANCH   2  20
TORSDOF 6
ENDMDL
