MODEL 1
REMARK VINA RESULT:      -9.8      0.000      0.000
REMARK  4 active torsions:
REMARK  status: ('A' for Active; 'I' for Inactive)
REMARK    1  A    between atoms: O_2  and  C_3 
REMARK    2  A    between atoms: C_6  and  C_7 
REMARK    3  A    between atoms: C_12  and  N_13 
REMARK    4  A    between atoms: C_15  and  C_16 
ROOT
HETATM    1  C   UNL     1      26.171  44.513  53.190  1.00  0.00     0.135 C 
HETATM    2  N   UNL     1      26.087  43.113  52.793  1.00  0.00    -0.214 N 
HETATM    3  C   UNL     1      27.206  42.368  52.674  1.00  0.00     0.736 A 
HETATM    4  N   UNL     1      28.410  42.798  53.165  1.00  0.00    -0.074 N 
HETATM    5  N   UNL     1      29.404  41.965  52.807  1.00  0.00     0.037 NA
HETATM    6  C   UNL     1      28.715  41.001  52.201  1.00  0.00     0.753 A 
HETATM    7  N   UNL     1      27.376  41.220  52.072  1.00  0.00     0.131 NA
HETATM    8  C   UNL     1      28.614  44.100  53.790  1.00  0.00     0.164 C 
HETATM    9  C   UNL     1      27.270  44.692  54.253  1.00  0.00     0.063 C 
HETATM   10  H   UNL     1      25.299  42.861  52.203  1.00  0.00     0.178 HD
ENDROOT
BRANCH   1  11
HETATM   11  C   UNL     1      26.311  45.473  52.016  1.00  0.00    -0.035 A 
HETATM   12  C   UNL     1      26.028  46.844  52.096  1.00  0.00     0.012 A 
HETATM   13  C   UNL     1      26.183  47.673  50.980  1.00  0.00     0.037 A 
HETATM   14  C   UNL     1      26.627  47.161  49.762  1.00  0.00     0.068 A 
HETATM   15  C   UNL     1      26.904  45.801  49.663  1.00  0.00     0.037 A 
HETATM   16  C   UNL     1      26.749  44.968  50.778  1.00  0.00     0.012 A 
BRANCH  14  17
HETATM   17  O   UNL     1      26.743  48.083  48.760  1.00  0.00    -0.356 OA
HETATM   18  C   UNL     1      27.615  49.181  48.993  1.00  0.00     0.210 C 
ENDBRANCH  14  17
ENDBRANCH   1  11
BRANCH   8  19
HETATM   19  C   UNL     1      29.596  44.048  54.954  1.00  0.00    -0.031 A 
HETATM   20  C   UNL     1      29.555  45.042  55.945  1.00  0.00     0.028 A 
HETATM   21  C   UNL     1      30.431  44.991  57.031  1.00  0.00     0.011 A 
HETATM   22 BR   UNL     1      30.362  46.340  58.354  1.00  0.00    -0.051 Br
HETATM   23  C   UNL     1      31.353  43.953  57.151  1.00  0.00     0.019 A 
HETATM   24  C   UNL     1      31.402  42.960  56.176  1.00  0.00     0.002 A 
HETATM   25  C   UNL     1      30.529  43.004  55.087  1.00  0.00     0.009 A 
ENDBRANCH   8  19
BRANCH   6  26
HETATM   26  N   UNL     1      29.234  39.897  51.673  1.00  0.00    -0.229 N 
HETATM   27  H   UNL     1      29.931  40.024  50.951  1.00  0.00     0.174 HD
HETATM   28  H   UNL     1      28.601  39.123  51.526  1.00  0.00     0.174 HD
ENDBRANCH   6  26
TORSDOF 4
ENDMDL
MODEL 2
REMARK VINA RESULT:      -9.2      4.121      7.128
REMARK  4 active torsions:
REMARK  status: ('A' for Active; 'I' for Inactive)
REMARK    1  A    between atoms: O_2  and  C_3 
REMARK    2  A    between atoms: C_6  and  C_7 
REMARK    3  A    between atoms: C_12  and  N_13 
REMARK    4  A    between atoms: C_15  and  C_16 
ROOT
HETATM    1  C   UNL     1      26.096  44.640  53.937  1.00  0.00     0.135 C 
HETATM    2  N   UNL     1      25.707  45.966  53.473  1.00  0.00    -0.214 N 
HETATM    3  C   UNL     1      25.933  46.337  52.195  1.00  0.00     0.736 A 
HETATM    4  N   UNL     1      26.278  45.425  51.234  1.00  0.00    -0.074 N 
HETATM    5  N   UNL     1      26.593  46.036  50.078  1.00  0.00     0.037 NA
HETATM    6  C   UNL     1      26.308  47.300  50.378  1.00  0.00     0.753 A 
HETATM    7  N   UNL     1      25.930  47.533  51.667  1.00  0.00     0.131 NA
HETATM    8  C   UNL     1      26.499  44.007  51.501  1.00  0.00     0.164 C 
HETATM    9  C   UNL     1      25.839  43.601  52.831  1.00  0.00     0.063 C 
HETATM   10  H   UNL     1      25.701  46.702  54.173  1.00  0.00     0.178 HD
ENDROOT
BRANCH   1  11
HETATM   11  C   UNL     1      27.511  44.580  54.498  1.00  0.00    -0.035 A 
HETATM   12  C   UNL     1      28.113  45.635  55.197  1.00  0.00     0.012 A 
HETATM   13  C   UNL     1      29.416  45.514  55.692  1.00  0.00     0.037 A 
HETATM   14  C   UNL     1      30.148  44.342  55.506  1.00  0.00     0.068 A 
HETATM   15  C   UNL     1      29.568  43.288  54.805  1.00  0.00     0.037 A 
HETATM   16  C   UNL     1      28.264  43.407  54.308  1.00  0.00     0.012 A 
BRANCH  14  17
HETATM   17  O   UNL     1      31.402  44.357  56.048  1.00  0.00    -0.356 OA
HETATM   18  C   UNL     1      31.679  43.391  57.055  1.00  0.00     0.210 C 
ENDBRANCH  14  17
ENDBRANCH   1  11
BRANCH   8  19
HETATM   19  C   UNL     1      26.004  43.112  50.371  1.00  0.00    -0.031 A 
HETATM   20  C   UNL     1      26.931  42.489  49.519  1.00  0.00     0.028 A 
HETATM   21  C   UNL     1      26.493  41.645  48.498  1.00  0.00     0.011 A 
HETATM   22 BR   UNL     1      27.756  40.818  47.359  1.00  0.00    -0.051 Br
HETATM   23  C   UNL     1      25.134  41.404  48.311  1.00  0.00     0.019 A 
HETATM   24  C   UNL     1      24.204  42.013  49.150  1.00  0.00     0.002 A 
HETATM   25  C   UNL     1      24.635  42.859  50.174  1.00  0.00     0.009 A 
ENDBRANCH   8  19
BRANCH   6  26
HETATM   26  N   UNL     1      26.421  48.335  49.551  1.00  0.00    -0.229 N 
HETATM   27  H   UNL     1      26.279  49.253  49.951  1.00  0.00     0.174 HD
HETATM   28  H   UNL     1      26.053  48.212  48.618  1.00  0.00     0.174 HD
ENDBRANCH   6  26
TORSDOF 4
ENDMDL
MODEL 3
REMARK VINA RESULT:      -8.3      4.888      7.471
REMARK  4 active torsions:
REMARK  status: ('A' for Active; 'I' for Inactive)
REMARK    1  A    between atoms: O_2  and  C_3 
REMARK    2  A    between atoms: C_6  and  C_7 
REMARK    3  A    between atoms: C_12  and  N_13 
REMARK    4  A    between atoms: C_15  and  C_16 
ROOT
HETATM    1  C   UNL     1      24.565  44.313  50.674  1.00  0.00     0.135 C 
HETATM    2  N   UNL     1      24.464  44.709  52.074  1.00  0.00    -0.214 N 
HETATM    3  C   UNL     1      25.193  45.742  52.547  1.00  0.00     0.736 A 
HETATM    4  N   UNL     1      25.834  46.612  51.705  1.00  0.00    -0.074 N 
HETATM    5  N   UNL     1      26.610  47.468  52.394  1.00  0.00     0.037 NA
HETATM    6  C   UNL     1      26.302  47.132  53.644  1.00  0.00     0.753 A 
HETATM    7  N   UNL     1      25.465  46.066  53.784  1.00  0.00     0.131 NA
HETATM    8  C   UNL     1      25.851  46.474  50.253  1.00  0.00     0.164 C 
HETATM    9  C   UNL     1      24.701  45.562  49.785  1.00  0.00     0.063 C 
HETATM   10  H   UNL     1      24.228  43.972  52.732  1.00  0.00     0.178 HD
ENDROOT
BRANCH   1  11
HETATM   11  C   UNL     1      25.642  43.270  50.411  1.00  0.00    -0.035 A 
HETATM   12  C   UNL     1      26.027  42.859  49.127  1.00  0.00     0.012 A 
HETATM   13  C   UNL     1      27.029  41.899  48.953  1.00  0.00     0.037 A 
HETATM   14  C   UNL     1      27.674  41.328  50.049  1.00  0.00     0.068 A 
HETATM   15  C   UNL     1      27.297  41.717  51.331  1.00  0.00     0.037 A 
HETATM   16  C   UNL     1      26.294  42.678  51.508  1.00  0.00     0.012 A 
BRANCH  14  17
HETATM   17  O   UNL     1      28.638  40.412  49.735  1.00  0.00    -0.356 OA
HETATM   18  C   UNL     1      28.422  39.076  50.170  1.00  0.00     0.210 C 
ENDBRANCH  14  17
ENDBRANCH   1  11
BRANCH   8  19
HETATM   19  C   UNL     1      25.787  47.815  49.533  1.00  0.00    -0.031 A 
HETATM   20  C   UNL     1      24.539  48.391  49.242  1.00  0.00     0.028 A 
HETATM   21  C   UNL     1      24.466  49.632  48.608  1.00  0.00     0.011 A 
HETATM   22 BR   UNL     1      22.776  50.388  48.222  1.00  0.00    -0.051 Br
HETATM   23  C   UNL     1      25.626  50.320  48.259  1.00  0.00     0.019 A 
HETATM   24  C   UNL     1      26.870  49.761  48.544  1.00  0.00     0.002 A 
HETATM   25  C   UNL     1      26.950  48.520  49.179  1.00  0.00     0.009 A 
ENDBRANCH   8  19
BRANCH   6  26
HETATM   26  N   UNL     1      26.788  47.708  54.740  1.00  0.00    -0.229 N 
HETATM   27  H   UNL     1      26.236  47.617  55.583  1.00  0.00     0.174 HD
HETATM   28  H   UNL     1      27.243  48.602  54.619  1.00  0.00     0.174 HD
ENDBRANCH   6  26
TORSDOF 4
ENDMDL
MODEL 4
REMARK VINA RESULT:      -8.2     14.693     16.766
REMARK  4 active torsions:
REMARK  status: ('A' for Active; 'I' for Inactive)
REMARK    1  A    between atoms: O_2  and  C_3 
REMARK    2  A    between atoms: C_6  and  C_7 
REMARK    3  A    between atoms: C_12  and  N_13 
REMARK    4  A    between atoms: C_15  and  C_16 
ROOT
HETATM    1  C   UNL     1      37.341  42.938  63.398  1.00  0.00     0.135 C 
HETATM    2  N   UNL     1      36.212  43.066  64.311  1.00  0.00    -0.214 N 
HETATM    3  C   UNL     1      36.363  43.678  65.504  1.00  0.00     0.736 A 
HETATM    4  N   UNL     1      37.475  44.425  65.792  1.00  0.00    -0.074 N 
HETATM    5  N   UNL     1      37.475  44.816  67.079  1.00  0.00     0.037 NA
HETATM    6  C   UNL     1      36.287  44.370  67.475  1.00  0.00     0.753 A 
HETATM    7  N   UNL     1      35.588  43.645  66.557  1.00  0.00     0.131 NA
HETATM    8  C   UNL     1      38.610  44.572  64.888  1.00  0.00     0.164 C 
HETATM    9  C   UNL     1      38.201  44.214  63.447  1.00  0.00     0.063 C 
HETATM   10  H   UNL     1      35.503  42.340  64.252  1.00  0.00     0.178 HD
ENDROOT
BRANCH   1  11
HETATM   11  C   UNL     1      38.149  41.663  63.600  1.00  0.00    -0.035 A 
HETATM   12  C   UNL     1      38.228  40.981  64.822  1.00  0.00     0.012 A 
HETATM   13  C   UNL     1      38.984  39.810  64.940  1.00  0.00     0.037 A 
HETATM   14  C   UNL     1      39.675  39.288  63.848  1.00  0.00     0.068 A 
HETATM   15  C   UNL     1      39.615  39.959  62.629  1.00  0.00     0.037 A 
HETATM   16  C   UNL     1      38.859  41.132  62.508  1.00  0.00     0.012 A 
BRANCH  14  17
HETATM   17  O   UNL     1      40.365  38.136  64.100  1.00  0.00    -0.356 OA
HETATM   18  C   UNL     1      41.707  38.275  64.547  1.00  0.00     0.210 C 
ENDBRANCH  14  17
ENDBRANCH   1  11
BRANCH   8  19
HETATM   19  C   UNL     1      39.219  45.969  64.931  1.00  0.00    -0.031 A 
HETATM   20  C   UNL     1      38.402  47.077  65.207  1.00  0.00     0.028 A 
HETATM   21  C   UNL     1      38.952  48.358  65.276  1.00  0.00     0.011 A 
HETATM   22 BR   UNL     1      37.834  49.838  65.646  1.00  0.00    -0.051 Br
HETATM   23  C   UNL     1      40.316  48.556  65.078  1.00  0.00     0.019 A 
HETATM   24  C   UNL     1      41.139  47.465  64.807  1.00  0.00     0.002 A 
HETATM   25  C   UNL     1      40.595  46.181  64.736  1.00  0.00     0.009 A 
ENDBRANCH   8  19
BRANCH   6  26
HETATM   26  N   UNL     1      35.771  44.523  68.691  1.00  0.00    -0.229 N 
HETATM   27  H   UNL     1      35.795  45.457  69.080  1.00  0.00     0.174 HD
HETATM   28  H   UNL     1      35.940  43.779  69.353  1.00  0.00     0.174 HD
ENDBRANCH   6  26
TORSDOF 4
ENDMDL
MODEL 5
REMARK VINA RESULT:      -8.1     14.894     16.621
REMARK  4 active torsions:
REMARK  status: ('A' for Active; 'I' for Inactive)
REMARK    1  A    between atoms: O_2  and  C_3 
REMARK    2  A    between atoms: C_6  and  C_7 
REMARK    3  A    between atoms: C_12  and  N_13 
REMARK    4  A    between atoms: C_15  and  C_16 
ROOT
HETATM    1  C   UNL     1      37.327  44.457  63.497  1.00  0.00     0.135 C 
HETATM    2  N   UNL     1      38.520  45.196  63.104  1.00  0.00    -0.214 N 
HETATM    3  C   UNL     1      39.743  44.775  63.488  1.00  0.00     0.736 A 
HETATM    4  N   UNL     1      39.938  43.526  64.017  1.00  0.00    -0.074 N 
HETATM    5  N   UNL     1      41.201  43.380  64.457  1.00  0.00     0.037 NA
HETATM    6  C   UNL     1      41.738  44.530  64.062  1.00  0.00     0.753 A 
HETATM    7  N   UNL     1      40.879  45.422  63.493  1.00  0.00     0.131 NA
HETATM    8  C   UNL     1      38.862  42.577  64.276  1.00  0.00     0.164 C 
HETATM    9  C   UNL     1      37.610  42.945  63.458  1.00  0.00     0.063 C 
HETATM   10  H   UNL     1      38.401  46.195  62.957  1.00  0.00     0.178 HD
ENDROOT
BRANCH   1  11
HETATM   11  C   UNL     1      36.730  44.921  64.819  1.00  0.00    -0.035 A 
HETATM   12  C   UNL     1      36.027  44.078  65.691  1.00  0.00     0.012 A 
HETATM   13  C   UNL     1      35.508  44.565  66.895  1.00  0.00     0.037 A 
HETATM   14  C   UNL     1      35.678  45.900  67.262  1.00  0.00     0.068 A 
HETATM   15  C   UNL     1      36.364  46.753  66.402  1.00  0.00     0.037 A 
HETATM   16  C   UNL     1      36.885  46.268  65.196  1.00  0.00     0.012 A 
BRANCH  14  17
HETATM   17  O   UNL     1      35.129  46.239  68.466  1.00  0.00    -0.356 OA
HETATM   18  C   UNL     1      35.225  45.278  69.510  1.00  0.00     0.210 C 
ENDBRANCH  14  17
ENDBRANCH   1  11
BRANCH   8  19
HETATM   19  C   UNL     1      39.268  41.135  63.998  1.00  0.00    -0.031 A 
HETATM   20  C   UNL     1      39.602  40.287  65.067  1.00  0.00     0.028 A 
HETATM   21  C   UNL     1      39.950  38.956  64.828  1.00  0.00     0.011 A 
HETATM   22 BR   UNL     1      40.398  37.830  66.280  1.00  0.00    -0.051 Br
HETATM   23  C   UNL     1      39.968  38.449  63.531  1.00  0.00     0.019 A 
HETATM   24  C   UNL     1      39.637  39.279  62.462  1.00  0.00     0.002 A 
HETATM   25  C   UNL     1      39.288  40.611  62.693  1.00  0.00     0.009 A 
ENDBRANCH   8  19
BRANCH   6  26
HETATM   26  N   UNL     1      43.007  44.889  64.232  1.00  0.00    -0.229 N 
HETATM   27  H   UNL     1      43.473  44.529  65.055  1.00  0.00     0.174 HD
HETATM   28  H   UNL     1      43.248  45.838  63.983  1.00  0.00     0.174 HD
ENDBRANCH   6  26
TORSDOF 4
ENDMDL
MODEL 6
REMARK VINA RESULT:      -8.1      8.405     10.879
REMARK  4 active torsions:
REMARK  status: ('A' for Active; 'I' for Inactive)
REMARK    1  A    between atoms: O_2  and  C_3 
REMARK    2  A    between atoms: C_6  and  C_7 
REMARK    3  A    between atoms: C_12  and  N_13 
REMARK    4  A    between atoms: C_15  and  C_16 
ROOT
HETATM    1  C   UNL     1      19.094  49.325  50.397  1.00  0.00     0.135 C 
HETATM    2  N   UNL     1      18.889  47.915  50.091  1.00  0.00    -0.214 N 
HETATM    3  C   UNL     1      19.523  47.342  49.047  1.00  0.00     0.736 A 
HETATM    4  N   UNL     1      20.564  47.965  48.410  1.00  0.00    -0.074 N 
HETATM    5  N   UNL     1      20.943  47.278  47.317  1.00  0.00     0.037 NA
HETATM    6  C   UNL     1      20.169  46.201  47.419  1.00  0.00     0.753 A 
HETATM    7  N   UNL     1      19.268  46.211  48.442  1.00  0.00     0.131 NA
HETATM    8  C   UNL     1      21.034  49.305  48.743  1.00  0.00     0.164 C 
HETATM    9  C   UNL     1      20.566  49.706  50.154  1.00  0.00     0.063 C 
HETATM   10  H   UNL     1      17.987  47.526  50.353  1.00  0.00     0.178 HD
ENDROOT
BRANCH   1  11
HETATM   11  C   UNL     1      18.112  50.252  49.692  1.00  0.00    -0.035 A 
HETATM   12  C   UNL     1      18.071  51.638  49.896  1.00  0.00     0.012 A 
HETATM   13  C   UNL     1      17.147  52.435  49.212  1.00  0.00     0.037 A 
HETATM   14  C   UNL     1      16.246  51.874  48.308  1.00  0.00     0.068 A 
HETATM   15  C   UNL     1      16.267  50.498  48.101  1.00  0.00     0.037 A 
HETATM   16  C   UNL     1      17.191  49.697  48.785  1.00  0.00     0.012 A 
BRANCH  14  17
HETATM   17  O   UNL     1      15.407  52.768  47.704  1.00  0.00    -0.356 OA
HETATM   18  C   UNL     1      15.072  52.518  46.345  1.00  0.00     0.210 C 
ENDBRANCH  14  17
ENDBRANCH   1  11
BRANCH   8  19
HETATM   19  C   UNL     1      22.547  49.443  48.630  1.00  0.00    -0.031 A 
HETATM   20  C   UNL     1      23.382  48.578  49.358  1.00  0.00     0.028 A 
HETATM   21  C   UNL     1      24.769  48.675  49.243  1.00  0.00     0.011 A 
HETATM   22 BR   UNL     1      25.875  47.504  50.233  1.00  0.00    -0.051 Br
HETATM   23  C   UNL     1      25.347  49.625  48.404  1.00  0.00     0.019 A 
HETATM   24  C   UNL     1      24.531  50.488  47.675  1.00  0.00     0.002 A 
HETATM   25  C   UNL     1      23.142  50.396  47.785  1.00  0.00     0.009 A 
ENDBRANCH   8  19
BRANCH   6  26
HETATM   26  N   UNL     1      20.169  45.169  46.581  1.00  0.00    -0.229 N 
HETATM   27  H   UNL     1      19.859  45.352  45.636  1.00  0.00     0.174 HD
HETATM   28  H   UNL     1      19.886  44.276  46.960  1.00  0.00     0.174 HD
ENDBRANCH   6  26
TORSDOF 4
ENDMDL
MODEL 7
REMARK VINA RESULT:      -8.1     13.224     15.006
REMARK  4 active torsions:
REMARK  status: ('A' for Active; 'I' for Inactive)
REMARK    1  A    between atoms: O_2  and  C_3 
REMARK    2  A    between atoms: C_6  and  C_7 
REMARK    3  A    between atoms: C_12  and  N_13 
REMARK    4  A    between atoms: C_15  and  C_16 
ROOT
HETATM    1  C   UNL     1      31.411  50.612  42.805  1.00  0.00     0.135 C 
HETATM    2  N   UNL     1      30.716  51.739  42.196  1.00  0.00    -0.214 N 
HETATM    3  C   UNL     1      30.172  51.623  40.966  1.00  0.00     0.736 A 
HETATM    4  N   UNL     1      30.013  50.403  40.364  1.00  0.00    -0.074 N 
HETATM    5  N   UNL     1      29.587  50.542  39.095  1.00  0.00     0.037 NA
HETATM    6  C   UNL     1      29.403  51.858  39.037  1.00  0.00     0.753 A 
HETATM    7  N   UNL     1      29.774  52.559  40.145  1.00  0.00     0.131 NA
HETATM    8  C   UNL     1      30.467  49.145  40.946  1.00  0.00     0.164 C 
HETATM    9  C   UNL     1      30.683  49.300  42.463  1.00  0.00     0.063 C 
HETATM   10  H   UNL     1      31.030  52.664  42.476  1.00  0.00     0.178 HD
ENDROOT
BRANCH   1  11
HETATM   11  C   UNL     1      32.901  50.570  42.489  1.00  0.00    -0.035 A 
HETATM   12  C   UNL     1      33.477  49.667  41.585  1.00  0.00     0.012 A 
HETATM   13  C   UNL     1      34.853  49.685  41.335  1.00  0.00     0.037 A 
HETATM   14  C   UNL     1      35.687  50.601  41.974  1.00  0.00     0.068 A 
HETATM   15  C   UNL     1      35.132  51.498  42.882  1.00  0.00     0.037 A 
HETATM   16  C   UNL     1      33.755  51.483  43.135  1.00  0.00     0.012 A 
BRANCH  14  17
HETATM   17  O   UNL     1      37.006  50.514  41.630  1.00  0.00    -0.356 OA
HETATM   18  C   UNL     1      37.946  50.447  42.696  1.00  0.00     0.210 C 
ENDBRANCH  14  17
ENDBRANCH   1  11
BRANCH   8  19
HETATM   19  C   UNL     1      29.516  47.988  40.664  1.00  0.00    -0.031 A 
HETATM   20  C   UNL     1      29.897  46.976  39.768  1.00  0.00     0.028 A 
HETATM   21  C   UNL     1      29.047  45.896  39.521  1.00  0.00     0.011 A 
HETATM   22 BR   UNL     1      29.577  44.545  38.309  1.00  0.00    -0.051 Br
HETATM   23  C   UNL     1      27.813  45.805  40.161  1.00  0.00     0.019 A 
HETATM   24  C   UNL     1      27.424  46.801  41.053  1.00  0.00     0.002 A 
HETATM   25  C   UNL     1      28.270  47.883  41.305  1.00  0.00     0.009 A 
ENDBRANCH   8  19
BRANCH   6  26
HETATM   26  N   UNL     1      28.952  52.528  37.980  1.00  0.00    -0.229 N 
HETATM   27  H   UNL     1      29.593  53.181  37.550  1.00  0.00     0.174 HD
HETATM   28  H   UNL     1      27.989  52.830  38.012  1.00  0.00     0.174 HD
ENDBRANCH   6  26
TORSDOF 4
ENDMDL
MODEL 8
REMARK VINA RESULT:      -8.0      3.385      4.915
REMARK  4 active torsions:
REMARK  status: ('A' for Active; 'I' for Inactive)
REMARK    1  A    between atoms: O_2  and  C_3 
REMARK    2  A    between atoms: C_6  and  C_7 
REMARK    3  A    between atoms: C_12  and  N_13 
REMARK    4  A    between atoms: C_15  and  C_16 
ROOT
HETATM    1  C   UNL     1      26.773  44.883  49.781  1.00  0.00     0.135 C 
HETATM    2  N   UNL     1      26.421  46.229  50.217  1.00  0.00    -0.214 N 
HETATM    3  C   UNL     1      26.296  46.513  51.530  1.00  0.00     0.736 A 
HETATM    4  N   UNL     1      26.744  45.651  52.496  1.00  0.00    -0.074 N 
HETATM    5  N   UNL     1      26.386  46.071  53.723  1.00  0.00     0.037 NA
HETATM    6  C   UNL     1      25.827  47.242  53.432  1.00  0.00     0.753 A 
HETATM    7  N   UNL     1      25.725  47.538  52.106  1.00  0.00     0.131 NA
HETATM    8  C   UNL     1      27.324  44.343  52.211  1.00  0.00     0.164 C 
HETATM    9  C   UNL     1      27.802  44.272  50.749  1.00  0.00     0.063 C 
HETATM   10  H   UNL     1      25.858  46.776  49.571  1.00  0.00     0.178 HD
ENDROOT
BRANCH   1  11
HETATM   11  C   UNL     1      25.567  43.983  49.543  1.00  0.00    -0.035 A 
HETATM   12  C   UNL     1      24.241  44.431  49.606  1.00  0.00     0.012 A 
HETATM   13  C   UNL     1      23.177  43.554  49.371  1.00  0.00     0.037 A 
HETATM   14  C   UNL     1      23.407  42.214  49.064  1.00  0.00     0.068 A 
HETATM   15  C   UNL     1      24.719  41.750  49.007  1.00  0.00     0.037 A 
HETATM   16  C   UNL     1      25.785  42.626  49.243  1.00  0.00     0.012 A 
BRANCH  14  17
HETATM   17  O   UNL     1      22.280  41.472  48.849  1.00  0.00    -0.356 OA
HETATM   18  C   UNL     1      22.272  40.632  47.702  1.00  0.00     0.210 C 
ENDBRANCH  14  17
ENDBRANCH   1  11
BRANCH   8  19
HETATM   19  C   UNL     1      28.464  43.986  53.157  1.00  0.00    -0.031 A 
HETATM   20  C   UNL     1      28.672  44.751  54.317  1.00  0.00     0.028 A 
HETATM   21  C   UNL     1      29.696  44.418  55.206  1.00  0.00     0.011 A 
HETATM   22 BR   UNL     1      29.962  45.462  56.760  1.00  0.00    -0.051 Br
HETATM   23  C   UNL     1      30.522  43.324  54.960  1.00  0.00     0.019 A 
HETATM   24  C   UNL     1      30.325  42.556  53.814  1.00  0.00     0.002 A 
HETATM   25  C   UNL     1      29.302  42.882  52.921  1.00  0.00     0.009 A 
ENDBRANCH   8  19
BRANCH   6  26
HETATM   26  N   UNL     1      25.319  48.096  54.316  1.00  0.00    -0.229 N 
HETATM   27  H   UNL     1      25.279  49.067  54.037  1.00  0.00     0.174 HD
HETATM   28  H   UNL     1      25.553  47.937  55.286  1.00  0.00     0.174 HD
ENDBRANCH   6  26
TORSDOF 4
ENDMDL
MODEL 9
REMARK VINA RESULT:      -7.8      3.570      5.177
REMARK  4 active torsions:
REMARK  status: ('A' for Active; 'I' for Inactive)
REMARK    1  A    between atoms: O_2  and  C_3 
REMARK    2  A    between atoms: C_6  and  C_7 
REMARK    3  A    between atoms: C_12  and  N_13 
REMARK    4  A    between atoms: C_15  and  C_16 
ROOT
HETATM    1  C   UNL     1      25.957  45.587  49.495  1.00  0.00     0.135 C 
HETATM    2  N   UNL     1      26.117  46.788  50.305  1.00  0.00    -0.214 N 
HETATM    3  C   UNL     1      26.141  46.706  51.652  1.00  0.00     0.736 A 
HETATM    4  N   UNL     1      26.286  45.505  52.295  1.00  0.00    -0.074 N 
HETATM    5  N   UNL     1      26.137  45.647  53.625  1.00  0.00     0.037 NA
HETATM    6  C   UNL     1      26.019  46.969  53.722  1.00  0.00     0.753 A 
HETATM    7  N   UNL     1      25.987  47.651  52.543  1.00  0.00     0.131 NA
HETATM    8  C   UNL     1      26.357  44.220  51.609  1.00  0.00     0.164 C 
HETATM    9  C   UNL     1      26.734  44.419  50.129  1.00  0.00     0.063 C 
HETATM   10  H   UNL     1      25.764  47.652  49.902  1.00  0.00     0.178 HD
ENDROOT
BRANCH   1  11
HETATM   11  C   UNL     1      24.505  45.245  49.189  1.00  0.00    -0.035 A 
HETATM   12  C   UNL     1      23.488  46.204  49.081  1.00  0.00     0.012 A 
HETATM   13  C   UNL     1      22.173  45.824  48.793  1.00  0.00     0.037 A 
HETATM   14  C   UNL     1      21.839  44.484  48.602  1.00  0.00     0.068 A 
HETATM   15  C   UNL     1      22.835  43.518  48.716  1.00  0.00     0.037 A 
HETATM   16  C   UNL     1      24.152  43.896  49.005  1.00  0.00     0.012 A 
BRANCH  14  17
HETATM   17  O   UNL     1      20.523  44.255  48.318  1.00  0.00    -0.356 OA
HETATM   18  C   UNL     1      19.646  45.373  48.385  1.00  0.00     0.210 C 
ENDBRANCH  14  17
ENDBRANCH   1  11
BRANCH   8  19
HETATM   19  C   UNL     1      27.326  43.250  52.274  1.00  0.00    -0.031 A 
HETATM   20  C   UNL     1      28.268  43.732  53.199  1.00  0.00     0.028 A 
HETATM   21  C   UNL     1      29.143  42.850  53.836  1.00  0.00     0.011 A 
HETATM   22 BR   UNL     1      30.406  43.518  55.075  1.00  0.00    -0.051 Br
HETATM   23  C   UNL     1      29.095  41.484  53.568  1.00  0.00     0.019 A 
HETATM   24  C   UNL     1      28.164  40.994  52.655  1.00  0.00     0.002 A 
HETATM   25  C   UNL     1      27.285  41.869  52.014  1.00  0.00     0.009 A 
ENDBRANCH   8  19
BRANCH   6  26
HETATM   26  N   UNL     1      25.873  47.649  54.855  1.00  0.00    -0.229 N 
HETATM   27  H   UNL     1      26.658  47.642  55.493  1.00  0.00     0.174 HD
HETATM   28  H   UNL     1      24.964  47.609  55.294  1.00  0.00     0.174 HD
ENDBRANCH   6  26
TORSDOF 4
ENDMDL
MODEL 10
REMARK VINA RESULT:      -7.7     13.204     14.889
REMARK  4 active torsions:
REMARK  status: ('A' for Active; 'I' for Inactive)
REMARK    1  A    between atoms: O_2  and  C_3 
REMARK    2  A    between atoms: C_6  and  C_7 
REMARK    3  A    between atoms: C_12  and  N_13 
REMARK    4  A    between atoms: C_15  and  C_16 
ROOT
HETATM    1  C   UNL     1      30.154  49.908  41.977  1.00  0.00     0.135 C 
HETATM    2  N   UNL     1      28.946  50.649  41.633  1.00  0.00    -0.214 N 
HETATM    3  C   UNL     1      28.250  50.341  40.518  1.00  0.00     0.736 A 
HETATM    4  N   UNL     1      28.480  49.183  39.825  1.00  0.00    -0.074 N 
HETATM    5  N   UNL     1      27.776  49.156  38.679  1.00  0.00     0.037 NA
HETATM    6  C   UNL     1      27.062  50.272  38.800  1.00  0.00     0.753 A 
HETATM    7  N   UNL     1      27.340  51.040  39.891  1.00  0.00     0.131 NA
HETATM    8  C   UNL     1      29.521  48.222  40.173  1.00  0.00     0.164 C 
HETATM    9  C   UNL     1      29.972  48.419  41.632  1.00  0.00     0.063 C 
HETATM   10  H   UNL     1      28.906  51.613  41.950  1.00  0.00     0.178 HD
ENDROOT
BRANCH   1  11
HETATM   11  C   UNL     1      31.426  50.507  41.391  1.00  0.00    -0.035 A 
HETATM   12  C   UNL     1      32.675  49.872  41.436  1.00  0.00     0.012 A 
HETATM   13  C   UNL     1      33.804  50.475  40.873  1.00  0.00     0.037 A 
HETATM   14  C   UNL     1      33.719  51.719  40.251  1.00  0.00     0.068 A 
HETATM   15  C   UNL     1      32.488  52.368  40.206  1.00  0.00     0.037 A 
HETATM   16  C   UNL     1      31.355  51.767  40.769  1.00  0.00     0.012 A 
BRANCH  14  17
HETATM   17  O   UNL     1      34.896  52.186  39.736  1.00  0.00    -0.356 OA
HETATM   18  C   UNL     1      34.916  53.540  39.303  1.00  0.00     0.210 C 
ENDBRANCH  14  17
ENDBRANCH   1  11
BRANCH   8  19
HETATM   19  C   UNL     1      29.090  46.778  39.944  1.00  0.00    -0.031 A 
HETATM   20  C   UNL     1      28.005  46.253  40.664  1.00  0.00     0.028 A 
HETATM   21  C   UNL     1      27.582  44.941  40.445  1.00  0.00     0.011 A 
HETATM   22 BR   UNL     1      26.120  44.252  41.427  1.00  0.00    -0.051 Br
HETATM   23  C   UNL     1      28.226  44.135  39.509  1.00  0.00     0.019 A 
HETATM   24  C   UNL     1      29.302  44.645  38.786  1.00  0.00     0.002 A 
HETATM   25  C   UNL     1      29.730  45.957  39.000  1.00  0.00     0.009 A 
ENDBRANCH   8  19
BRANCH   6  26
HETATM   26  N   UNL     1      26.163  50.712  37.924  1.00  0.00    -0.229 N 
HETATM   27  H   UNL     1      26.363  50.545  36.947  1.00  0.00     0.174 HD
HETATM   28  H   UNL     1      25.729  51.601  38.127  1.00  0.00     0.174 HD
ENDBRANCH   6  26
TORSDOF 4
ENDMDL
