MODEL 1
REMARK VINA RESULT:      -8.9      0.000      0.000
REMARK  6 active torsions:
REMARK  status: ('A' for Active; 'I' for Inactive)
REMARK    1  A    between atoms: C_2  and  O_3 
REMARK    2  A    between atoms: O_3  and  C_4 
REMARK    3  A    between atoms: C_8  and  C_9 
REMARK    4  A    between atoms: C_9  and  N_10 
REMARK       I    between atoms: N_10  and  C_11 
REMARK       I    between atoms: C_11  and  N_12 
REMARK    5  A    between atoms: N_12  and  C_13 
REMARK    6  A    between atoms: C_14  and  C_15 
ROOT
HETATM    1  N   UNL     1      26.302  43.752  50.566  1.00  0.00    -0.339 N 
HETATM    2  C   UNL     1      27.050  42.733  50.054  1.00  0.00     0.316 C 
HETATM    3  N   UNL     1      27.868  42.086  50.927  1.00  0.00    -0.338 N 
HETATM    4  O   UNL     1      27.022  42.395  48.874  1.00  0.00    -0.247 OA
HETATM    5  H   UNL     1      26.117  43.711  51.555  1.00  0.00     0.164 HD
HETATM    6  H   UNL     1      28.398  41.344  50.483  1.00  0.00     0.164 HD
ENDROOT
BRANCH   1   7
HETATM    7  C   UNL     1      25.319  44.380  49.718  1.00  0.00     0.163 C 
BRANCH   7   8
HETATM    8  C   UNL     1      25.479  45.872  49.646  1.00  0.00    -0.035 A 
HETATM    9  C   UNL     1      26.746  46.448  49.529  1.00  0.00     0.028 A 
HETATM   10  C   UNL     1      26.852  47.830  49.545  1.00  0.00     0.120 A 
HETATM   11  N   UNL     1      25.800  48.663  49.678  1.00  0.00    -0.237 NA
HETATM   12  C   UNL     1      24.587  48.094  49.804  1.00  0.00     0.165 A 
HETATM   13  C   UNL     1      24.376  46.724  49.773  1.00  0.00     0.066 A 
BRANCH  12  14
HETATM   14  O   UNL     1      23.466  48.881  49.924  1.00  0.00    -0.324 OA
BRANCH  14  15
HETATM   15  C   UNL     1      22.940  49.522  48.746  1.00  0.00     0.058 C 
HETATM   16  C   UNL     1      22.002  48.614  47.937  1.00  0.00     0.045 C 
HETATM   17  C   UNL     1      24.040  50.140  47.868  1.00  0.00     0.045 C 
HETATM   18  C   UNL     1      22.090  50.679  49.308  1.00  0.00     0.045 C 
ENDBRANCH  14  15
ENDBRANCH  12  14
ENDBRANCH   7   8
ENDBRANCH   1   7
BRANCH   3  19
HETATM   19  C   UNL     1      28.076  42.327  52.318  1.00  0.00     0.095 A 
HETATM   20  C   UNL     1      29.451  42.543  52.916  1.00  0.00     0.043 A 
HETATM   21  C   UNL     1      28.722  41.237  53.126  1.00  0.00     0.037 A 
BRANCH  20  22
HETATM   22  C   UNL     1      29.658  43.439  54.117  1.00  0.00    -0.052 A 
HETATM   23  C   UNL     1      28.825  44.553  54.334  1.00  0.00     0.007 A 
HETATM   24  C   UNL     1      29.005  45.398  55.431  1.00  0.00     0.001 A 
HETATM   25  C   UNL     1      30.019  45.141  56.347  1.00  0.00     0.000 A 
HETATM   26  C   UNL     1      30.845  44.034  56.168  1.00  0.00     0.001 A 
HETATM   27  C   UNL     1      30.661  43.192  55.067  1.00  0.00     0.007 A 
ENDBRANCH  20  22
ENDBRANCH   3  19
TORSDOF 6
ENDMDL
MODEL 2
REMARK VINA RESULT:      -8.5      2.866     10.063
REMARK  6 active torsions:
REMARK  status: ('A' for Active; 'I' for Inactive)
REMARK    1  A    between atoms: C_2  and  O_3 
REMARK    2  A    between atoms: O_3  and  C_4 
REMARK    3  A    between atoms: C_8  and  C_9 
REMARK    4  A    between atoms: C_9  and  N_10 
REMARK       I    between atoms: N_10  and  C_11 
REMARK       I    between atoms: C_11  and  N_12 
REMARK    5  A    between atoms: N_12  and  C_13 
REMARK    6  A    between atoms: C_14  and  C_15 
ROOT
HETATM    1  N   UNL     1      24.489  48.930  49.042  1.00  0.00    -0.339 N 
HETATM    2  C   UNL     1      24.556  49.876  48.062  1.00  0.00     0.316 C 
HETATM    3  N   UNL     1      23.408  50.555  47.797  1.00  0.00    -0.338 N 
HETATM    4  O   UNL     1      25.576  50.125  47.425  1.00  0.00    -0.247 OA
HETATM    5  H   UNL     1      23.761  49.053  49.726  1.00  0.00     0.164 HD
HETATM    6  H   UNL     1      23.524  51.239  47.058  1.00  0.00     0.164 HD
ENDROOT
BRANCH   1   7
HETATM    7  C   UNL     1      25.707  48.280  49.458  1.00  0.00     0.163 C 
BRANCH   7   8
HETATM    8  C   UNL     1      25.461  47.101  50.356  1.00  0.00    -0.035 A 
HETATM    9  C   UNL     1      24.565  46.096  49.983  1.00  0.00     0.028 A 
HETATM   10  C   UNL     1      24.311  45.067  50.876  1.00  0.00     0.120 A 
HETATM   11  N   UNL     1      24.870  44.979  52.100  1.00  0.00    -0.237 NA
HETATM   12  C   UNL     1      25.719  45.962  52.452  1.00  0.00     0.165 A 
HETATM   13  C   UNL     1      26.059  47.017  51.618  1.00  0.00     0.066 A 
BRANCH  12  14
HETATM   14  O   UNL     1      26.343  45.927  53.677  1.00  0.00    -0.324 OA
BRANCH  14  15
HETATM   15  C   UNL     1      27.174  44.796  54.001  1.00  0.00     0.058 C 
HETATM   16  C   UNL     1      27.895  44.212  52.777  1.00  0.00     0.045 C 
HETATM   17  C   UNL     1      26.419  43.716  54.793  1.00  0.00     0.045 C 
HETATM   18  C   UNL     1      28.251  45.388  54.932  1.00  0.00     0.045 C 
ENDBRANCH  14  15
ENDBRANCH  12  14
ENDBRANCH   7   8
ENDBRANCH   1   7
BRANCH   3  19
HETATM   19  C   UNL     1      22.117  50.411  48.388  1.00  0.00     0.095 A 
HETATM   20  C   UNL     1      21.216  51.592  48.688  1.00  0.00     0.043 A 
HETATM   21  C   UNL     1      21.943  50.880  49.805  1.00  0.00     0.037 A 
BRANCH  20  22
HETATM   22  C   UNL     1      19.710  51.468  48.634  1.00  0.00    -0.052 A 
HETATM   23  C   UNL     1      18.934  51.628  49.797  1.00  0.00     0.007 A 
HETATM   24  C   UNL     1      17.542  51.509  49.770  1.00  0.00     0.001 A 
HETATM   25  C   UNL     1      16.891  51.237  48.571  1.00  0.00     0.000 A 
HETATM   26  C   UNL     1      17.633  51.093  47.402  1.00  0.00     0.001 A 
HETATM   27  C   UNL     1      19.026  51.213  47.435  1.00  0.00     0.007 A 
ENDBRANCH  20  22
ENDBRANCH   3  19
TORSDOF 6
ENDMDL
MODEL 3
REMARK VINA RESULT:      -8.4      4.096      7.052
REMARK  6 active torsions:
REMARK  status: ('A' for Active; 'I' for Inactive)
REMARK    1  A    between atoms: C_2  and  O_3 
REMARK    2  A    between atoms: O_3  and  C_4 
REMARK    3  A    between atoms: C_8  and  C_9 
REMARK    4  A    between atoms: C_9  and  N_10 
REMARK       I    between atoms: N_10  and  C_11 
REMARK       I    between atoms: C_11  and  N_12 
REMARK    5  A    between atoms: N_12  and  C_13 
REMARK    6  A    between atoms: C_14  and  C_15 
ROOT
HETATM    1  N   UNL     1      25.692  42.941  51.966  1.00  0.00    -0.339 N 
HETATM    2  C   UNL     1      25.291  44.112  52.536  1.00  0.00     0.316 C 
HETATM    3  N   UNL     1      26.103  44.626  53.499  1.00  0.00    -0.338 N 
HETATM    4  O   UNL     1      24.254  44.697  52.233  1.00  0.00    -0.247 OA
HETATM    5  H   UNL     1      26.679  42.746  52.003  1.00  0.00     0.164 HD
HETATM    6  H   UNL     1      25.747  45.493  53.884  1.00  0.00     0.164 HD
ENDROOT
BRANCH   1   7
HETATM    7  C   UNL     1      24.942  42.425  50.847  1.00  0.00     0.163 C 
BRANCH   7   8
HETATM    8  C   UNL     1      25.811  41.754  49.822  1.00  0.00    -0.035 A 
HETATM    9  C   UNL     1      25.486  41.808  48.465  1.00  0.00     0.028 A 
HETATM   10  C   UNL     1      26.273  41.108  47.564  1.00  0.00     0.120 A 
HETATM   11  N   UNL     1      27.339  40.363  47.919  1.00  0.00    -0.237 NA
HETATM   12  C   UNL     1      27.633  40.308  49.231  1.00  0.00     0.165 A 
HETATM   13  C   UNL     1      26.922  40.993  50.205  1.00  0.00     0.066 A 
BRANCH  12  14
HETATM   14  O   UNL     1      28.718  39.583  49.664  1.00  0.00    -0.324 OA
BRANCH  14  15
HETATM   15  C   UNL     1      28.733  38.159  49.445  1.00  0.00     0.058 C 
HETATM   16  C   UNL     1      29.366  37.766  48.103  1.00  0.00     0.045 C 
HETATM   17  C   UNL     1      27.351  37.516  49.640  1.00  0.00     0.045 C 
HETATM   18  C   UNL     1      29.654  37.628  50.562  1.00  0.00     0.045 C 
ENDBRANCH  14  15
ENDBRANCH  12  14
ENDBRANCH   7   8
ENDBRANCH   1   7
BRANCH   3  19
HETATM   19  C   UNL     1      27.325  44.105  54.021  1.00  0.00     0.095 A 
HETATM   20  C   UNL     1      28.547  44.968  54.262  1.00  0.00     0.043 A 
HETATM   21  C   UNL     1      28.500  44.017  53.088  1.00  0.00     0.037 A 
BRANCH  20  22
HETATM   22  C   UNL     1      29.520  44.663  55.380  1.00  0.00    -0.052 A 
HETATM   23  C   UNL     1      30.341  43.522  55.326  1.00  0.00     0.007 A 
HETATM   24  C   UNL     1      31.239  43.218  56.352  1.00  0.00     0.001 A 
HETATM   25  C   UNL     1      31.344  44.059  57.455  1.00  0.00     0.000 A 
HETATM   26  C   UNL     1      30.557  45.205  57.525  1.00  0.00     0.001 A 
HETATM   27  C   UNL     1      29.659  45.504  56.495  1.00  0.00     0.007 A 
ENDBRANCH  20  22
ENDBRANCH   3  19
TORSDOF 6
ENDMDL
MODEL 4
REMARK VINA RESULT:      -8.4      3.659      7.328
REMARK  6 active torsions:
REMARK  status: ('A' for Active; 'I' for Inactive)
REMARK    1  A    between atoms: C_2  and  O_3 
REMARK    2  A    between atoms: O_3  and  C_4 
REMARK    3  A    between atoms: C_8  and  C_9 
REMARK    4  A    between atoms: C_9  and  N_10 
REMARK       I    between atoms: N_10  and  C_11 
REMARK       I    between atoms: C_11  and  N_12 
REMARK    5  A    between atoms: N_12  and  C_13 
REMARK    6  A    between atoms: C_14  and  C_15 
ROOT
HETATM    1  N   UNL     1      25.578  43.339  51.670  1.00  0.00    -0.339 N 
HETATM    2  C   UNL     1      24.728  44.402  51.750  1.00  0.00     0.316 C 
HETATM    3  N   UNL     1      25.182  45.491  52.427  1.00  0.00    -0.338 N 
HETATM    4  O   UNL     1      23.602  44.411  51.259  1.00  0.00    -0.247 OA
HETATM    5  H   UNL     1      26.558  43.549  51.765  1.00  0.00     0.164 HD
HETATM    6  H   UNL     1      24.502  46.242  52.452  1.00  0.00     0.164 HD
ENDROOT
BRANCH   1   7
HETATM    7  C   UNL     1      25.203  42.215  50.849  1.00  0.00     0.163 C 
BRANCH   7   8
HETATM    8  C   UNL     1      26.368  41.617  50.112  1.00  0.00    -0.035 A 
HETATM    9  C   UNL     1      26.556  41.868  48.751  1.00  0.00     0.028 A 
HETATM   10  C   UNL     1      27.599  41.233  48.096  1.00  0.00     0.120 A 
HETATM   11  N   UNL     1      28.448  40.371  48.692  1.00  0.00    -0.237 NA
HETATM   12  C   UNL     1      28.246  40.127  50.000  1.00  0.00     0.165 A 
HETATM   13  C   UNL     1      27.248  40.734  50.748  1.00  0.00     0.066 A 
BRANCH  12  14
HETATM   14  O   UNL     1      29.085  39.275  50.679  1.00  0.00    -0.324 OA
BRANCH  14  15
HETATM   15  C   UNL     1      29.198  37.910  50.231  1.00  0.00     0.058 C 
HETATM   16  C   UNL     1      27.886  37.358  49.655  1.00  0.00     0.045 C 
HETATM   17  C   UNL     1      29.790  36.983  51.304  1.00  0.00     0.045 C 
HETATM   18  C   UNL     1      30.213  37.989  49.073  1.00  0.00     0.045 C 
ENDBRANCH  14  15
ENDBRANCH  12  14
ENDBRANCH   7   8
ENDBRANCH   1   7
BRANCH   3  19
HETATM   19  C   UNL     1      26.430  45.685  53.091  1.00  0.00     0.095 A 
HETATM   20  C   UNL     1      26.729  45.106  54.458  1.00  0.00     0.043 A 
HETATM   21  C   UNL     1      26.446  46.581  54.297  1.00  0.00     0.037 A 
BRANCH  20  22
HETATM   22  C   UNL     1      28.131  44.694  54.851  1.00  0.00    -0.052 A 
HETATM   23  C   UNL     1      28.910  45.509  55.693  1.00  0.00     0.007 A 
HETATM   24  C   UNL     1      30.209  45.152  56.061  1.00  0.00     0.001 A 
HETATM   25  C   UNL     1      30.758  43.960  55.600  1.00  0.00     0.000 A 
HETATM   26  C   UNL     1      30.003  43.125  54.781  1.00  0.00     0.001 A 
HETATM   27  C   UNL     1      28.702  43.488  54.416  1.00  0.00     0.007 A 
ENDBRANCH  20  22
ENDBRANCH   3  19
TORSDOF 6
ENDMDL
MODEL 5
REMARK VINA RESULT:      -8.3      1.818      2.362
REMARK  6 active torsions:
REMARK  status: ('A' for Active; 'I' for Inactive)
REMARK    1  A    between atoms: C_2  and  O_3 
REMARK    2  A    between atoms: O_3  and  C_4 
REMARK    3  A    between atoms: C_8  and  C_9 
REMARK    4  A    between atoms: C_9  and  N_10 
REMARK       I    between atoms: N_10  and  C_11 
REMARK       I    between atoms: C_11  and  N_12 
REMARK    5  A    between atoms: N_12  and  C_13 
REMARK    6  A    between atoms: C_14  and  C_15 
ROOT
HETATM    1  N   UNL     1      24.798  44.901  50.809  1.00  0.00    -0.339 N 
HETATM    2  C   UNL     1      24.588  43.675  51.367  1.00  0.00     0.316 C 
HETATM    3  N   UNL     1      25.389  43.342  52.415  1.00  0.00    -0.338 N 
HETATM    4  O   UNL     1      23.740  42.882  50.967  1.00  0.00    -0.247 OA
HETATM    5  H   UNL     1      25.226  45.591  51.405  1.00  0.00     0.164 HD
HETATM    6  H   UNL     1      25.184  42.418  52.780  1.00  0.00     0.164 HD
ENDROOT
BRANCH   1   7
HETATM    7  C   UNL     1      23.889  45.360  49.788  1.00  0.00     0.163 C 
BRANCH   7   8
HETATM    8  C   UNL     1      24.125  46.791  49.398  1.00  0.00    -0.035 A 
HETATM    9  C   UNL     1      25.341  47.417  49.681  1.00  0.00     0.028 A 
HETATM   10  C   UNL     1      25.486  48.760  49.374  1.00  0.00     0.120 A 
HETATM   11  N   UNL     1      24.513  49.513  48.822  1.00  0.00    -0.237 NA
HETATM   12  C   UNL     1      23.342  48.902  48.568  1.00  0.00     0.165 A 
HETATM   13  C   UNL     1      23.109  47.557  48.814  1.00  0.00     0.066 A 
BRANCH  12  14
HETATM   14  O   UNL     1      22.311  49.603  47.987  1.00  0.00    -0.324 OA
BRANCH  14  15
HETATM   15  C   UNL     1      21.249  50.098  48.826  1.00  0.00     0.058 C 
HETATM   16  C   UNL     1      20.370  48.978  49.401  1.00  0.00     0.045 C 
HETATM   17  C   UNL     1      20.414  51.190  48.139  1.00  0.00     0.045 C 
HETATM   18  C   UNL     1      21.992  50.754  50.007  1.00  0.00     0.045 C 
ENDBRANCH  14  15
ENDBRANCH  12  14
ENDBRANCH   7   8
ENDBRANCH   1   7
BRANCH   3  19
HETATM   19  C   UNL     1      26.444  44.090  53.019  1.00  0.00     0.095 A 
HETATM   20  C   UNL     1      26.865  43.897  54.461  1.00  0.00     0.043 A 
HETATM   21  C   UNL     1      26.069  45.115  54.052  1.00  0.00     0.037 A 
BRANCH  20  22
HETATM   22  C   UNL     1      28.298  44.104  54.899  1.00  0.00    -0.052 A 
HETATM   23  C   UNL     1      28.681  45.279  55.571  1.00  0.00     0.007 A 
HETATM   24  C   UNL     1      30.001  45.492  55.976  1.00  0.00     0.001 A 
HETATM   25  C   UNL     1      30.970  44.526  55.725  1.00  0.00     0.000 A 
HETATM   26  C   UNL     1      30.614  43.346  55.079  1.00  0.00     0.001 A 
HETATM   27  C   UNL     1      29.291  43.137  54.675  1.00  0.00     0.007 A 
ENDBRANCH  20  22
ENDBRANCH   3  19
TORSDOF 6
ENDMDL
MODEL 6
REMARK VINA RESULT:      -8.3      4.183      6.315
REMARK  6 active torsions:
REMARK  status: ('A' for Active; 'I' for Inactive)
REMARK    1  A    between atoms: C_2  and  O_3 
REMARK    2  A    between atoms: O_3  and  C_4 
REMARK    3  A    between atoms: C_8  and  C_9 
REMARK    4  A    between atoms: C_9  and  N_10 
REMARK       I    between atoms: N_10  and  C_11 
REMARK       I    between atoms: C_11  and  N_12 
REMARK    5  A    between atoms: N_12  and  C_13 
REMARK    6  A    between atoms: C_14  and  C_15 
ROOT
HETATM    1  N   UNL     1      26.191  43.090  52.196  1.00  0.00    -0.339 N 
HETATM    2  C   UNL     1      25.588  44.155  52.797  1.00  0.00     0.316 C 
HETATM    3  N   UNL     1      26.224  44.679  53.879  1.00  0.00    -0.338 N 
HETATM    4  O   UNL     1      24.524  44.637  52.417  1.00  0.00    -0.247 OA
HETATM    5  H   UNL     1      27.186  43.009  52.333  1.00  0.00     0.164 HD
HETATM    6  H   UNL     1      25.723  45.464  54.280  1.00  0.00     0.164 HD
ENDROOT
BRANCH   1   7
HETATM    7  C   UNL     1      25.634  42.584  50.966  1.00  0.00     0.163 C 
BRANCH   7   8
HETATM    8  C   UNL     1      26.584  41.690  50.220  1.00  0.00    -0.035 A 
HETATM    9  C   UNL     1      27.316  40.709  50.892  1.00  0.00     0.028 A 
HETATM   10  C   UNL     1      28.237  39.960  50.177  1.00  0.00     0.120 A 
HETATM   11  N   UNL     1      28.482  40.127  48.861  1.00  0.00    -0.237 NA
HETATM   12  C   UNL     1      27.780  41.086  48.230  1.00  0.00     0.165 A 
HETATM   13  C   UNL     1      26.818  41.867  48.852  1.00  0.00     0.066 A 
BRANCH  12  14
HETATM   14  O   UNL     1      27.962  41.299  46.884  1.00  0.00    -0.324 OA
BRANCH  14  15
HETATM   15  C   UNL     1      27.319  40.413  45.947  1.00  0.00     0.058 C 
HETATM   16  C   UNL     1      25.828  40.204  46.248  1.00  0.00     0.045 C 
HETATM   17  C   UNL     1      28.066  39.079  45.787  1.00  0.00     0.045 C 
HETATM   18  C   UNL     1      27.417  41.165  44.605  1.00  0.00     0.045 C 
ENDBRANCH  14  15
ENDBRANCH  12  14
ENDBRANCH   7   8
ENDBRANCH   1   7
BRANCH   3  19
HETATM   19  C   UNL     1      27.440  44.264  54.500  1.00  0.00     0.095 A 
HETATM   20  C   UNL     1      28.607  45.202  54.726  1.00  0.00     0.043 A 
HETATM   21  C   UNL     1      28.664  44.158  53.636  1.00  0.00     0.037 A 
BRANCH  20  22
HETATM   22  C   UNL     1      29.534  45.039  55.910  1.00  0.00    -0.052 A 
HETATM   23  C   UNL     1      30.557  44.073  55.894  1.00  0.00     0.007 A 
HETATM   24  C   UNL     1      31.418  43.900  56.980  1.00  0.00     0.001 A 
HETATM   25  C   UNL     1      31.279  44.700  58.110  1.00  0.00     0.000 A 
HETATM   26  C   UNL     1      30.287  45.676  58.146  1.00  0.00     0.001 A 
HETATM   27  C   UNL     1      29.429  45.845  57.055  1.00  0.00     0.007 A 
ENDBRANCH  20  22
ENDBRANCH   3  19
TORSDOF 6
ENDMDL
MODEL 7
REMARK VINA RESULT:      -8.2      2.991      6.644
REMARK  6 active torsions:
REMARK  status: ('A' for Active; 'I' for Inactive)
REMARK    1  A    between atoms: C_2  and  O_3 
REMARK    2  A    between atoms: O_3  and  C_4 
REMARK    3  A    between atoms: C_8  and  C_9 
REMARK    4  A    between atoms: C_9  and  N_10 
REMARK       I    between atoms: N_10  and  C_11 
REMARK       I    between atoms: C_11  and  N_12 
REMARK    5  A    between atoms: N_12  and  C_13 
REMARK    6  A    between atoms: C_14  and  C_15 
ROOT
HETATM    1  N   UNL     1      28.737  42.674  52.925  1.00  0.00    -0.339 N 
HETATM    2  C   UNL     1      28.123  41.460  52.827  1.00  0.00     0.316 C 
HETATM    3  N   UNL     1      27.130  41.358  51.903  1.00  0.00    -0.338 N 
HETATM    4  O   UNL     1      28.415  40.492  53.524  1.00  0.00    -0.247 OA
HETATM    5  H   UNL     1      28.696  43.258  52.106  1.00  0.00     0.164 HD
HETATM    6  H   UNL     1      26.714  40.434  51.883  1.00  0.00     0.164 HD
ENDROOT
BRANCH   1   7
HETATM    7  C   UNL     1      29.886  42.799  53.789  1.00  0.00     0.163 C 
BRANCH   7   8
HETATM    8  C   UNL     1      29.737  43.899  54.801  1.00  0.00    -0.035 A 
HETATM    9  C   UNL     1      30.742  44.146  55.739  1.00  0.00     0.028 A 
HETATM   10  C   UNL     1      30.528  45.119  56.702  1.00  0.00     0.120 A 
HETATM   11  N   UNL     1      29.395  45.844  56.799  1.00  0.00    -0.237 NA
HETATM   12  C   UNL     1      28.430  45.586  55.897  1.00  0.00     0.165 A 
HETATM   13  C   UNL     1      28.560  44.652  54.881  1.00  0.00     0.066 A 
BRANCH  12  14
HETATM   14  O   UNL     1      27.256  46.301  55.923  1.00  0.00    -0.324 OA
BRANCH  14  15
HETATM   15  C   UNL     1      27.071  47.367  54.971  1.00  0.00     0.058 C 
HETATM   16  C   UNL     1      26.084  47.006  53.851  1.00  0.00     0.045 C 
HETATM   17  C   UNL     1      28.402  47.900  54.415  1.00  0.00     0.045 C 
HETATM   18  C   UNL     1      26.431  48.495  55.804  1.00  0.00     0.045 C 
ENDBRANCH  14  15
ENDBRANCH  12  14
ENDBRANCH   7   8
ENDBRANCH   1   7
BRANCH   3  19
HETATM   19  C   UNL     1      26.616  42.351  51.017  1.00  0.00     0.095 A 
HETATM   20  C   UNL     1      25.597  43.386  51.448  1.00  0.00     0.043 A 
HETATM   21  C   UNL     1      25.185  42.221  50.579  1.00  0.00     0.037 A 
BRANCH  20  22
HETATM   22  C   UNL     1      25.569  44.769  50.836  1.00  0.00    -0.052 A 
HETATM   23  C   UNL     1      26.742  45.348  50.317  1.00  0.00     0.007 A 
HETATM   24  C   UNL     1      26.740  46.627  49.756  1.00  0.00     0.001 A 
HETATM   25  C   UNL     1      25.556  47.355  49.692  1.00  0.00     0.000 A 
HETATM   26  C   UNL     1      24.377  46.799  50.180  1.00  0.00     0.001 A 
HETATM   27  C   UNL     1      24.386  45.518  50.741  1.00  0.00     0.007 A 
ENDBRANCH  20  22
ENDBRANCH   3  19
TORSDOF 6
ENDMDL
MODEL 8
REMARK VINA RESULT:      -8.1      3.572      6.973
REMARK  6 active torsions:
REMARK  status: ('A' for Active; 'I' for Inactive)
REMARK    1  A    between atoms: C_2  and  O_3 
REMARK    2  A    between atoms: O_3  and  C_4 
REMARK    3  A    between atoms: C_8  and  C_9 
REMARK    4  A    between atoms: C_9  and  N_10 
REMARK       I    between atoms: N_10  and  C_11 
REMARK       I    between atoms: C_11  and  N_12 
REMARK    5  A    between atoms: N_12  and  C_13 
REMARK    6  A    between atoms: C_14  and  C_15 
ROOT
HETATM    1  N   UNL     1      25.741  43.589  51.802  1.00  0.00    -0.339 N 
HETATM    2  C   UNL     1      24.928  44.675  51.927  1.00  0.00     0.316 C 
HETATM    3  N   UNL     1      25.436  45.735  52.613  1.00  0.00    -0.338 N 
HETATM    4  O   UNL     1      23.790  44.731  51.469  1.00  0.00    -0.247 OA
HETATM    5  H   UNL     1      26.730  43.765  51.873  1.00  0.00     0.164 HD
HETATM    6  H   UNL     1      24.781  46.507  52.673  1.00  0.00     0.164 HD
ENDROOT
BRANCH   1   7
HETATM    7  C   UNL     1      25.307  42.494  50.969  1.00  0.00     0.163 C 
BRANCH   7   8
HETATM    8  C   UNL     1      26.353  41.426  50.818  1.00  0.00    -0.035 A 
HETATM    9  C   UNL     1      27.543  41.485  51.548  1.00  0.00     0.028 A 
HETATM   10  C   UNL     1      28.512  40.521  51.319  1.00  0.00     0.120 A 
HETATM   11  N   UNL     1      28.382  39.524  50.421  1.00  0.00    -0.237 NA
HETATM   12  C   UNL     1      27.236  39.487  49.715  1.00  0.00     0.165 A 
HETATM   13  C   UNL     1      26.198  40.390  49.891  1.00  0.00     0.066 A 
BRANCH  12  14
HETATM   14  O   UNL     1      27.026  38.487  48.796  1.00  0.00    -0.324 OA
BRANCH  14  15
HETATM   15  C   UNL     1      27.505  38.670  47.449  1.00  0.00     0.058 C 
HETATM   16  C   UNL     1      28.174  40.034  47.232  1.00  0.00     0.045 C 
HETATM   17  C   UNL     1      26.424  38.384  46.394  1.00  0.00     0.045 C 
HETATM   18  C   UNL     1      28.597  37.592  47.300  1.00  0.00     0.045 C 
ENDBRANCH  14  15
ENDBRANCH  12  14
ENDBRANCH   7   8
ENDBRANCH   1   7
BRANCH   3  19
HETATM   19  C   UNL     1      26.708  45.875  53.245  1.00  0.00     0.095 A 
HETATM   20  C   UNL     1      27.004  45.321  54.623  1.00  0.00     0.043 A 
HETATM   21  C   UNL     1      26.803  46.805  54.422  1.00  0.00     0.037 A 
BRANCH  20  22
HETATM   22  C   UNL     1      28.388  44.840  54.999  1.00  0.00    -0.052 A 
HETATM   23  C   UNL     1      29.201  45.596  55.863  1.00  0.00     0.007 A 
HETATM   24  C   UNL     1      30.485  45.174  56.216  1.00  0.00     0.001 A 
HETATM   25  C   UNL     1      30.983  43.974  55.718  1.00  0.00     0.000 A 
HETATM   26  C   UNL     1      30.192  43.196  54.877  1.00  0.00     0.001 A 
HETATM   27  C   UNL     1      28.908  43.624  54.527  1.00  0.00     0.007 A 
ENDBRANCH  20  22
ENDBRANCH   3  19
TORSDOF 6
ENDMDL
MODEL 9
REMARK VINA RESULT:      -8.0      4.095      7.012
REMARK  6 active torsions:
REMARK  status: ('A' for Active; 'I' for Inactive)
REMARK    1  A    between atoms: C_2  and  O_3 
REMARK    2  A    between atoms: O_3  and  C_4 
REMARK    3  A    between atoms: C_8  and  C_9 
REMARK    4  A    between atoms: C_9  and  N_10 
REMARK       I    between atoms: N_10  and  C_11 
REMARK       I    between atoms: C_11  and  N_12 
REMARK    5  A    between atoms: N_12  and  C_13 
REMARK    6  A    between atoms: C_14  and  C_15 
ROOT
HETATM    1  N   UNL     1      22.728  49.983  48.899  1.00  0.00    -0.339 N 
HETATM    2  C   UNL     1      23.899  49.732  48.247  1.00  0.00     0.316 C 
HETATM    3  N   UNL     1      24.655  48.710  48.733  1.00  0.00    -0.338 N 
HETATM    4  O   UNL     1      24.290  50.375  47.277  1.00  0.00    -0.247 OA
HETATM    5  H   UNL     1      22.332  49.212  49.411  1.00  0.00     0.164 HD
HETATM    6  H   UNL     1      25.512  48.578  48.208  1.00  0.00     0.164 HD
ENDROOT
BRANCH   1   7
HETATM    7  C   UNL     1      21.825  50.961  48.343  1.00  0.00     0.163 C 
BRANCH   7   8
HETATM    8  C   UNL     1      20.475  50.948  49.002  1.00  0.00    -0.035 A 
HETATM    9  C   UNL     1      20.208  50.082  50.065  1.00  0.00     0.028 A 
HETATM   10  C   UNL     1      18.927  50.049  50.590  1.00  0.00     0.120 A 
HETATM   11  N   UNL     1      17.906  50.800  50.130  1.00  0.00    -0.237 NA
HETATM   12  C   UNL     1      18.173  51.620  49.096  1.00  0.00     0.165 A 
HETATM   13  C   UNL     1      19.429  51.743  48.521  1.00  0.00     0.066 A 
BRANCH  12  14
HETATM   14  O   UNL     1      17.187  52.430  48.587  1.00  0.00    -0.324 OA
BRANCH  14  15
HETATM   15  C   UNL     1      16.403  51.955  47.476  1.00  0.00     0.058 C 
HETATM   16  C   UNL     1      15.936  50.503  47.649  1.00  0.00     0.045 C 
HETATM   17  C   UNL     1      17.098  52.179  46.124  1.00  0.00     0.045 C 
HETATM   18  C   UNL     1      15.147  52.849  47.506  1.00  0.00     0.045 C 
ENDBRANCH  14  15
ENDBRANCH  12  14
ENDBRANCH   7   8
ENDBRANCH   1   7
BRANCH   3  19
HETATM   19  C   UNL     1      24.409  47.858  49.852  1.00  0.00     0.095 A 
HETATM   20  C   UNL     1      25.330  46.718  50.232  1.00  0.00     0.043 A 
HETATM   21  C   UNL     1      24.000  46.440  49.572  1.00  0.00     0.037 A 
BRANCH  20  22
HETATM   22  C   UNL     1      25.506  46.293  51.673  1.00  0.00    -0.052 A 
HETATM   23  C   UNL     1      26.135  47.143  52.601  1.00  0.00     0.007 A 
HETATM   24  C   UNL     1      26.316  46.766  53.934  1.00  0.00     0.001 A 
HETATM   25  C   UNL     1      25.860  45.527  54.373  1.00  0.00     0.000 A 
HETATM   26  C   UNL     1      25.216  44.674  53.481  1.00  0.00     0.001 A 
HETATM   27  C   UNL     1      25.039  45.057  52.147  1.00  0.00     0.007 A 
ENDBRANCH  20  22
ENDBRANCH   3  19
TORSDOF 6
ENDMDL
MODEL 10
REMARK VINA RESULT:      -7.9      2.985      9.470
REMARK  6 active torsions:
REMARK  status: ('A' for Active; 'I' for Inactive)
REMARK    1  A    between atoms: C_2  and  O_3 
REMARK    2  A    between atoms: O_3  and  C_4 
REMARK    3  A    between atoms: C_8  and  C_9 
REMARK    4  A    between atoms: C_9  and  N_10 
REMARK       I    between atoms: N_10  and  C_11 
REMARK       I    between atoms: C_11  and  N_12 
REMARK    5  A    between atoms: N_12  and  C_13 
REMARK    6  A    between atoms: C_14  and  C_15 
ROOT
HETATM    1  N   UNL     1      23.073  45.388  49.741  1.00  0.00    -0.339 N 
HETATM    2  C   UNL     1      22.001  44.933  49.033  1.00  0.00     0.316 C 
HETATM    3  N   UNL     1      21.126  45.875  48.587  1.00  0.00    -0.338 N 
HETATM    4  O   UNL     1      21.794  43.745  48.799  1.00  0.00    -0.247 OA
HETATM    5  H   UNL     1      23.346  46.341  49.567  1.00  0.00     0.164 HD
HETATM    6  H   UNL     1      20.351  45.472  48.073  1.00  0.00     0.164 HD
ENDROOT
BRANCH   1   7
HETATM    7  C   UNL     1      24.101  44.448  50.117  1.00  0.00     0.163 C 
BRANCH   7   8
HETATM    8  C   UNL     1      24.893  44.898  51.312  1.00  0.00    -0.035 A 
HETATM    9  C   UNL     1      25.056  46.257  51.589  1.00  0.00     0.028 A 
HETATM   10  C   UNL     1      25.858  46.627  52.656  1.00  0.00     0.120 A 
HETATM   11  N   UNL     1      26.507  45.749  53.447  1.00  0.00    -0.237 NA
HETATM   12  C   UNL     1      26.353  44.443  53.161  1.00  0.00     0.165 A 
HETATM   13  C   UNL     1      25.551  43.974  52.132  1.00  0.00     0.066 A 
BRANCH  12  14
HETATM   14  O   UNL     1      26.969  43.491  53.937  1.00  0.00    -0.324 OA
BRANCH  14  15
HETATM   15  C   UNL     1      28.321  43.106  53.621  1.00  0.00     0.058 C 
HETATM   16  C   UNL     1      29.326  43.495  54.715  1.00  0.00     0.045 C 
HETATM   17  C   UNL     1      28.765  43.593  52.233  1.00  0.00     0.045 C 
HETATM   18  C   UNL     1      28.262  41.566  53.576  1.00  0.00     0.045 C 
ENDBRANCH  14  15
ENDBRANCH  12  14
ENDBRANCH   7   8
ENDBRANCH   1   7
BRANCH   3  19
HETATM   19  C   UNL     1      21.157  47.291  48.766  1.00  0.00     0.095 A 
HETATM   20  C   UNL     1      20.315  48.240  47.938  1.00  0.00     0.043 A 
HETATM   21  C   UNL     1      21.799  48.116  47.687  1.00  0.00     0.037 A 
BRANCH  20  22
HETATM   22  C   UNL     1      19.800  49.542  48.510  1.00  0.00    -0.052 A 
HETATM   23  C   UNL     1      20.313  50.775  48.065  1.00  0.00     0.007 A 
HETATM   24  C   UNL     1      19.859  51.988  48.587  1.00  0.00     0.001 A 
HETATM   25  C   UNL     1      18.868  51.996  49.563  1.00  0.00     0.000 A 
HETATM   26  C   UNL     1      18.329  50.792  50.008  1.00  0.00     0.001 A 
HETATM   27  C   UNL     1      18.788  49.581  49.482  1.00  0.00     0.007 A 
ENDBRANCH  20  22
ENDBRANCH   3  19
TORSDOF 6
ENDMDL
