MODEL 1
REMARK VINA RESULT:      -8.4      0.000      0.000
REMARK  6 active torsions:
REMARK  status: ('A' for Active; 'I' for Inactive)
REMARK    1  A    between atoms: O_2  and  C_3 
REMARK    2  A    between atoms: C_4  and  C_5 
REMARK    3  A    between atoms: C_5  and  N_6 
REMARK       I    between atoms: N_6  and  C_7 
REMARK    4  A    between atoms: C_7  and  C_8 
REMARK    5  A    between atoms: C_8  and  O_9 
REMARK    6  A    between atoms: N_10  and  C_11 
ROOT
HETATM    1  C   UNL     1      28.410  50.259  40.545  1.00  0.00     0.256 C 
HETATM    2  N   UNL     1      28.827  51.198  39.486  1.00  0.00    -0.254 N 
HETATM    3  C   UNL     1      27.960  51.542  38.459  1.00  0.00     0.330 C 
HETATM    4  O   UNL     1      28.141  52.450  37.646  1.00  0.00    -0.246 OA
HETATM    5  N   UNL     1      26.793  50.853  38.343  1.00  0.00    -0.308 N 
HETATM    6  C   UNL     1      26.375  49.816  39.156  1.00  0.00     0.048 A 
HETATM    7  C   UNL     1      27.143  49.475  40.258  1.00  0.00     0.034 A 
HETATM    8  C   UNL     1      25.184  49.148  38.860  1.00  0.00     0.030 A 
HETATM    9  C   UNL     1      24.751  48.109  39.681  1.00  0.00     0.002 A 
HETATM   10  C   UNL     1      25.500  47.754  40.797  1.00  0.00     0.001 A 
HETATM   11  C   UNL     1      26.682  48.437  41.089  1.00  0.00     0.015 A 
HETATM   12  H   UNL     1      26.227  51.135  37.555  1.00  0.00     0.170 HD
ENDROOT
BRANCH   1  13
HETATM   13  C   UNL     1      29.577  49.211  40.825  1.00  0.00     0.279 C 
HETATM   14  N   UNL     1      30.276  49.475  41.997  1.00  0.00    -0.352 N 
HETATM   15  H   UNL     1      30.087  50.367  42.445  1.00  0.00     0.162 HD
HETATM   16  O   UNL     1      29.826  48.253  40.095  1.00  0.00    -0.268 OA
BRANCH  14  17
HETATM   17  C   UNL     1      31.448  48.721  42.387  1.00  0.00     0.164 C 
BRANCH  17  18
HETATM   18  C   UNL     1      32.758  49.460  42.208  1.00  0.00    -0.007 A 
HETATM   19  C   UNL     1      33.014  50.586  43.019  1.00  0.00     0.076 A 
HETATM   20  C   UNL     1      34.208  51.302  42.867  1.00  0.00     0.037 A 
HETATM   21  C   UNL     1      35.147  50.913  41.912  1.00  0.00     0.003 A 
HETATM   22  C   UNL     1      34.905  49.803  41.110  1.00  0.00     0.001 A 
HETATM   23  C   UNL     1      33.721  49.081  41.257  1.00  0.00     0.011 A 
BRANCH  19  24
HETATM   24  O   UNL     1      32.043  50.890  43.939  1.00  0.00    -0.355 OA
HETATM   25  C   UNL     1      32.272  52.017  44.776  1.00  0.00     0.210 C 
ENDBRANCH  19  24
ENDBRANCH  17  18
ENDBRANCH  14  17
ENDBRANCH   1  13
BRANCH   1  26
HETATM   26  O   UNL     1      28.105  51.048  41.699  1.00  0.00    -0.359 OA
HETATM   27  H   UNL     1      27.758  51.873  41.318  1.00  0.00     0.213 HD
ENDBRANCH   1  26
BRANCH   2  28
HETATM   28  C   UNL     1      30.164  51.763  39.512  1.00  0.00     0.043 A 
HETATM   29  C   UNL     1      30.538  52.770  40.419  1.00  0.00     0.031 A 
HETATM   30  C   UNL     1      31.846  53.274  40.454  1.00  0.00     0.026 A 
HETATM   31  C   UNL     1      32.807  52.773  39.585  1.00  0.00     0.034 A 
HETATM   32 CL   UNL     1      34.414  53.385  39.635  1.00  0.00    -0.084 Cl
HETATM   33  C   UNL     1      32.471  51.776  38.681  1.00  0.00     0.026 A 
HETATM   34  C   UNL     1      31.162  51.278  38.648  1.00  0.00     0.031 A 
ENDBRANCH   2  28
TORSDOF 6
ENDMDL
MODEL 2
REMARK VINA RESULT:      -8.4     12.293     14.500
REMARK  6 active torsions:
REMARK  status: ('A' for Active; 'I' for Inactive)
REMARK    1  A    between atoms: O_2  and  C_3 
REMARK    2  A    between atoms: C_4  and  C_5 
REMARK    3  A    between atoms: C_5  and  N_6 
REMARK       I    between atoms: N_6  and  C_7 
REMARK    4  A    between atoms: C_7  and  C_8 
REMARK    5  A    between atoms: C_8  and  O_9 
REMARK    6  A    between atoms: N_10  and  C_11 
ROOT
HETATM    1  C   UNL     1      27.547  41.118  51.063  1.00  0.00     0.256 C 
HETATM    2  N   UNL     1      27.136  41.945  49.912  1.00  0.00    -0.254 N 
HETATM    3  C   UNL     1      27.348  41.509  48.612  1.00  0.00     0.330 C 
HETATM    4  O   UNL     1      26.876  42.029  47.599  1.00  0.00    -0.246 OA
HETATM    5  N   UNL     1      28.110  40.400  48.422  1.00  0.00    -0.308 N 
HETATM    6  C   UNL     1      28.717  39.647  49.410  1.00  0.00     0.048 A 
HETATM    7  C   UNL     1      28.477  39.966  50.737  1.00  0.00     0.034 A 
HETATM    8  C   UNL     1      29.541  38.578  49.051  1.00  0.00     0.030 A 
HETATM    9  C   UNL     1      30.147  37.809  50.042  1.00  0.00     0.002 A 
HETATM   10  C   UNL     1      29.916  38.103  51.382  1.00  0.00     0.001 A 
HETATM   11  C   UNL     1      29.080  39.167  51.727  1.00  0.00     0.015 A 
HETATM   12  H   UNL     1      28.249  40.160  47.449  1.00  0.00     0.170 HD
ENDROOT
BRANCH   1  13
HETATM   13  C   UNL     1      28.268  42.032  52.151  1.00  0.00     0.279 C 
HETATM   14  N   UNL     1      27.574  42.098  53.354  1.00  0.00    -0.352 N 
HETATM   15  H   UNL     1      26.635  41.710  53.355  1.00  0.00     0.162 HD
HETATM   16  O   UNL     1      29.340  42.606  51.962  1.00  0.00    -0.268 OA
BRANCH  14  17
HETATM   17  C   UNL     1      27.985  42.961  54.440  1.00  0.00     0.164 C 
BRANCH  17  18
HETATM   18  C   UNL     1      27.413  44.362  54.380  1.00  0.00    -0.007 A 
HETATM   19  C   UNL     1      28.225  45.440  54.791  1.00  0.00     0.076 A 
HETATM   20  C   UNL     1      27.722  46.746  54.765  1.00  0.00     0.037 A 
HETATM   21  C   UNL     1      26.416  46.991  54.341  1.00  0.00     0.003 A 
HETATM   22  C   UNL     1      25.609  45.935  53.931  1.00  0.00     0.001 A 
HETATM   23  C   UNL     1      26.103  44.631  53.948  1.00  0.00     0.011 A 
BRANCH  19  24
HETATM   24  O   UNL     1      29.499  45.111  55.182  1.00  0.00    -0.355 OA
HETATM   25  C   UNL     1      29.954  45.637  56.423  1.00  0.00     0.210 C 
ENDBRANCH  19  24
ENDBRANCH  17  18
ENDBRANCH  14  17
ENDBRANCH   1  13
BRANCH   1  26
HETATM   26  O   UNL     1      26.360  40.505  51.576  1.00  0.00    -0.359 OA
HETATM   27  H   UNL     1      26.083  41.116  52.280  1.00  0.00     0.213 HD
ENDBRANCH   1  26
BRANCH   2  28
HETATM   28  C   UNL     1      26.510  43.235  50.142  1.00  0.00     0.043 A 
HETATM   29  C   UNL     1      27.220  44.445  50.040  1.00  0.00     0.031 A 
HETATM   30  C   UNL     1      26.588  45.682  50.227  1.00  0.00     0.026 A 
HETATM   31  C   UNL     1      25.229  45.732  50.514  1.00  0.00     0.034 A 
HETATM   32 CL   UNL     1      24.453  47.250  50.734  1.00  0.00    -0.084 Cl
HETATM   33  C   UNL     1      24.500  44.556  50.617  1.00  0.00     0.026 A 
HETATM   34  C   UNL     1      25.137  43.322  50.433  1.00  0.00     0.031 A 
ENDBRANCH   2  28
TORSDOF 6
ENDMDL
MODEL 3
REMARK VINA RESULT:      -8.3     12.895     15.583
REMARK  6 active torsions:
REMARK  status: ('A' for Active; 'I' for Inactive)
REMARK    1  A    between atoms: O_2  and  C_3 
REMARK    2  A    between atoms: C_4  and  C_5 
REMARK    3  A    between atoms: C_5  and  N_6 
REMARK       I    between atoms: N_6  and  C_7 
REMARK    4  A    between atoms: C_7  and  C_8 
REMARK    5  A    between atoms: C_8  and  O_9 
REMARK    6  A    between atoms: N_10  and  C_11 
ROOT
HETATM    1  C   UNL     1      28.949  43.505  53.280  1.00  0.00     0.256 C 
HETATM    2  N   UNL     1      27.763  44.313  52.935  1.00  0.00    -0.254 N 
HETATM    3  C   UNL     1      27.461  45.469  53.641  1.00  0.00     0.330 C 
HETATM    4  O   UNL     1      26.617  46.304  53.314  1.00  0.00    -0.246 OA
HETATM    5  N   UNL     1      28.167  45.735  54.772  1.00  0.00    -0.308 N 
HETATM    6  C   UNL     1      29.173  44.954  55.309  1.00  0.00     0.048 A 
HETATM    7  C   UNL     1      29.594  43.831  54.613  1.00  0.00     0.034 A 
HETATM    8  C   UNL     1      29.751  45.319  56.527  1.00  0.00     0.030 A 
HETATM    9  C   UNL     1      30.772  44.541  57.069  1.00  0.00     0.002 A 
HETATM   10  C   UNL     1      31.217  43.414  56.386  1.00  0.00     0.001 A 
HETATM   11  C   UNL     1      30.640  43.067  55.163  1.00  0.00     0.015 A 
HETATM   12  H   UNL     1      27.872  46.575  55.251  1.00  0.00     0.170 HD
ENDROOT
BRANCH   1  13
HETATM   13  C   UNL     1      28.561  41.959  53.293  1.00  0.00     0.279 C 
HETATM   14  N   UNL     1      29.264  41.214  52.354  1.00  0.00    -0.352 N 
HETATM   15  H   UNL     1      29.805  41.738  51.673  1.00  0.00     0.162 HD
HETATM   16  O   UNL     1      27.741  41.466  54.065  1.00  0.00    -0.268 OA
BRANCH  14  17
HETATM   17  C   UNL     1      28.990  39.814  52.112  1.00  0.00     0.164 C 
BRANCH  17  18
HETATM   18  C   UNL     1      28.781  39.457  50.655  1.00  0.00    -0.007 A 
HETATM   19  C   UNL     1      29.503  38.370  50.116  1.00  0.00     0.076 A 
HETATM   20  C   UNL     1      29.346  38.025  48.769  1.00  0.00     0.037 A 
HETATM   21  C   UNL     1      28.485  38.754  47.949  1.00  0.00     0.003 A 
HETATM   22  C   UNL     1      27.767  39.824  48.471  1.00  0.00     0.001 A 
HETATM   23  C   UNL     1      27.912  40.173  49.814  1.00  0.00     0.011 A 
BRANCH  19  24
HETATM   24  O   UNL     1      30.317  37.703  50.996  1.00  0.00    -0.355 OA
HETATM   25  C   UNL     1      29.836  36.469  51.517  1.00  0.00     0.210 C 
ENDBRANCH  19  24
ENDBRANCH  17  18
ENDBRANCH  14  17
ENDBRANCH   1  13
BRANCH   1  26
HETATM   26  O   UNL     1      29.950  43.801  52.301  1.00  0.00    -0.359 OA
HETATM   27  H   UNL     1      29.666  44.664  51.950  1.00  0.00     0.213 HD
ENDBRANCH   1  26
BRANCH   2  28
HETATM   28  C   UNL     1      26.896  43.889  51.850  1.00  0.00     0.043 A 
HETATM   29  C   UNL     1      25.602  43.387  52.074  1.00  0.00     0.031 A 
HETATM   30  C   UNL     1      24.766  43.020  51.009  1.00  0.00     0.026 A 
HETATM   31  C   UNL     1      25.209  43.155  49.699  1.00  0.00     0.034 A 
HETATM   32 CL   UNL     1      24.179  42.713  48.394  1.00  0.00    -0.084 Cl
HETATM   33  C   UNL     1      26.480  43.650  49.446  1.00  0.00     0.026 A 
HETATM   34  C   UNL     1      27.312  44.012  50.512  1.00  0.00     0.031 A 
ENDBRANCH   2  28
TORSDOF 6
ENDMDL
MODEL 4
REMARK VINA RESULT:      -7.9     12.496     14.329
REMARK  6 active torsions:
REMARK  status: ('A' for Active; 'I' for Inactive)
REMARK    1  A    between atoms: O_2  and  C_3 
REMARK    2  A    between atoms: C_4  and  C_5 
REMARK    3  A    between atoms: C_5  and  N_6 
REMARK       I    between atoms: N_6  and  C_7 
REMARK    4  A    between atoms: C_7  and  C_8 
REMARK    5  A    between atoms: C_8  and  O_9 
REMARK    6  A    between atoms: N_10  and  C_11 
ROOT
HETATM    1  C   UNL     1      20.584  45.952  48.270  1.00  0.00     0.256 C 
HETATM    2  N   UNL     1      19.382  45.940  47.414  1.00  0.00    -0.254 N 
HETATM    3  C   UNL     1      19.129  44.876  46.560  1.00  0.00     0.330 C 
HETATM    4  O   UNL     1      18.074  44.682  45.955  1.00  0.00    -0.246 OA
HETATM    5  N   UNL     1      20.104  43.944  46.388  1.00  0.00    -0.308 N 
HETATM    6  C   UNL     1      21.351  43.948  46.983  1.00  0.00     0.048 A 
HETATM    7  C   UNL     1      21.644  44.927  47.918  1.00  0.00     0.034 A 
HETATM    8  C   UNL     1      22.279  42.961  46.641  1.00  0.00     0.030 A 
HETATM    9  C   UNL     1      23.535  42.953  47.245  1.00  0.00     0.002 A 
HETATM   10  C   UNL     1      23.850  43.920  48.193  1.00  0.00     0.001 A 
HETATM   11  C   UNL     1      22.909  44.894  48.535  1.00  0.00     0.015 A 
HETATM   12  H   UNL     1      19.863  43.216  45.727  1.00  0.00     0.170 HD
ENDROOT
BRANCH   1  13
HETATM   13  C   UNL     1      21.264  47.393  48.220  1.00  0.00     0.279 C 
HETATM   14  N   UNL     1      21.030  48.146  49.364  1.00  0.00    -0.352 N 
HETATM   15  H   UNL     1      20.339  47.780  50.013  1.00  0.00     0.162 HD
HETATM   16  O   UNL     1      21.946  47.795  47.278  1.00  0.00    -0.268 OA
BRANCH  14  17
HETATM   17  C   UNL     1      21.455  49.523  49.486  1.00  0.00     0.164 C 
BRANCH  17  18
HETATM   18  C   UNL     1      20.350  50.541  49.293  1.00  0.00    -0.007 A 
HETATM   19  C   UNL     1      19.287  50.568  50.221  1.00  0.00     0.076 A 
HETATM   20  C   UNL     1      18.241  51.485  50.061  1.00  0.00     0.037 A 
HETATM   21  C   UNL     1      18.237  52.371  48.984  1.00  0.00     0.003 A 
HETATM   22  C   UNL     1      19.281  52.354  48.066  1.00  0.00     0.001 A 
HETATM   23  C   UNL     1      20.331  51.448  48.219  1.00  0.00     0.011 A 
BRANCH  19  24
HETATM   24  O   UNL     1      19.377  49.671  51.255  1.00  0.00    -0.355 OA
HETATM   25  C   UNL     1      18.386  48.652  51.319  1.00  0.00     0.210 C 
ENDBRANCH  19  24
ENDBRANCH  17  18
ENDBRANCH  14  17
ENDBRANCH   1  13
BRANCH   1  26
HETATM   26  O   UNL     1      20.154  45.605  49.590  1.00  0.00    -0.359 OA
HETATM   27  H   UNL     1      20.991  45.530  50.082  1.00  0.00     0.213 HD
ENDBRANCH   1  26
BRANCH   2  28
HETATM   28  C   UNL     1      18.456  47.057  47.459  1.00  0.00     0.043 A 
HETATM   29  C   UNL     1      18.597  48.185  46.632  1.00  0.00     0.031 A 
HETATM   30  C   UNL     1      17.670  49.236  46.664  1.00  0.00     0.026 A 
HETATM   31  C   UNL     1      16.578  49.174  47.521  1.00  0.00     0.034 A 
HETATM   32 CL   UNL     1      15.436  50.460  47.552  1.00  0.00    -0.084 Cl
HETATM   33  C   UNL     1      16.409  48.073  48.348  1.00  0.00     0.026 A 
HETATM   34  C   UNL     1      17.340  47.028  48.315  1.00  0.00     0.031 A 
ENDBRANCH   2  28
TORSDOF 6
ENDMDL
MODEL 5
REMARK VINA RESULT:      -7.8      2.436      3.410
REMARK  6 active torsions:
REMARK  status: ('A' for Active; 'I' for Inactive)
REMARK    1  A    between atoms: O_2  and  C_3 
REMARK    2  A    between atoms: C_4  and  C_5 
REMARK    3  A    between atoms: C_5  and  N_6 
REMARK       I    between atoms: N_6  and  C_7 
REMARK    4  A    between atoms: C_7  and  C_8 
REMARK    5  A    between atoms: C_8  and  O_9 
REMARK    6  A    between atoms: N_10  and  C_11 
ROOT
HETATM    1  C   UNL     1      27.575  47.722  40.286  1.00  0.00     0.256 C 
HETATM    2  N   UNL     1      26.796  48.902  39.864  1.00  0.00    -0.254 N 
HETATM    3  C   UNL     1      25.484  48.770  39.432  1.00  0.00     0.330 C 
HETATM    4  O   UNL     1      24.697  49.699  39.244  1.00  0.00    -0.246 OA
HETATM    5  N   UNL     1      24.997  47.517  39.225  1.00  0.00    -0.308 N 
HETATM    6  C   UNL     1      25.691  46.334  39.396  1.00  0.00     0.048 A 
HETATM    7  C   UNL     1      26.977  46.380  39.912  1.00  0.00     0.034 A 
HETATM    8  C   UNL     1      25.079  45.123  39.062  1.00  0.00     0.030 A 
HETATM    9  C   UNL     1      25.769  43.927  39.242  1.00  0.00     0.002 A 
HETATM   10  C   UNL     1      27.058  43.945  39.766  1.00  0.00     0.001 A 
HETATM   11  C   UNL     1      27.654  45.161  40.107  1.00  0.00     0.015 A 
HETATM   12  H   UNL     1      24.047  47.498  38.881  1.00  0.00     0.170 HD
ENDROOT
BRANCH   1  13
HETATM   13  C   UNL     1      29.039  47.793  39.661  1.00  0.00     0.279 C 
HETATM   14  N   UNL     1      30.026  48.029  40.611  1.00  0.00    -0.352 N 
HETATM   15  H   UNL     1      29.706  48.288  41.540  1.00  0.00     0.162 HD
HETATM   16  O   UNL     1      29.281  47.635  38.466  1.00  0.00    -0.268 OA
BRANCH  14  17
HETATM   17  C   UNL     1      31.410  48.246  40.253  1.00  0.00     0.164 C 
BRANCH  17  18
HETATM   18  C   UNL     1      31.771  49.693  39.987  1.00  0.00    -0.007 A 
HETATM   19  C   UNL     1      32.125  50.513  41.080  1.00  0.00     0.076 A 
HETATM   20  C   UNL     1      32.447  51.859  40.870  1.00  0.00     0.037 A 
HETATM   21  C   UNL     1      32.414  52.401  39.586  1.00  0.00     0.003 A 
HETATM   22  C   UNL     1      32.069  51.601  38.502  1.00  0.00     0.001 A 
HETATM   23  C   UNL     1      31.751  50.257  38.700  1.00  0.00     0.011 A 
BRANCH  19  24
HETATM   24  O   UNL     1      32.144  49.895  42.305  1.00  0.00    -0.355 OA
HETATM   25  C   UNL     1      32.169  50.734  43.454  1.00  0.00     0.210 C 
ENDBRANCH  19  24
ENDBRANCH  17  18
ENDBRANCH  14  17
ENDBRANCH   1  13
BRANCH   1  26
HETATM   26  O   UNL     1      27.598  47.733  41.717  1.00  0.00    -0.359 OA
HETATM   27  H   UNL     1      27.269  46.847  41.950  1.00  0.00     0.213 HD
ENDBRANCH   1  26
BRANCH   2  28
HETATM   28  C   UNL     1      27.411  50.217  39.892  1.00  0.00     0.043 A 
HETATM   29  C   UNL     1      27.710  50.882  41.094  1.00  0.00     0.031 A 
HETATM   30  C   UNL     1      28.340  52.135  41.098  1.00  0.00     0.026 A 
HETATM   31  C   UNL     1      28.689  52.742  39.899  1.00  0.00     0.034 A 
HETATM   32 CL   UNL     1      29.470  54.275  39.906  1.00  0.00    -0.084 Cl
HETATM   33  C   UNL     1      28.411  52.110  38.696  1.00  0.00     0.026 A 
HETATM   34  C   UNL     1      27.778  50.860  38.696  1.00  0.00     0.031 A 
ENDBRANCH   2  28
TORSDOF 6
ENDMDL
MODEL 6
REMARK VINA RESULT:      -7.8     11.458     14.628
REMARK  6 active torsions:
REMARK  status: ('A' for Active; 'I' for Inactive)
REMARK    1  A    between atoms: O_2  and  C_3 
REMARK    2  A    between atoms: C_4  and  C_5 
REMARK    3  A    between atoms: C_5  and  N_6 
REMARK       I    between atoms: N_6  and  C_7 
REMARK    4  A    between atoms: C_7  and  C_8 
REMARK    5  A    between atoms: C_8  and  O_9 
REMARK    6  A    between atoms: N_10  and  C_11 
ROOT
HETATM    1  C   UNL     1      27.158  43.405  52.447  1.00  0.00     0.256 C 
HETATM    2  N   UNL     1      27.439  42.199  51.644  1.00  0.00    -0.254 N 
HETATM    3  C   UNL     1      28.418  41.297  52.037  1.00  0.00     0.330 C 
HETATM    4  O   UNL     1      28.596  40.180  51.548  1.00  0.00    -0.246 OA
HETATM    5  N   UNL     1      29.237  41.643  53.066  1.00  0.00    -0.308 N 
HETATM    6  C   UNL     1      29.201  42.829  53.773  1.00  0.00     0.048 A 
HETATM    7  C   UNL     1      28.194  43.742  53.500  1.00  0.00     0.034 A 
HETATM    8  C   UNL     1      30.166  43.075  54.753  1.00  0.00     0.030 A 
HETATM    9  C   UNL     1      30.130  44.265  55.477  1.00  0.00     0.002 A 
HETATM   10  C   UNL     1      29.124  45.194  55.227  1.00  0.00     0.001 A 
HETATM   11  C   UNL     1      28.159  44.931  54.254  1.00  0.00     0.015 A 
HETATM   12  H   UNL     1      29.945  40.952  53.276  1.00  0.00     0.170 HD
ENDROOT
BRANCH   1  13
HETATM   13  C   UNL     1      27.010  44.667  51.486  1.00  0.00     0.279 C 
HETATM   14  N   UNL     1      25.909  45.459  51.792  1.00  0.00    -0.352 N 
HETATM   15  H   UNL     1      25.247  45.074  52.459  1.00  0.00     0.162 HD
HETATM   16  O   UNL     1      27.798  44.933  50.579  1.00  0.00    -0.268 OA
BRANCH  14  17
HETATM   17  C   UNL     1      25.519  46.590  50.979  1.00  0.00     0.164 C 
BRANCH  17  18
HETATM   18  C   UNL     1      24.361  46.319  50.040  1.00  0.00    -0.007 A 
HETATM   19  C   UNL     1      23.694  47.417  49.457  1.00  0.00     0.076 A 
HETATM   20  C   UNL     1      22.609  47.202  48.599  1.00  0.00     0.037 A 
HETATM   21  C   UNL     1      22.176  45.906  48.320  1.00  0.00     0.003 A 
HETATM   22  C   UNL     1      22.828  44.817  48.888  1.00  0.00     0.001 A 
HETATM   23  C   UNL     1      23.914  45.021  49.740  1.00  0.00     0.011 A 
BRANCH  19  24
HETATM   24  O   UNL     1      24.194  48.654  49.775  1.00  0.00    -0.355 OA
HETATM   25  C   UNL     1      24.646  49.468  48.699  1.00  0.00     0.210 C 
ENDBRANCH  19  24
ENDBRANCH  17  18
ENDBRANCH  14  17
ENDBRANCH   1  13
BRANCH   1  26
HETATM   26  O   UNL     1      25.956  43.141  53.179  1.00  0.00    -0.359 OA
HETATM   27  H   UNL     1      26.260  43.126  54.103  1.00  0.00     0.213 HD
ENDBRANCH   1  26
BRANCH   2  28
HETATM   28  C   UNL     1      26.691  41.957  50.424  1.00  0.00     0.043 A 
HETATM   29  C   UNL     1      27.310  41.888  49.163  1.00  0.00     0.031 A 
HETATM   30  C   UNL     1      26.574  41.615  48.001  1.00  0.00     0.026 A 
HETATM   31  C   UNL     1      25.204  41.399  48.081  1.00  0.00     0.034 A 
HETATM   32 CL   UNL     1      24.304  41.055  46.656  1.00  0.00    -0.084 Cl
HETATM   33  C   UNL     1      24.565  41.457  49.310  1.00  0.00     0.026 A 
HETATM   34  C   UNL     1      25.304  41.733  50.468  1.00  0.00     0.031 A 
ENDBRANCH   2  28
TORSDOF 6
ENDMDL
MODEL 7
REMARK VINA RESULT:      -7.6      2.358      4.342
REMARK  6 active torsions:
REMARK  status: ('A' for Active; 'I' for Inactive)
REMARK    1  A    between atoms: O_2  and  C_3 
REMARK    2  A    between atoms: C_4  and  C_5 
REMARK    3  A    between atoms: C_5  and  N_6 
REMARK       I    between atoms: N_6  and  C_7 
REMARK    4  A    between atoms: C_7  and  C_8 
REMARK    5  A    between atoms: C_8  and  O_9 
REMARK    6  A    between atoms: N_10  and  C_11 
ROOT
HETATM    1  C   UNL     1      26.769  48.865  39.228  1.00  0.00     0.256 C 
HETATM    2  N   UNL     1      27.384  47.965  40.223  1.00  0.00    -0.254 N 
HETATM    3  C   UNL     1      26.614  47.045  40.921  1.00  0.00     0.330 C 
HETATM    4  O   UNL     1      27.054  46.132  41.622  1.00  0.00    -0.246 OA
HETATM    5  N   UNL     1      25.261  47.121  40.809  1.00  0.00    -0.308 N 
HETATM    6  C   UNL     1      24.556  48.045  40.061  1.00  0.00     0.048 A 
HETATM    7  C   UNL     1      25.255  48.938  39.265  1.00  0.00     0.034 A 
HETATM    8  C   UNL     1      23.159  48.048  40.112  1.00  0.00     0.030 A 
HETATM    9  C   UNL     1      22.441  48.969  39.353  1.00  0.00     0.002 A 
HETATM   10  C   UNL     1      23.120  49.871  38.540  1.00  0.00     0.001 A 
HETATM   11  C   UNL     1      24.515  49.850  38.488  1.00  0.00     0.015 A 
HETATM   12  H   UNL     1      24.765  46.442  41.369  1.00  0.00     0.170 HD
ENDROOT
BRANCH   1  13
HETATM   13  C   UNL     1      27.333  50.343  39.419  1.00  0.00     0.279 C 
HETATM   14  N   UNL     1      28.160  50.749  38.378  1.00  0.00    -0.352 N 
HETATM   15  H   UNL     1      28.441  50.030  37.717  1.00  0.00     0.162 HD
HETATM   16  O   UNL     1      27.052  51.064  40.375  1.00  0.00    -0.268 OA
BRANCH  14  17
HETATM   17  C   UNL     1      28.873  52.007  38.400  1.00  0.00     0.164 C 
BRANCH  17  18
HETATM   18  C   UNL     1      30.338  51.894  38.767  1.00  0.00    -0.007 A 
HETATM   19  C   UNL     1      30.768  52.427  40.001  1.00  0.00     0.076 A 
HETATM   20  C   UNL     1      32.119  52.354  40.362  1.00  0.00     0.037 A 
HETATM   21  C   UNL     1      33.048  51.762  39.506  1.00  0.00     0.003 A 
HETATM   22  C   UNL     1      32.633  51.232  38.290  1.00  0.00     0.001 A 
HETATM   23  C   UNL     1      31.288  51.295  37.922  1.00  0.00     0.011 A 
BRANCH  19  24
HETATM   24  O   UNL     1      29.787  52.979  40.785  1.00  0.00    -0.355 OA
HETATM   25  C   UNL     1      29.695  52.520  42.129  1.00  0.00     0.210 C 
ENDBRANCH  19  24
ENDBRANCH  17  18
ENDBRANCH  14  17
ENDBRANCH   1  13
BRANCH   1  26
HETATM   26  O   UNL     1      27.084  48.330  37.938  1.00  0.00    -0.359 OA
HETATM   27  H   UNL     1      26.735  47.422  37.984  1.00  0.00     0.213 HD
ENDBRANCH   1  26
BRANCH   2  28
HETATM   28  C   UNL     1      28.810  48.049  40.483  1.00  0.00     0.043 A 
HETATM   29  C   UNL     1      29.769  47.555  39.582  1.00  0.00     0.031 A 
HETATM   30  C   UNL     1      31.143  47.681  39.834  1.00  0.00     0.026 A 
HETATM   31  C   UNL     1      31.582  48.311  40.992  1.00  0.00     0.034 A 
HETATM   32 CL   UNL     1      33.267  48.473  41.296  1.00  0.00    -0.084 Cl
HETATM   33  C   UNL     1      30.660  48.811  41.900  1.00  0.00     0.026 A 
HETATM   34  C   UNL     1      29.289  48.680  41.645  1.00  0.00     0.031 A 
ENDBRANCH   2  28
TORSDOF 6
ENDMDL
MODEL 8
REMARK VINA RESULT:      -7.6     12.015     13.392
REMARK  6 active torsions:
REMARK  status: ('A' for Active; 'I' for Inactive)
REMARK    1  A    between atoms: O_2  and  C_3 
REMARK    2  A    between atoms: C_4  and  C_5 
REMARK    3  A    between atoms: C_5  and  N_6 
REMARK       I    between atoms: N_6  and  C_7 
REMARK    4  A    between atoms: C_7  and  C_8 
REMARK    5  A    between atoms: C_8  and  O_9 
REMARK    6  A    between atoms: N_10  and  C_11 
ROOT
HETATM    1  C   UNL     1      25.222  44.519  49.453  1.00  0.00     0.256 C 
HETATM    2  N   UNL     1      25.189  43.141  48.926  1.00  0.00    -0.254 N 
HETATM    3  C   UNL     1      24.309  42.789  47.913  1.00  0.00     0.330 C 
HETATM    4  O   UNL     1      24.335  41.732  47.280  1.00  0.00    -0.246 OA
HETATM    5  N   UNL     1      23.352  43.685  47.551  1.00  0.00    -0.308 N 
HETATM    6  C   UNL     1      23.155  44.936  48.104  1.00  0.00     0.048 A 
HETATM    7  C   UNL     1      24.049  45.396  49.059  1.00  0.00     0.034 A 
HETATM    8  C   UNL     1      22.073  45.712  47.682  1.00  0.00     0.030 A 
HETATM    9  C   UNL     1      21.874  46.978  48.228  1.00  0.00     0.002 A 
HETATM   10  C   UNL     1      22.762  47.465  49.181  1.00  0.00     0.001 A 
HETATM   11  C   UNL     1      23.847  46.685  49.587  1.00  0.00     0.015 A 
HETATM   12  H   UNL     1      22.728  43.349  46.830  1.00  0.00     0.170 HD
ENDROOT
BRANCH   1  13
HETATM   13  C   UNL     1      25.289  44.484  51.045  1.00  0.00     0.279 C 
HETATM   14  N   UNL     1      26.471  45.012  51.552  1.00  0.00    -0.352 N 
HETATM   15  H   UNL     1      27.208  45.201  50.878  1.00  0.00     0.162 HD
HETATM   16  O   UNL     1      24.384  44.057  51.759  1.00  0.00    -0.268 OA
BRANCH  14  17
HETATM   17  C   UNL     1      26.795  44.976  52.961  1.00  0.00     0.164 C 
BRANCH  17  18
HETATM   18  C   UNL     1      28.054  44.205  53.297  1.00  0.00    -0.007 A 
HETATM   19  C   UNL     1      28.635  44.382  54.571  1.00  0.00     0.076 A 
HETATM   20  C   UNL     1      29.809  43.697  54.907  1.00  0.00     0.037 A 
HETATM   21  C   UNL     1      30.416  42.843  53.987  1.00  0.00     0.003 A 
HETATM   22  C   UNL     1      29.851  42.660  52.730  1.00  0.00     0.001 A 
HETATM   23  C   UNL     1      28.678  43.334  52.387  1.00  0.00     0.011 A 
BRANCH  19  24
HETATM   24  O   UNL     1      27.965  45.229  55.417  1.00  0.00    -0.355 OA
HETATM   25  C   UNL     1      28.685  46.351  55.915  1.00  0.00     0.210 C 
ENDBRANCH  19  24
ENDBRANCH  17  18
ENDBRANCH  14  17
ENDBRANCH   1  13
BRANCH   1  26
HETATM   26  O   UNL     1      26.369  45.154  48.879  1.00  0.00    -0.359 OA
HETATM   27  H   UNL     1      26.388  46.020  49.322  1.00  0.00     0.213 HD
ENDBRANCH   1  26
BRANCH   2  28
HETATM   28  C   UNL     1      26.080  42.139  49.481  1.00  0.00     0.043 A 
HETATM   29  C   UNL     1      25.682  41.262  50.505  1.00  0.00     0.031 A 
HETATM   30  C   UNL     1      26.547  40.274  50.999  1.00  0.00     0.026 A 
HETATM   31  C   UNL     1      27.825  40.142  50.472  1.00  0.00     0.034 A 
HETATM   32 CL   UNL     1      28.881  38.925  51.072  1.00  0.00    -0.084 Cl
HETATM   33  C   UNL     1      28.247  40.990  49.458  1.00  0.00     0.026 A 
HETATM   34  C   UNL     1      27.381  41.977  48.970  1.00  0.00     0.031 A 
ENDBRANCH   2  28
TORSDOF 6
ENDMDL
MODEL 9
REMARK VINA RESULT:      -7.6     12.836     15.442
REMARK  6 active torsions:
REMARK  status: ('A' for Active; 'I' for Inactive)
REMARK    1  A    between atoms: O_2  and  C_3 
REMARK    2  A    between atoms: C_4  and  C_5 
REMARK    3  A    between atoms: C_5  and  N_6 
REMARK       I    between atoms: N_6  and  C_7 
REMARK    4  A    between atoms: C_7  and  C_8 
REMARK    5  A    between atoms: C_8  and  O_9 
REMARK    6  A    between atoms: N_10  and  C_11 
ROOT
HETATM    1  C   UNL     1      28.799  43.798  53.463  1.00  0.00     0.256 C 
HETATM    2  N   UNL     1      27.742  44.795  53.207  1.00  0.00    -0.254 N 
HETATM    3  C   UNL     1      27.664  45.957  53.962  1.00  0.00     0.330 C 
HETATM    4  O   UNL     1      26.949  46.927  53.707  1.00  0.00    -0.246 OA
HETATM    5  N   UNL     1      28.460  46.067  55.059  1.00  0.00    -0.308 N 
HETATM    6  C   UNL     1      29.354  45.117  55.516  1.00  0.00     0.048 A 
HETATM    7  C   UNL     1      29.554  43.969  54.767  1.00  0.00     0.034 A 
HETATM    8  C   UNL     1      30.044  45.341  56.711  1.00  0.00     0.030 A 
HETATM    9  C   UNL     1      30.953  44.392  57.173  1.00  0.00     0.002 A 
HETATM   10  C   UNL     1      31.178  43.235  56.434  1.00  0.00     0.001 A 
HETATM   11  C   UNL     1      30.492  43.029  55.235  1.00  0.00     0.015 A 
HETATM   12  H   UNL     1      28.327  46.925  55.578  1.00  0.00     0.170 HD
ENDROOT
BRANCH   1  13
HETATM   13  C   UNL     1      28.171  42.334  53.453  1.00  0.00     0.279 C 
HETATM   14  N   UNL     1      28.579  41.573  52.363  1.00  0.00    -0.352 N 
HETATM   15  H   UNL     1      29.080  42.066  51.630  1.00  0.00     0.162 HD
HETATM   16  O   UNL     1      27.418  41.906  54.327  1.00  0.00    -0.268 OA
BRANCH  14  17
HETATM   17  C   UNL     1      28.043  40.257  52.092  1.00  0.00     0.164 C 
BRANCH  17  18
HETATM   18  C   UNL     1      28.686  39.546  50.919  1.00  0.00    -0.007 A 
HETATM   19  C   UNL     1      28.380  39.984  49.613  1.00  0.00     0.076 A 
HETATM   20  C   UNL     1      28.944  39.337  48.507  1.00  0.00     0.037 A 
HETATM   21  C   UNL     1      29.804  38.254  48.686  1.00  0.00     0.003 A 
HETATM   22  C   UNL     1      30.113  37.816  49.969  1.00  0.00     0.001 A 
HETATM   23  C   UNL     1      29.561  38.457  51.078  1.00  0.00     0.011 A 
BRANCH  19  24
HETATM   24  O   UNL     1      27.536  41.063  49.530  1.00  0.00    -0.355 OA
HETATM   25  C   UNL     1      26.684  41.134  48.393  1.00  0.00     0.210 C 
ENDBRANCH  19  24
ENDBRANCH  17  18
ENDBRANCH  14  17
ENDBRANCH   1  13
BRANCH   1  26
HETATM   26  O   UNL     1      29.784  43.969  52.438  1.00  0.00    -0.359 OA
HETATM   27  H   UNL     1      29.346  44.569  51.809  1.00  0.00     0.213 HD
ENDBRANCH   1  26
BRANCH   2  28
HETATM   28  C   UNL     1      26.765  44.555  52.161  1.00  0.00     0.043 A 
HETATM   29  C   UNL     1      27.073  44.696  50.797  1.00  0.00     0.031 A 
HETATM   30  C   UNL     1      26.125  44.421  49.801  1.00  0.00     0.026 A 
HETATM   31  C   UNL     1      24.851  43.992  50.153  1.00  0.00     0.034 A 
HETATM   32 CL   UNL     1      23.692  43.646  48.930  1.00  0.00    -0.084 Cl
HETATM   33  C   UNL     1      24.517  43.839  51.491  1.00  0.00     0.026 A 
HETATM   34  C   UNL     1      25.467  44.118  52.482  1.00  0.00     0.031 A 
ENDBRANCH   2  28
TORSDOF 6
ENDMDL
MODEL 10
REMARK VINA RESULT:      -7.5      2.369      2.947
REMARK  6 active torsions:
REMARK  status: ('A' for Active; 'I' for Inactive)
REMARK    1  A    between atoms: O_2  and  C_3 
REMARK    2  A    between atoms: C_4  and  C_5 
REMARK    3  A    between atoms: C_5  and  N_6 
REMARK       I    between atoms: N_6  and  C_7 
REMARK    4  A    between atoms: C_7  and  C_8 
REMARK    5  A    between atoms: C_8  and  O_9 
REMARK    6  A    between atoms: N_10  and  C_11 
ROOT
HETATM    1  C   UNL     1      28.784  48.144  39.803  1.00  0.00     0.256 C 
HETATM    2  N   UNL     1      28.325  49.411  39.202  1.00  0.00    -0.254 N 
HETATM    3  C   UNL     1      27.298  49.423  38.268  1.00  0.00     0.330 C 
HETATM    4  O   UNL     1      26.720  50.430  37.856  1.00  0.00    -0.246 OA
HETATM    5  N   UNL     1      26.858  48.233  37.779  1.00  0.00    -0.308 N 
HETATM    6  C   UNL     1      27.343  46.983  38.118  1.00  0.00     0.048 A 
HETATM    7  C   UNL     1      28.305  46.883  39.110  1.00  0.00     0.034 A 
HETATM    8  C   UNL     1      26.843  45.853  37.466  1.00  0.00     0.030 A 
HETATM    9  C   UNL     1      27.319  44.590  37.809  1.00  0.00     0.002 A 
HETATM   10  C   UNL     1      28.279  44.462  38.808  1.00  0.00     0.001 A 
HETATM   11  C   UNL     1      28.761  45.598  39.460  1.00  0.00     0.015 A 
HETATM   12  H   UNL     1      26.133  48.320  37.080  1.00  0.00     0.170 HD
ENDROOT
BRANCH   1  13
HETATM   13  C   UNL     1      30.377  48.109  39.830  1.00  0.00     0.279 C 
HETATM   14  N   UNL     1      30.905  48.350  41.093  1.00  0.00    -0.352 N 
HETATM   15  H   UNL     1      30.254  48.677  41.801  1.00  0.00     0.162 HD
HETATM   16  O   UNL     1      31.073  47.871  38.844  1.00  0.00    -0.268 OA
BRANCH  14  17
HETATM   17  C   UNL     1      32.327  48.479  41.326  1.00  0.00     0.164 C 
BRANCH  17  18
HETATM   18  C   UNL     1      32.719  49.669  42.177  1.00  0.00    -0.007 A 
HETATM   19  C   UNL     1      34.014  50.210  42.027  1.00  0.00     0.076 A 
HETATM   20  C   UNL     1      34.414  51.298  42.811  1.00  0.00     0.037 A 
HETATM   21  C   UNL     1      33.542  51.852  43.747  1.00  0.00     0.003 A 
HETATM   22  C   UNL     1      32.263  51.328  43.901  1.00  0.00     0.001 A 
HETATM   23  C   UNL     1      31.853  50.247  43.121  1.00  0.00     0.011 A 
BRANCH  19  24
HETATM   24  O   UNL     1      34.801  49.612  41.075  1.00  0.00    -0.355 OA
HETATM   25  C   UNL     1      35.866  50.386  40.534  1.00  0.00     0.210 C 
ENDBRANCH  19  24
ENDBRANCH  17  18
ENDBRANCH  14  17
ENDBRANCH   1  13
BRANCH   1  26
HETATM   26  O   UNL     1      28.221  48.083  41.117  1.00  0.00    -0.359 OA
HETATM   27  H   UNL     1      27.594  47.342  41.054  1.00  0.00     0.213 HD
ENDBRANCH   1  26
BRANCH   2  28
HETATM   28  C   UNL     1      28.959  50.659  39.584  1.00  0.00     0.043 A 
HETATM   29  C   UNL     1      28.621  51.346  40.763  1.00  0.00     0.031 A 
HETATM   30  C   UNL     1      29.274  52.530  41.133  1.00  0.00     0.026 A 
HETATM   31  C   UNL     1      30.284  53.046  40.332  1.00  0.00     0.034 A 
HETATM   32 CL   UNL     1      31.091  54.494  40.791  1.00  0.00    -0.084 Cl
HETATM   33  C   UNL     1      30.644  52.391  39.163  1.00  0.00     0.026 A 
HETATM   34  C   UNL     1      29.986  51.210  38.796  1.00  0.00     0.031 A 
ENDBRANCH   2  28
TORSDOF 6
ENDMDL
