MODEL 1
REMARK VINA RESULT:      -9.6      0.000      0.000
REMARK  8 active torsions:
REMARK  status: ('A' for Active; 'I' for Inactive)
REMARK    1  A    between atoms: C_7  and  C_8 
REMARK    2  A    between atoms: C_11  and  O_12 
REMARK    3  A    between atoms: O_12  and  C_13 
REMARK    4  A    between atoms: C_13  and  C_14 
REMARK       I    between atoms: C_14  and  N_15 
REMARK    5  A    between atoms: N_15  and  N_16 
REMARK       I    between atoms: N_16  and  C_17 
REMARK    6  A    between atoms: C_17  and  C_18 
REMARK    7  A    between atoms: C_18  and  N_19 
REMARK       I    between atoms: N_19  and  C_20 
REMARK    8  A    between atoms: C_20  and  C_21 
ROOT
HETATM    1  C   UNL     1      30.066  42.781  54.950  1.00  0.00     0.023 A 
HETATM    2  C   UNL     1      30.361  43.847  55.803  1.00  0.00     0.044 A 
HETATM    3  C   UNL     1      31.478  43.766  56.698  1.00  0.00     0.099 C 
HETATM    4  N   UNL     1      32.382  43.701  57.423  1.00  0.00    -0.191 NA
HETATM    5  C   UNL     1      29.561  44.990  55.778  1.00  0.00     0.023 A 
HETATM    6  C   UNL     1      28.469  45.065  54.904  1.00  0.00     0.014 A 
HETATM    7  C   UNL     1      28.154  44.004  54.037  1.00  0.00    -0.026 A 
HETATM    8  C   UNL     1      28.974  42.862  54.077  1.00  0.00     0.014 A 
ENDROOT
BRANCH   7   9
HETATM    9  C   UNL     1      27.001  44.083  53.119  1.00  0.00    -0.026 A 
HETATM   10  C   UNL     1      26.081  45.140  53.191  1.00  0.00     0.015 A 
HETATM   11  C   UNL     1      24.987  45.208  52.320  1.00  0.00     0.037 A 
HETATM   12  C   UNL     1      24.789  44.227  51.348  1.00  0.00     0.069 A 
HETATM   13  C   UNL     1      25.691  43.168  51.263  1.00  0.00     0.037 A 
HETATM   14  C   UNL     1      26.782  43.099  52.141  1.00  0.00     0.015 A 
BRANCH  12  15
HETATM   15  O   UNL     1      23.682  44.406  50.563  1.00  0.00    -0.342 OA
BRANCH  15  16
HETATM   16  C   UNL     1      23.913  44.859  49.234  1.00  0.00     0.280 C 
BRANCH  16  17
HETATM   17  C   UNL     1      23.169  46.157  48.928  1.00  0.00     0.260 C 
HETATM   18  N   UNL     1      23.614  47.262  49.627  1.00  0.00    -0.266 N 
HETATM   19  H   UNL     1      24.208  47.128  50.447  1.00  0.00     0.190 HD
HETATM   20  O   UNL     1      22.224  46.201  48.139  1.00  0.00    -0.269 OA
BRANCH  18  21
HETATM   21  N   UNL     1      22.796  48.401  49.624  1.00  0.00    -0.266 N 
HETATM   22  C   UNL     1      23.332  49.590  49.171  1.00  0.00     0.253 C 
HETATM   23  O   UNL     1      24.371  49.649  48.511  1.00  0.00    -0.270 OA
HETATM   24  H   UNL     1      21.960  48.373  50.210  1.00  0.00     0.190 HD
BRANCH  22  25
HETATM   25  C   UNL     1      22.471  50.815  49.460  1.00  0.00     0.227 C 
BRANCH  25  26
HETATM   26  N   UNL     1      21.189  50.416  50.003  1.00  0.00    -0.352 N 
HETATM   27  C   UNL     1      20.034  51.051  49.603  1.00  0.00     0.222 C 
HETATM   28  O   UNL     1      20.044  51.944  48.761  1.00  0.00    -0.273 OA
HETATM   29  H   UNL     1      21.189  49.903  50.876  1.00  0.00     0.162 HD
BRANCH  27  30
HETATM   30  C   UNL     1      18.772  50.561  50.319  1.00  0.00     0.078 C 
HETATM   31  C   UNL     1      17.490  50.913  49.550  1.00  0.00     0.014 C 
HETATM   32  C   UNL     1      17.246  50.021  48.333  1.00  0.00     0.001 C 
HETATM   33  C   UNL     1      17.316  48.540  48.686  1.00  0.00     0.000 C 
HETATM   34  C   UNL     1      18.624  48.194  49.388  1.00  0.00     0.001 C 
HETATM   35  C   UNL     1      18.837  49.058  50.630  1.00  0.00     0.014 C 
ENDBRANCH  27  30
ENDBRANCH  25  26
ENDBRANCH  22  25
ENDBRANCH  18  21
ENDBRANCH  16  17
ENDBRANCH  15  16
ENDBRANCH  12  15
ENDBRANCH   7   9
TORSDOF 8
ENDMDL
MODEL 2
REMARK VINA RESULT:      -9.6      1.961      3.220
REMARK  8 active torsions:
REMARK  status: ('A' for Active; 'I' for Inactive)
REMARK    1  A    between atoms: C_7  and  C_8 
REMARK    2  A    between atoms: C_11  and  O_12 
REMARK    3  A    between atoms: O_12  and  C_13 
REMARK    4  A    between atoms: C_13  and  C_14 
REMARK       I    between atoms: C_14  and  N_15 
REMARK    5  A    between atoms: N_15  and  N_16 
REMARK       I    between atoms: N_16  and  C_17 
REMARK    6  A    between atoms: C_17  and  C_18 
REMARK    7  A    between atoms: C_18  and  N_19 
REMARK       I    between atoms: N_19  and  C_20 
REMARK    8  A    between atoms: C_20  and  C_21 
ROOT
HETATM    1  C   UNL     1      29.564  44.892  55.727  1.00  0.00     0.023 A 
HETATM    2  C   UNL     1      30.495  43.851  55.699  1.00  0.00     0.044 A 
HETATM    3  C   UNL     1      31.422  43.684  56.780  1.00  0.00     0.099 C 
HETATM    4  N   UNL     1      32.172  43.548  57.655  1.00  0.00    -0.191 NA
HETATM    5  C   UNL     1      30.518  42.977  54.611  1.00  0.00     0.023 A 
HETATM    6  C   UNL     1      29.613  43.145  53.556  1.00  0.00     0.014 A 
HETATM    7  C   UNL     1      28.668  44.185  53.564  1.00  0.00    -0.026 A 
HETATM    8  C   UNL     1      28.660  45.054  54.670  1.00  0.00     0.014 A 
ENDROOT
BRANCH   7   9
HETATM    9  C   UNL     1      27.717  44.362  52.448  1.00  0.00    -0.026 A 
HETATM   10  C   UNL     1      27.858  43.652  51.247  1.00  0.00     0.015 A 
HETATM   11  C   UNL     1      26.956  43.827  50.191  1.00  0.00     0.037 A 
HETATM   12  C   UNL     1      25.882  44.709  50.311  1.00  0.00     0.069 A 
HETATM   13  C   UNL     1      25.727  45.427  51.496  1.00  0.00     0.037 A 
HETATM   14  C   UNL     1      26.636  45.254  52.550  1.00  0.00     0.015 A 
BRANCH  12  15
HETATM   15  O   UNL     1      25.076  44.793  49.208  1.00  0.00    -0.342 OA
BRANCH  15  16
HETATM   16  C   UNL     1      24.105  43.764  49.053  1.00  0.00     0.280 C 
BRANCH  16  17
HETATM   17  C   UNL     1      22.689  44.258  49.333  1.00  0.00     0.260 C 
HETATM   18  N   UNL     1      22.273  45.314  48.545  1.00  0.00    -0.266 N 
HETATM   19  H   UNL     1      22.968  45.849  48.021  1.00  0.00     0.190 HD
HETATM   20  O   UNL     1      21.986  43.767  50.217  1.00  0.00    -0.269 OA
BRANCH  18  21
HETATM   21  N   UNL     1      21.121  46.004  48.945  1.00  0.00    -0.266 N 
HETATM   22  C   UNL     1      19.916  45.657  48.366  1.00  0.00     0.253 C 
HETATM   23  O   UNL     1      19.748  44.606  47.746  1.00  0.00    -0.270 OA
HETATM   24  H   UNL     1      21.257  46.901  49.414  1.00  0.00     0.190 HD
BRANCH  22  25
HETATM   25  C   UNL     1      18.780  46.633  48.652  1.00  0.00     0.227 C 
BRANCH  25  26
HETATM   26  N   UNL     1      19.168  47.981  48.292  1.00  0.00    -0.352 N 
HETATM   27  C   UNL     1      19.323  48.945  49.264  1.00  0.00     0.222 C 
HETATM   28  O   UNL     1      19.171  48.694  50.455  1.00  0.00    -0.273 OA
HETATM   29  H   UNL     1      19.020  48.272  47.333  1.00  0.00     0.162 HD
BRANCH  27  30
HETATM   30  C   UNL     1      19.667  50.334  48.716  1.00  0.00     0.078 C 
HETATM   31  C   UNL     1      20.275  51.250  49.789  1.00  0.00     0.014 C 
HETATM   32  C   UNL     1      21.733  50.926  50.112  1.00  0.00     0.001 C 
HETATM   33  C   UNL     1      22.596  50.858  48.858  1.00  0.00     0.000 C 
HETATM   34  C   UNL     1      22.016  49.893  47.832  1.00  0.00     0.001 C 
HETATM   35  C   UNL     1      20.573  50.253  47.479  1.00  0.00     0.014 C 
ENDBRANCH  27  30
ENDBRANCH  25  26
ENDBRANCH  22  25
ENDBRANCH  18  21
ENDBRANCH  16  17
ENDBRANCH  15  16
ENDBRANCH  12  15
ENDBRANCH   7   9
TORSDOF 8
ENDMDL
MODEL 3
REMARK VINA RESULT:      -9.6      1.763      2.531
REMARK  8 active torsions:
REMARK  status: ('A' for Active; 'I' for Inactive)
REMARK    1  A    between atoms: C_7  and  C_8 
REMARK    2  A    between atoms: C_11  and  O_12 
REMARK    3  A    between atoms: O_12  and  C_13 
REMARK    4  A    between atoms: C_13  and  C_14 
REMARK       I    between atoms: C_14  and  N_15 
REMARK    5  A    between atoms: N_15  and  N_16 
REMARK       I    between atoms: N_16  and  C_17 
REMARK    6  A    between atoms: C_17  and  C_18 
REMARK    7  A    between atoms: C_18  and  N_19 
REMARK       I    between atoms: N_19  and  C_20 
REMARK    8  A    between atoms: C_20  and  C_21 
ROOT
HETATM    1  C   UNL     1      29.563  45.177  55.873  1.00  0.00     0.023 A 
HETATM    2  C   UNL     1      30.398  44.058  55.853  1.00  0.00     0.044 A 
HETATM    3  C   UNL     1      31.387  43.876  56.875  1.00  0.00     0.099 C 
HETATM    4  N   UNL     1      32.187  43.730  57.702  1.00  0.00    -0.191 NA
HETATM    5  C   UNL     1      30.263  43.118  54.829  1.00  0.00     0.023 A 
HETATM    6  C   UNL     1      29.298  43.299  53.831  1.00  0.00     0.014 A 
HETATM    7  C   UNL     1      28.448  44.418  53.833  1.00  0.00    -0.026 A 
HETATM    8  C   UNL     1      28.598  45.352  54.873  1.00  0.00     0.014 A 
ENDROOT
BRANCH   7   9
HETATM    9  C   UNL     1      27.433  44.608  52.777  1.00  0.00    -0.026 A 
HETATM   10  C   UNL     1      27.430  43.822  51.616  1.00  0.00     0.015 A 
HETATM   11  C   UNL     1      26.468  44.009  50.617  1.00  0.00     0.037 A 
HETATM   12  C   UNL     1      25.477  44.982  50.755  1.00  0.00     0.069 A 
HETATM   13  C   UNL     1      25.466  45.776  51.901  1.00  0.00     0.037 A 
HETATM   14  C   UNL     1      26.435  45.589  52.897  1.00  0.00     0.015 A 
BRANCH  12  15
HETATM   15  O   UNL     1      24.600  45.068  49.708  1.00  0.00    -0.342 OA
BRANCH  15  16
HETATM   16  C   UNL     1      23.545  44.113  49.684  1.00  0.00     0.280 C 
BRANCH  16  17
HETATM   17  C   UNL     1      22.299  44.646  48.982  1.00  0.00     0.260 C 
HETATM   18  N   UNL     1      22.024  45.979  49.214  1.00  0.00    -0.266 N 
HETATM   19  H   UNL     1      22.485  46.455  49.991  1.00  0.00     0.190 HD
HETATM   20  O   UNL     1      21.580  43.927  48.286  1.00  0.00    -0.269 OA
BRANCH  18  21
HETATM   21  N   UNL     1      20.753  46.449  48.856  1.00  0.00    -0.266 N 
HETATM   22  C   UNL     1      20.489  47.797  49.001  1.00  0.00     0.253 C 
HETATM   23  O   UNL     1      21.373  48.642  49.148  1.00  0.00    -0.270 OA
HETATM   24  H   UNL     1      20.006  45.757  48.782  1.00  0.00     0.190 HD
BRANCH  22  25
HETATM   25  C   UNL     1      19.017  48.166  48.852  1.00  0.00     0.227 C 
BRANCH  25  26
HETATM   26  N   UNL     1      18.859  49.605  48.809  1.00  0.00    -0.352 N 
HETATM   27  C   UNL     1      18.570  50.310  49.957  1.00  0.00     0.222 C 
HETATM   28  O   UNL     1      18.470  49.757  51.048  1.00  0.00    -0.273 OA
HETATM   29  H   UNL     1      18.657  50.028  47.911  1.00  0.00     0.162 HD
BRANCH  27  30
HETATM   30  C   UNL     1      18.364  51.811  49.733  1.00  0.00     0.078 C 
HETATM   31  C   UNL     1      18.927  52.282  48.383  1.00  0.00     0.014 C 
HETATM   32  C   UNL     1      18.050  51.900  47.191  1.00  0.00     0.001 C 
HETATM   33  C   UNL     1      16.599  52.323  47.388  1.00  0.00     0.000 C 
HETATM   34  C   UNL     1      16.035  51.791  48.700  1.00  0.00     0.001 C 
HETATM   35  C   UNL     1      16.892  52.217  49.891  1.00  0.00     0.014 C 
ENDBRANCH  27  30
ENDBRANCH  25  26
ENDBRANCH  22  25
ENDBRANCH  18  21
ENDBRANCH  16  17
ENDBRANCH  15  16
ENDBRANCH  12  15
ENDBRANCH   7   9
TORSDOF 8
ENDMDL
MODEL 4
REMARK VINA RESULT:      -9.5      1.765      2.790
REMARK  8 active torsions:
REMARK  status: ('A' for Active; 'I' for Inactive)
REMARK    1  A    between atoms: C_7  and  C_8 
REMARK    2  A    between atoms: C_11  and  O_12 
REMARK    3  A    between atoms: O_12  and  C_13 
REMARK    4  A    between atoms: C_13  and  C_14 
REMARK       I    between atoms: C_14  and  N_15 
REMARK    5  A    between atoms: N_15  and  N_16 
REMARK       I    between atoms: N_16  and  C_17 
REMARK    6  A    between atoms: C_17  and  C_18 
REMARK    7  A    between atoms: C_18  and  N_19 
REMARK       I    between atoms: N_19  and  C_20 
REMARK    8  A    between atoms: C_20  and  C_21 
ROOT
HETATM    1  C   UNL     1      30.158  42.991  54.573  1.00  0.00     0.023 A 
HETATM    2  C   UNL     1      30.372  43.832  55.667  1.00  0.00     0.044 A 
HETATM    3  C   UNL     1      31.359  43.499  56.652  1.00  0.00     0.099 C 
HETATM    4  N   UNL     1      32.158  43.229  57.449  1.00  0.00    -0.191 NA
HETATM    5  C   UNL     1      29.615  44.998  55.795  1.00  0.00     0.023 A 
HETATM    6  C   UNL     1      28.650  45.319  54.833  1.00  0.00     0.014 A 
HETATM    7  C   UNL     1      28.420  44.487  53.724  1.00  0.00    -0.026 A 
HETATM    8  C   UNL     1      29.193  43.318  53.612  1.00  0.00     0.014 A 
ENDROOT
BRANCH   7   9
HETATM    9  C   UNL     1      27.399  44.826  52.713  1.00  0.00    -0.026 A 
HETATM   10  C   UNL     1      26.436  45.818  52.950  1.00  0.00     0.015 A 
HETATM   11  C   UNL     1      25.468  46.132  51.989  1.00  0.00     0.037 A 
HETATM   12  C   UNL     1      25.443  45.471  50.760  1.00  0.00     0.069 A 
HETATM   13  C   UNL     1      26.390  44.479  50.508  1.00  0.00     0.037 A 
HETATM   14  C   UNL     1      27.354  44.162  51.475  1.00  0.00     0.015 A 
BRANCH  12  15
HETATM   15  O   UNL     1      24.446  45.866  49.911  1.00  0.00    -0.342 OA
BRANCH  15  16
HETATM   16  C   UNL     1      24.427  47.244  49.553  1.00  0.00     0.280 C 
BRANCH  16  17
HETATM   17  C   UNL     1      23.015  47.749  49.271  1.00  0.00     0.260 C 
HETATM   18  N   UNL     1      22.046  46.767  49.211  1.00  0.00    -0.266 N 
HETATM   19  H   UNL     1      22.330  45.791  49.111  1.00  0.00     0.190 HD
HETATM   20  O   UNL     1      22.770  48.942  49.083  1.00  0.00    -0.269 OA
BRANCH  18  21
HETATM   21  N   UNL     1      20.803  47.118  48.666  1.00  0.00    -0.266 N 
HETATM   22  C   UNL     1      19.903  46.109  48.387  1.00  0.00     0.253 C 
HETATM   23  O   UNL     1      20.007  44.970  48.847  1.00  0.00    -0.270 OA
HETATM   24  H   UNL     1      20.728  48.043  48.239  1.00  0.00     0.190 HD
BRANCH  22  25
HETATM   25  C   UNL     1      18.706  46.550  47.551  1.00  0.00     0.227 C 
BRANCH  25  26
HETATM   26  N   UNL     1      18.200  47.822  48.025  1.00  0.00    -0.352 N 
HETATM   27  C   UNL     1      18.553  48.993  47.392  1.00  0.00     0.222 C 
HETATM   28  O   UNL     1      19.273  49.001  46.398  1.00  0.00    -0.273 OA
HETATM   29  H   UNL     1      17.856  47.865  48.977  1.00  0.00     0.162 HD
BRANCH  27  30
HETATM   30  C   UNL     1      17.993  50.256  48.056  1.00  0.00     0.078 C 
HETATM   31  C   UNL     1      17.857  50.103  49.578  1.00  0.00     0.014 C 
HETATM   32  C   UNL     1      19.189  50.202  50.322  1.00  0.00     0.001 C 
HETATM   33  C   UNL     1      19.967  51.455  49.937  1.00  0.00     0.000 C 
HETATM   34  C   UNL     1      20.152  51.556  48.428  1.00  0.00     0.001 C 
HETATM   35  C   UNL     1      18.813  51.503  47.695  1.00  0.00     0.014 C 
ENDBRANCH  27  30
ENDBRANCH  25  26
ENDBRANCH  22  25
ENDBRANCH  18  21
ENDBRANCH  16  17
ENDBRANCH  15  16
ENDBRANCH  12  15
ENDBRANCH   7   9
TORSDOF 8
ENDMDL
MODEL 5
REMARK VINA RESULT:      -9.4      1.747      2.698
REMARK  8 active torsions:
REMARK  status: ('A' for Active; 'I' for Inactive)
REMARK    1  A    between atoms: C_7  and  C_8 
REMARK    2  A    between atoms: C_11  and  O_12 
REMARK    3  A    between atoms: O_12  and  C_13 
REMARK    4  A    between atoms: C_13  and  C_14 
REMARK       I    between atoms: C_14  and  N_15 
REMARK    5  A    between atoms: N_15  and  N_16 
REMARK       I    between atoms: N_16  and  C_17 
REMARK    6  A    between atoms: C_17  and  C_18 
REMARK    7  A    between atoms: C_18  and  N_19 
REMARK       I    between atoms: N_19  and  C_20 
REMARK    8  A    between atoms: C_20  and  C_21 
ROOT
HETATM    1  C   UNL     1      29.736  45.093  55.941  1.00  0.00     0.023 A 
HETATM    2  C   UNL     1      30.416  43.881  55.801  1.00  0.00     0.044 A 
HETATM    3  C   UNL     1      31.477  43.539  56.702  1.00  0.00     0.099 C 
HETATM    4  N   UNL     1      32.336  43.264  57.432  1.00  0.00    -0.191 NA
HETATM    5  C   UNL     1      30.055  43.005  54.775  1.00  0.00     0.023 A 
HETATM    6  C   UNL     1      29.020  43.342  53.895  1.00  0.00     0.014 A 
HETATM    7  C   UNL     1      28.323  44.557  54.019  1.00  0.00    -0.026 A 
HETATM    8  C   UNL     1      28.701  45.424  55.059  1.00  0.00     0.014 A 
ENDROOT
BRANCH   7   9
HETATM    9  C   UNL     1      27.234  44.912  53.088  1.00  0.00    -0.026 A 
HETATM   10  C   UNL     1      26.572  46.146  53.173  1.00  0.00     0.015 A 
HETATM   11  C   UNL     1      25.537  46.475  52.290  1.00  0.00     0.037 A 
HETATM   12  C   UNL     1      25.143  45.586  51.291  1.00  0.00     0.069 A 
HETATM   13  C   UNL     1      25.787  44.353  51.192  1.00  0.00     0.037 A 
HETATM   14  C   UNL     1      26.818  44.023  52.082  1.00  0.00     0.015 A 
BRANCH  12  15
HETATM   15  O   UNL     1      24.119  46.024  50.497  1.00  0.00    -0.342 OA
BRANCH  15  16
HETATM   16  C   UNL     1      24.461  46.958  49.479  1.00  0.00     0.280 C 
BRANCH  16  17
HETATM   17  C   UNL     1      23.654  48.250  49.584  1.00  0.00     0.260 C 
HETATM   18  N   UNL     1      22.285  48.079  49.641  1.00  0.00    -0.266 N 
HETATM   19  H   UNL     1      21.883  47.179  49.374  1.00  0.00     0.190 HD
HETATM   20  O   UNL     1      24.190  49.359  49.586  1.00  0.00    -0.269 OA
BRANCH  18  21
HETATM   21  N   UNL     1      21.483  49.210  49.435  1.00  0.00    -0.266 N 
HETATM   22  C   UNL     1      20.581  49.191  48.391  1.00  0.00     0.253 C 
HETATM   23  O   UNL     1      20.238  48.155  47.819  1.00  0.00    -0.270 OA
HETATM   24  H   UNL     1      21.792  50.083  49.867  1.00  0.00     0.190 HD
BRANCH  22  25
HETATM   25  C   UNL     1      19.958  50.547  48.076  1.00  0.00     0.227 C 
BRANCH  25  26
HETATM   26  N   UNL     1      18.513  50.454  48.085  1.00  0.00    -0.352 N 
HETATM   27  C   UNL     1      17.769  51.227  48.951  1.00  0.00     0.222 C 
HETATM   28  O   UNL     1      18.293  52.033  49.712  1.00  0.00    -0.273 OA
HETATM   29  H   UNL     1      18.093  49.621  47.689  1.00  0.00     0.162 HD
BRANCH  27  30
HETATM   30  C   UNL     1      16.261  50.961  48.886  1.00  0.00     0.078 C 
HETATM   31  C   UNL     1      15.444  52.066  49.573  1.00  0.00     0.014 C 
HETATM   32  C   UNL     1      15.338  53.347  48.747  1.00  0.00     0.001 C 
HETATM   33  C   UNL     1      14.856  53.074  47.327  1.00  0.00     0.000 C 
HETATM   34  C   UNL     1      15.719  52.026  46.636  1.00  0.00     0.001 C 
HETATM   35  C   UNL     1      15.782  50.731  47.446  1.00  0.00     0.014 C 
ENDBRANCH  27  30
ENDBRANCH  25  26
ENDBRANCH  22  25
ENDBRANCH  18  21
ENDBRANCH  16  17
ENDBRANCH  15  16
ENDBRANCH  12  15
ENDBRANCH   7   9
TORSDOF 8
ENDMDL
MODEL 6
REMARK VINA RESULT:      -8.9      2.677     11.787
REMARK  8 active torsions:
REMARK  status: ('A' for Active; 'I' for Inactive)
REMARK    1  A    between atoms: C_7  and  C_8 
REMARK    2  A    between atoms: C_11  and  O_12 
REMARK    3  A    between atoms: O_12  and  C_13 
REMARK    4  A    between atoms: C_13  and  C_14 
REMARK       I    between atoms: C_14  and  N_15 
REMARK    5  A    between atoms: N_15  and  N_16 
REMARK       I    between atoms: N_16  and  C_17 
REMARK    6  A    between atoms: C_17  and  C_18 
REMARK    7  A    between atoms: C_18  and  N_19 
REMARK       I    between atoms: N_19  and  C_20 
REMARK    8  A    between atoms: C_20  and  C_21 
ROOT
HETATM    1  C   UNL     1      17.339  52.777  49.946  1.00  0.00     0.023 A 
HETATM    2  C   UNL     1      16.160  52.255  49.410  1.00  0.00     0.044 A 
HETATM    3  C   UNL     1      14.924  52.966  49.556  1.00  0.00     0.099 C 
HETATM    4  N   UNL     1      13.924  53.542  49.675  1.00  0.00    -0.191 NA
HETATM    5  C   UNL     1      16.194  51.034  48.733  1.00  0.00     0.023 A 
HETATM    6  C   UNL     1      17.402  50.340  48.595  1.00  0.00     0.014 A 
HETATM    7  C   UNL     1      18.600  50.849  49.126  1.00  0.00    -0.026 A 
HETATM    8  C   UNL     1      18.545  52.080  49.802  1.00  0.00     0.014 A 
ENDROOT
BRANCH   7   9
HETATM    9  C   UNL     1      19.873  50.114  48.981  1.00  0.00    -0.026 A 
HETATM   10  C   UNL     1      19.898  48.764  48.600  1.00  0.00     0.015 A 
HETATM   11  C   UNL     1      21.107  48.071  48.469  1.00  0.00     0.037 A 
HETATM   12  C   UNL     1      22.325  48.711  48.705  1.00  0.00     0.069 A 
HETATM   13  C   UNL     1      22.319  50.052  49.088  1.00  0.00     0.037 A 
HETATM   14  C   UNL     1      21.106  50.741  49.225  1.00  0.00     0.015 A 
BRANCH  12  15
HETATM   15  O   UNL     1      23.432  47.924  48.547  1.00  0.00    -0.342 OA
BRANCH  15  16
HETATM   16  C   UNL     1      24.530  48.193  49.412  1.00  0.00     0.280 C 
BRANCH  16  17
HETATM   17  C   UNL     1      25.047  46.932  50.099  1.00  0.00     0.260 C 
HETATM   18  N   UNL     1      24.744  45.750  49.453  1.00  0.00    -0.266 N 
HETATM   19  H   UNL     1      24.023  45.747  48.730  1.00  0.00     0.190 HD
HETATM   20  O   UNL     1      25.661  46.972  51.167  1.00  0.00    -0.269 OA
BRANCH  18  21
HETATM   21  N   UNL     1      24.919  44.558  50.169  1.00  0.00    -0.266 N 
HETATM   22  C   UNL     1      26.078  43.836  49.965  1.00  0.00     0.253 C 
HETATM   23  O   UNL     1      27.077  44.309  49.422  1.00  0.00    -0.270 OA
HETATM   24  H   UNL     1      24.084  44.136  50.578  1.00  0.00     0.190 HD
BRANCH  22  25
HETATM   25  C   UNL     1      26.057  42.435  50.568  1.00  0.00     0.227 C 
BRANCH  25  26
HETATM   26  N   UNL     1      26.327  42.492  51.989  1.00  0.00    -0.352 N 
HETATM   27  C   UNL     1      27.611  42.338  52.463  1.00  0.00     0.222 C 
HETATM   28  O   UNL     1      28.565  42.180  51.708  1.00  0.00    -0.273 OA
HETATM   29  H   UNL     1      25.550  42.336  52.621  1.00  0.00     0.162 HD
BRANCH  27  30
HETATM   30  C   UNL     1      27.719  42.354  53.991  1.00  0.00     0.078 C 
HETATM   31  C   UNL     1      29.177  42.379  54.473  1.00  0.00     0.014 C 
HETATM   32  C   UNL     1      29.843  43.748  54.329  1.00  0.00     0.001 C 
HETATM   33  C   UNL     1      29.010  44.858  54.959  1.00  0.00     0.000 C 
HETATM   34  C   UNL     1      27.585  44.862  54.420  1.00  0.00     0.001 C 
HETATM   35  C   UNL     1      26.911  43.504  54.610  1.00  0.00     0.014 C 
ENDBRANCH  27  30
ENDBRANCH  25  26
ENDBRANCH  22  25
ENDBRANCH  18  21
ENDBRANCH  16  17
ENDBRANCH  15  16
ENDBRANCH  12  15
ENDBRANCH   7   9
TORSDOF 8
ENDMDL
MODEL 7
REMARK VINA RESULT:      -8.8      1.895      2.771
REMARK  8 active torsions:
REMARK  status: ('A' for Active; 'I' for Inactive)
REMARK    1  A    between atoms: C_7  and  C_8 
REMARK    2  A    between atoms: C_11  and  O_12 
REMARK    3  A    between atoms: O_12  and  C_13 
REMARK    4  A    between atoms: C_13  and  C_14 
REMARK       I    between atoms: C_14  and  N_15 
REMARK    5  A    between atoms: N_15  and  N_16 
REMARK       I    between atoms: N_16  and  C_17 
REMARK    6  A    between atoms: C_17  and  C_18 
REMARK    7  A    between atoms: C_18  and  N_19 
REMARK       I    between atoms: N_19  and  C_20 
REMARK    8  A    between atoms: C_20  and  C_21 
ROOT
HETATM    1  C   UNL     1      30.672  43.439  55.616  1.00  0.00     0.023 A 
HETATM    2  C   UNL     1      30.314  44.526  56.416  1.00  0.00     0.044 A 
HETATM    3  C   UNL     1      31.057  44.822  57.606  1.00  0.00     0.099 C 
HETATM    4  N   UNL     1      31.658  45.061  58.569  1.00  0.00    -0.191 NA
HETATM    5  C   UNL     1      29.227  45.322  56.049  1.00  0.00     0.023 A 
HETATM    6  C   UNL     1      28.502  45.029  54.888  1.00  0.00     0.014 A 
HETATM    7  C   UNL     1      28.845  43.940  54.068  1.00  0.00    -0.026 A 
HETATM    8  C   UNL     1      29.944  43.152  54.454  1.00  0.00     0.014 A 
ENDROOT
BRANCH   7   9
HETATM    9  C   UNL     1      28.077  43.632  52.846  1.00  0.00    -0.026 A 
HETATM   10  C   UNL     1      28.165  42.377  52.224  1.00  0.00     0.015 A 
HETATM   11  C   UNL     1      27.438  42.091  51.063  1.00  0.00     0.037 A 
HETATM   12  C   UNL     1      26.595  43.048  50.497  1.00  0.00     0.069 A 
HETATM   13  C   UNL     1      26.498  44.302  51.098  1.00  0.00     0.037 A 
HETATM   14  C   UNL     1      27.232  44.587  52.257  1.00  0.00     0.015 A 
BRANCH  12  15
HETATM   15  O   UNL     1      25.945  42.646  49.362  1.00  0.00    -0.342 OA
BRANCH  15  16
HETATM   16  C   UNL     1      24.616  42.163  49.530  1.00  0.00     0.280 C 
BRANCH  16  17
HETATM   17  C   UNL     1      23.599  42.984  48.742  1.00  0.00     0.260 C 
HETATM   18  N   UNL     1      24.108  44.113  48.132  1.00  0.00    -0.266 N 
HETATM   19  H   UNL     1      25.021  44.467  48.420  1.00  0.00     0.190 HD
HETATM   20  O   UNL     1      22.408  42.672  48.686  1.00  0.00    -0.269 OA
BRANCH  18  21
HETATM   21  N   UNL     1      23.190  45.060  47.655  1.00  0.00    -0.266 N 
HETATM   22  C   UNL     1      22.939  46.175  48.430  1.00  0.00     0.253 C 
HETATM   23  O   UNL     1      23.669  46.527  49.357  1.00  0.00    -0.270 OA
HETATM   24  H   UNL     1      22.549  44.755  46.921  1.00  0.00     0.190 HD
BRANCH  22  25
HETATM   25  C   UNL     1      21.740  46.998  47.971  1.00  0.00     0.227 C 
BRANCH  25  26
HETATM   26  N   UNL     1      21.853  48.363  48.443  1.00  0.00    -0.352 N 
HETATM   27  C   UNL     1      20.892  48.896  49.274  1.00  0.00     0.222 C 
HETATM   28  O   UNL     1      19.935  48.236  49.665  1.00  0.00    -0.273 OA
HETATM   29  H   UNL     1      22.454  48.991  47.922  1.00  0.00     0.162 HD
BRANCH  27  30
HETATM   30  C   UNL     1      21.120  50.370  49.626  1.00  0.00     0.078 C 
HETATM   31  C   UNL     1      21.170  51.267  48.380  1.00  0.00     0.014 C 
HETATM   32  C   UNL     1      19.795  51.540  47.771  1.00  0.00     0.001 C 
HETATM   33  C   UNL     1      18.801  52.049  48.807  1.00  0.00     0.000 C 
HETATM   34  C   UNL     1      18.713  51.113  50.005  1.00  0.00     0.001 C 
HETATM   35  C   UNL     1      20.085  50.883  50.637  1.00  0.00     0.014 C 
ENDBRANCH  27  30
ENDBRANCH  25  26
ENDBRANCH  22  25
ENDBRANCH  18  21
ENDBRANCH  16  17
ENDBRANCH  15  16
ENDBRANCH  12  15
ENDBRANCH   7   9
TORSDOF 8
ENDMDL
MODEL 8
REMARK VINA RESULT:      -8.7      3.349     10.861
REMARK  8 active torsions:
REMARK  status: ('A' for Active; 'I' for Inactive)
REMARK    1  A    between atoms: C_7  and  C_8 
REMARK    2  A    between atoms: C_11  and  O_12 
REMARK    3  A    between atoms: O_12  and  C_13 
REMARK    4  A    between atoms: C_13  and  C_14 
REMARK       I    between atoms: C_14  and  N_15 
REMARK    5  A    between atoms: N_15  and  N_16 
REMARK       I    between atoms: N_16  and  C_17 
REMARK    6  A    between atoms: C_17  and  C_18 
REMARK    7  A    between atoms: C_18  and  N_19 
REMARK       I    between atoms: N_19  and  C_20 
REMARK    8  A    between atoms: C_20  and  C_21 
ROOT
HETATM    1  C   UNL     1      22.548  50.942  48.872  1.00  0.00     0.023 A 
HETATM    2  C   UNL     1      21.202  50.569  48.873  1.00  0.00     0.044 A 
HETATM    3  C   UNL     1      20.178  51.561  48.730  1.00  0.00     0.099 C 
HETATM    4  N   UNL     1      19.349  52.365  48.614  1.00  0.00    -0.191 NA
HETATM    5  C   UNL     1      20.862  49.222  49.017  1.00  0.00     0.023 A 
HETATM    6  C   UNL     1      21.865  48.256  49.160  1.00  0.00     0.014 A 
HETATM    7  C   UNL     1      23.225  48.610  49.161  1.00  0.00    -0.026 A 
HETATM    8  C   UNL     1      23.547  49.971  49.013  1.00  0.00     0.014 A 
ENDROOT
BRANCH   7   9
HETATM    9  C   UNL     1      24.281  47.589  49.314  1.00  0.00    -0.026 A 
HETATM   10  C   UNL     1      25.618  47.949  49.543  1.00  0.00     0.015 A 
HETATM   11  C   UNL     1      26.615  46.977  49.683  1.00  0.00     0.037 A 
HETATM   12  C   UNL     1      26.303  45.619  49.610  1.00  0.00     0.069 A 
HETATM   13  C   UNL     1      24.980  45.243  49.380  1.00  0.00     0.037 A 
HETATM   14  C   UNL     1      23.984  46.218  49.233  1.00  0.00     0.015 A 
BRANCH  12  15
HETATM   15  O   UNL     1      27.367  44.772  49.759  1.00  0.00    -0.342 OA
BRANCH  15  16
HETATM   16  C   UNL     1      27.195  43.694  50.672  1.00  0.00     0.280 C 
BRANCH  16  17
HETATM   17  C   UNL     1      27.729  44.024  52.064  1.00  0.00     0.260 C 
HETATM   18  N   UNL     1      26.841  44.689  52.886  1.00  0.00    -0.266 N 
HETATM   19  H   UNL     1      26.013  45.126  52.477  1.00  0.00     0.190 HD
HETATM   20  O   UNL     1      28.878  43.744  52.409  1.00  0.00    -0.269 OA
BRANCH  18  21
HETATM   21  N   UNL     1      27.355  45.282  54.048  1.00  0.00    -0.266 N 
HETATM   22  C   UNL     1      26.604  46.259  54.670  1.00  0.00     0.253 C 
HETATM   23  O   UNL     1      25.406  46.434  54.440  1.00  0.00    -0.270 OA
HETATM   24  H   UNL     1      28.357  45.182  54.215  1.00  0.00     0.190 HD
BRANCH  22  25
HETATM   25  C   UNL     1      27.353  47.033  55.750  1.00  0.00     0.227 C 
BRANCH  25  26
HETATM   26  N   UNL     1      28.738  46.613  55.803  1.00  0.00    -0.352 N 
HETATM   27  C   UNL     1      29.271  46.111  56.970  1.00  0.00     0.222 C 
HETATM   28  O   UNL     1      28.594  45.972  57.984  1.00  0.00    -0.273 OA
HETATM   29  H   UNL     1      29.366  46.975  55.094  1.00  0.00     0.162 HD
BRANCH  27  30
HETATM   30  C   UNL     1      30.765  45.779  56.882  1.00  0.00     0.078 C 
HETATM   31  C   UNL     1      31.229  44.872  58.032  1.00  0.00     0.014 C 
HETATM   32  C   UNL     1      30.810  43.412  57.864  1.00  0.00     0.001 C 
HETATM   33  C   UNL     1      31.202  42.857  56.500  1.00  0.00     0.000 C 
HETATM   34  C   UNL     1      30.676  43.731  55.368  1.00  0.00     0.001 C 
HETATM   35  C   UNL     1      31.138  45.179  55.518  1.00  0.00     0.014 C 
ENDBRANCH  27  30
ENDBRANCH  25  26
ENDBRANCH  22  25
ENDBRANCH  18  21
ENDBRANCH  16  17
ENDBRANCH  15  16
ENDBRANCH  12  15
ENDBRANCH   7   9
TORSDOF 8
ENDMDL
MODEL 9
REMARK VINA RESULT:      -8.6      2.755     11.947
REMARK  8 active torsions:
REMARK  status: ('A' for Active; 'I' for Inactive)
REMARK    1  A    between atoms: C_7  and  C_8 
REMARK    2  A    between atoms: C_11  and  O_12 
REMARK    3  A    between atoms: O_12  and  C_13 
REMARK    4  A    between atoms: C_13  and  C_14 
REMARK       I    between atoms: C_14  and  N_15 
REMARK    5  A    between atoms: N_15  and  N_16 
REMARK       I    between atoms: N_16  and  C_17 
REMARK    6  A    between atoms: C_17  and  C_18 
REMARK    7  A    between atoms: C_18  and  N_19 
REMARK       I    between atoms: N_19  and  C_20 
REMARK    8  A    between atoms: C_20  and  C_21 
ROOT
HETATM    1  C   UNL     1      18.616  52.549  48.638  1.00  0.00     0.023 A 
HETATM    2  C   UNL     1      17.500  51.731  48.445  1.00  0.00     0.044 A 
HETATM    3  C   UNL     1      16.185  52.299  48.417  1.00  0.00     0.099 C 
HETATM    4  N   UNL     1      15.120  52.760  48.395  1.00  0.00    -0.191 NA
HETATM    5  C   UNL     1      17.676  50.355  48.281  1.00  0.00     0.023 A 
HETATM    6  C   UNL     1      18.962  49.803  48.311  1.00  0.00     0.014 A 
HETATM    7  C   UNL     1      20.098  50.608  48.503  1.00  0.00    -0.026 A 
HETATM    8  C   UNL     1      19.900  51.991  48.665  1.00  0.00     0.014 A 
ENDROOT
BRANCH   7   9
HETATM    9  C   UNL     1      21.453  50.023  48.538  1.00  0.00    -0.026 A 
HETATM   10  C   UNL     1      21.655  48.662  48.814  1.00  0.00     0.015 A 
HETATM   11  C   UNL     1      22.942  48.113  48.850  1.00  0.00     0.037 A 
HETATM   12  C   UNL     1      24.062  48.907  48.601  1.00  0.00     0.069 A 
HETATM   13  C   UNL     1      23.882  50.262  48.328  1.00  0.00     0.037 A 
HETATM   14  C   UNL     1      22.592  50.810  48.299  1.00  0.00     0.015 A 
BRANCH  12  15
HETATM   15  O   UNL     1      25.262  48.253  48.670  1.00  0.00    -0.342 OA
BRANCH  15  16
HETATM   16  C   UNL     1      25.880  48.196  49.950  1.00  0.00     0.280 C 
BRANCH  16  17
HETATM   17  C   UNL     1      26.027  46.764  50.459  1.00  0.00     0.260 C 
HETATM   18  N   UNL     1      25.325  46.481  51.614  1.00  0.00    -0.266 N 
HETATM   19  H   UNL     1      24.967  47.251  52.182  1.00  0.00     0.190 HD
HETATM   20  O   UNL     1      26.744  45.938  49.892  1.00  0.00    -0.269 OA
BRANCH  18  21
HETATM   21  N   UNL     1      25.649  45.298  52.293  1.00  0.00    -0.266 N 
HETATM   22  C   UNL     1      25.855  45.363  53.657  1.00  0.00     0.253 C 
HETATM   23  O   UNL     1      25.496  46.319  54.346  1.00  0.00    -0.270 OA
HETATM   24  H   UNL     1      25.994  44.520  51.730  1.00  0.00     0.190 HD
BRANCH  22  25
HETATM   25  C   UNL     1      26.465  44.101  54.258  1.00  0.00     0.227 C 
BRANCH  25  26
HETATM   26  N   UNL     1      27.908  44.211  54.307  1.00  0.00    -0.352 N 
HETATM   27  C   UNL     1      28.522  44.894  55.334  1.00  0.00     0.222 C 
HETATM   28  O   UNL     1      27.881  45.400  56.249  1.00  0.00    -0.273 OA
HETATM   29  H   UNL     1      28.419  44.058  53.445  1.00  0.00     0.162 HD
BRANCH  27  30
HETATM   30  C   UNL     1      30.046  44.979  55.203  1.00  0.00     0.078 C 
HETATM   31  C   UNL     1      30.672  45.892  56.268  1.00  0.00     0.014 C 
HETATM   32  C   UNL     1      30.744  45.253  57.654  1.00  0.00     0.001 C 
HETATM   33  C   UNL     1      31.402  43.878  57.616  1.00  0.00     0.000 C 
HETATM   34  C   UNL     1      30.725  42.962  56.604  1.00  0.00     0.001 C 
HETATM   35  C   UNL     1      30.700  43.590  55.211  1.00  0.00     0.014 C 
ENDBRANCH  27  30
ENDBRANCH  25  26
ENDBRANCH  22  25
ENDBRANCH  18  21
ENDBRANCH  16  17
ENDBRANCH  15  16
ENDBRANCH  12  15
ENDBRANCH   7   9
TORSDOF 8
ENDMDL
MODEL 10
REMARK VINA RESULT:      -8.6      2.687     12.063
REMARK  8 active torsions:
REMARK  status: ('A' for Active; 'I' for Inactive)
REMARK    1  A    between atoms: C_7  and  C_8 
REMARK    2  A    between atoms: C_11  and  O_12 
REMARK    3  A    between atoms: O_12  and  C_13 
REMARK    4  A    between atoms: C_13  and  C_14 
REMARK       I    between atoms: C_14  and  N_15 
REMARK    5  A    between atoms: N_15  and  N_16 
REMARK       I    between atoms: N_16  and  C_17 
REMARK    6  A    between atoms: C_17  and  C_18 
REMARK    7  A    between atoms: C_18  and  N_19 
REMARK       I    between atoms: N_19  and  C_20 
REMARK    8  A    between atoms: C_20  and  C_21 
ROOT
HETATM    1  C   UNL     1      16.088  53.029  50.051  1.00  0.00     0.023 A 
HETATM    2  C   UNL     1      15.140  53.143  49.032  1.00  0.00     0.044 A 
HETATM    3  C   UNL     1      13.876  53.769  49.287  1.00  0.00     0.099 C 
HETATM    4  N   UNL     1      12.853  54.276  49.495  1.00  0.00    -0.191 NA
HETATM    5  C   UNL     1      15.432  52.640  47.762  1.00  0.00     0.023 A 
HETATM    6  C   UNL     1      16.666  52.026  47.517  1.00  0.00     0.014 A 
HETATM    7  C   UNL     1      17.634  51.902  48.528  1.00  0.00    -0.026 A 
HETATM    8  C   UNL     1      17.321  52.416  49.799  1.00  0.00     0.014 A 
ENDROOT
BRANCH   7   9
HETATM    9  C   UNL     1      18.933  51.252  48.267  1.00  0.00    -0.026 A 
HETATM   10  C   UNL     1      20.145  51.883  48.588  1.00  0.00     0.015 A 
HETATM   11  C   UNL     1      21.374  51.264  48.335  1.00  0.00     0.037 A 
HETATM   12  C   UNL     1      21.426  49.992  47.764  1.00  0.00     0.069 A 
HETATM   13  C   UNL     1      20.233  49.350  47.435  1.00  0.00     0.037 A 
HETATM   14  C   UNL     1      19.004  49.976  47.684  1.00  0.00     0.015 A 
BRANCH  12  15
HETATM   15  O   UNL     1      22.687  49.499  47.564  1.00  0.00    -0.342 OA
BRANCH  15  16
HETATM   16  C   UNL     1      23.669  49.858  48.530  1.00  0.00     0.280 C 
BRANCH  16  17
HETATM   17  C   UNL     1      24.321  48.637  49.173  1.00  0.00     0.260 C 
HETATM   18  N   UNL     1      23.530  47.506  49.211  1.00  0.00    -0.266 N 
HETATM   19  H   UNL     1      22.525  47.595  49.052  1.00  0.00     0.190 HD
HETATM   20  O   UNL     1      25.458  48.675  49.647  1.00  0.00    -0.269 OA
BRANCH  18  21
HETATM   21  N   UNL     1      23.943  46.456  50.044  1.00  0.00    -0.266 N 
HETATM   22  C   UNL     1      23.812  45.163  49.579  1.00  0.00     0.253 C 
HETATM   23  O   UNL     1      23.630  44.892  48.391  1.00  0.00    -0.270 OA
HETATM   24  H   UNL     1      24.046  46.666  51.038  1.00  0.00     0.190 HD
BRANCH  22  25
HETATM   25  C   UNL     1      24.023  44.091  50.643  1.00  0.00     0.227 C 
BRANCH  25  26
HETATM   26  N   UNL     1      25.437  43.877  50.871  1.00  0.00    -0.352 N 
HETATM   27  C   UNL     1      26.057  44.422  51.974  1.00  0.00     0.222 C 
HETATM   28  O   UNL     1      25.437  45.073  52.810  1.00  0.00    -0.273 OA
HETATM   29  H   UNL     1      26.004  43.601  50.077  1.00  0.00     0.162 HD
BRANCH  27  30
HETATM   30  C   UNL     1      27.566  44.163  52.034  1.00  0.00     0.078 C 
HETATM   31  C   UNL     1      28.116  44.247  53.466  1.00  0.00     0.014 C 
HETATM   32  C   UNL     1      27.788  43.022  54.318  1.00  0.00     0.001 C 
HETATM   33  C   UNL     1      28.183  41.722  53.626  1.00  0.00     0.000 C 
HETATM   34  C   UNL     1      27.573  41.623  52.233  1.00  0.00     0.001 C 
HETATM   35  C   UNL     1      27.945  42.830  51.373  1.00  0.00     0.014 C 
ENDBRANCH  27  30
ENDBRANCH  25  26
ENDBRANCH  22  25
ENDBRANCH  18  21
ENDBRANCH  16  17
ENDBRANCH  15  16
ENDBRANCH  12  15
ENDBRANCH   7   9
TORSDOF 8
ENDMDL
