MODEL 1
REMARK VINA RESULT:      -8.1      0.000      0.000
REMARK  2 active torsions:
REMARK  status: ('A' for Active; 'I' for Inactive)
REMARK    1  A    between atoms: C_5  and  C_7 
REMARK    2  A    between atoms: C_5  and  O_6 
ROOT
HETATM    1  C   UNL     1      27.787  51.953  41.469  1.00  0.00     0.050 C 
HETATM    2  C   UNL     1      29.202  52.157  41.024  1.00  0.00    -0.034 A 
HETATM    3  C   UNL     1      30.250  51.313  41.363  1.00  0.00     0.052 A 
HETATM    4  C   UNL     1      31.575  51.527  40.944  1.00  0.00     0.039 A 
HETATM    5  C   UNL     1      32.451  50.406  41.463  1.00  0.00     0.200 A 
HETATM    6  C   UNL     1      31.422  49.551  42.280  1.00  0.00     0.266 A 
HETATM    7  O   UNL     1      31.602  48.510  42.895  1.00  0.00    -0.269 OA
HETATM    8  N   UNL     1      30.176  50.160  42.134  1.00  0.00    -0.323 N 
HETATM    9  C   UNL     1      31.866  52.612  40.133  1.00  0.00     0.046 A 
HETATM   10 CL   UNL     1      33.437  52.913  39.508  1.00  0.00    -0.084 Cl
HETATM   11  C   UNL     1      30.833  53.486  39.781  1.00  0.00     0.025 A 
HETATM   12  C   UNL     1      29.518  53.263  40.224  1.00  0.00     0.011 A 
HETATM   13  H   UNL     1      29.349  49.777  42.565  1.00  0.00     0.169 HD
ENDROOT
BRANCH   5  14
HETATM   14  C   UNL     1      33.527  51.001  42.347  1.00  0.00     0.025 A 
HETATM   15  C   UNL     1      34.952  51.051  42.094  1.00  0.00     0.003 A 
HETATM   16  C   UNL     1      35.554  51.691  43.177  1.00  0.00     0.043 A 
HETATM   17  C   UNL     1      35.797  50.618  41.046  1.00  0.00     0.014 A 
HETATM   18  C   UNL     1      36.933  51.912  43.273  1.00  0.00     0.030 A 
HETATM   19  N   UNL     1      34.555  52.029  44.053  1.00  0.00    -0.359 N 
HETATM   20  C   UNL     1      37.738  51.471  42.221  1.00  0.00     0.002 A 
HETATM   21  C   UNL     1      37.179  50.833  41.120  1.00  0.00     0.001 A 
HETATM   22  H   UNL     1      34.707  52.513  44.927  1.00  0.00     0.166 HD
HETATM   23  C   UNL     1      33.333  51.642  43.571  1.00  0.00     0.016 A 
HETATM   24  C   UNL     1      32.093  51.936  44.341  1.00  0.00     0.069 C 
ENDBRANCH   5  14
BRANCH   5  25
HETATM   25  O   UNL     1      32.951  49.637  40.370  1.00  0.00    -0.371 OA
HETATM   26  H   UNL     1      32.227  49.066  40.068  1.00  0.00     0.212 HD
ENDBRANCH   5  25
TORSDOF 2
ENDMDL
MODEL 2
REMARK VINA RESULT:      -8.1      2.965      4.373
REMARK  2 active torsions:
REMARK  status: ('A' for Active; 'I' for Inactive)
REMARK    1  A    between atoms: C_5  and  C_7 
REMARK    2  A    between atoms: C_5  and  O_6 
ROOT
HETATM    1  C   UNL     1      26.149  50.118  38.151  1.00  0.00     0.050 C 
HETATM    2  C   UNL     1      27.173  49.857  39.212  1.00  0.00    -0.034 A 
HETATM    3  C   UNL     1      28.005  50.833  39.743  1.00  0.00     0.052 A 
HETATM    4  C   UNL     1      28.968  50.565  40.731  1.00  0.00     0.039 A 
HETATM    5  C   UNL     1      29.674  51.852  41.103  1.00  0.00     0.200 A 
HETATM    6  C   UNL     1      28.991  52.880  40.135  1.00  0.00     0.266 A 
HETATM    7  O   UNL     1      29.179  54.083  40.033  1.00  0.00    -0.269 OA
HETATM    8  N   UNL     1      28.027  52.181  39.410  1.00  0.00    -0.323 N 
HETATM    9  C   UNL     1      29.092  49.279  41.232  1.00  0.00     0.046 A 
HETATM   10 CL   UNL     1      30.184  48.872  42.493  1.00  0.00    -0.084 Cl
HETATM   11  C   UNL     1      28.273  48.272  40.711  1.00  0.00     0.025 A 
HETATM   12  C   UNL     1      27.328  48.557  39.711  1.00  0.00     0.011 A 
HETATM   13  H   UNL     1      27.445  52.642  38.727  1.00  0.00     0.169 HD
ENDROOT
BRANCH   5  14
HETATM   14  C   UNL     1      31.152  51.695  40.816  1.00  0.00     0.025 A 
HETATM   15  C   UNL     1      32.242  51.680  41.770  1.00  0.00     0.003 A 
HETATM   16  C   UNL     1      33.428  51.511  41.058  1.00  0.00     0.043 A 
HETATM   17  C   UNL     1      32.340  51.790  43.177  1.00  0.00     0.014 A 
HETATM   18  C   UNL     1      34.690  51.453  41.663  1.00  0.00     0.030 A 
HETATM   19  N   UNL     1      33.094  51.416  39.732  1.00  0.00    -0.359 N 
HETATM   20  C   UNL     1      34.751  51.566  43.053  1.00  0.00     0.002 A 
HETATM   21  C   UNL     1      33.592  51.731  43.803  1.00  0.00     0.001 A 
HETATM   22  H   UNL     1      33.762  51.281  38.987  1.00  0.00     0.166 HD
HETATM   23  C   UNL     1      31.738  51.506  39.564  1.00  0.00     0.016 A 
HETATM   24  C   UNL     1      31.139  51.396  38.205  1.00  0.00     0.069 C 
ENDBRANCH   5  14
BRANCH   5  25
HETATM   25  O   UNL     1      29.373  52.197  42.455  1.00  0.00    -0.371 OA
HETATM   26  H   UNL     1      28.423  52.050  42.582  1.00  0.00     0.212 HD
ENDBRANCH   5  25
TORSDOF 2
ENDMDL
MODEL 3
REMARK VINA RESULT:      -8.1      1.859      5.408
REMARK  2 active torsions:
REMARK  status: ('A' for Active; 'I' for Inactive)
REMARK    1  A    between atoms: C_5  and  C_7 
REMARK    2  A    between atoms: C_5  and  O_6 
ROOT
HETATM    1  C   UNL     1      36.595  50.510  41.048  1.00  0.00     0.050 C 
HETATM    2  C   UNL     1      35.402  50.777  41.912  1.00  0.00    -0.034 A 
HETATM    3  C   UNL     1      34.205  50.081  41.816  1.00  0.00     0.052 A 
HETATM    4  C   UNL     1      33.091  50.354  42.629  1.00  0.00     0.039 A 
HETATM    5  C   UNL     1      31.972  49.393  42.283  1.00  0.00     0.200 A 
HETATM    6  C   UNL     1      32.613  48.567  41.114  1.00  0.00     0.266 A 
HETATM    7  O   UNL     1      32.138  47.638  40.478  1.00  0.00    -0.269 OA
HETATM    8  N   UNL     1      33.913  49.039  40.944  1.00  0.00    -0.323 N 
HETATM    9  C   UNL     1      33.178  51.342  43.596  1.00  0.00     0.046 A 
HETATM   10 CL   UNL     1      31.899  51.694  44.687  1.00  0.00    -0.084 Cl
HETATM   11  C   UNL     1      34.369  52.066  43.712  1.00  0.00     0.025 A 
HETATM   12  C   UNL     1      35.465  51.790  42.878  1.00  0.00     0.011 A 
HETATM   13  H   UNL     1      34.530  48.645  40.250  1.00  0.00     0.169 HD
ENDROOT
BRANCH   5  14
HETATM   14  C   UNL     1      30.771  50.193  41.824  1.00  0.00     0.025 A 
HETATM   15  C   UNL     1      30.757  51.539  41.289  1.00  0.00     0.003 A 
HETATM   16  C   UNL     1      29.433  51.868  41.000  1.00  0.00     0.043 A 
HETATM   17  C   UNL     1      31.742  52.517  41.016  1.00  0.00     0.014 A 
HETATM   18  C   UNL     1      29.044  53.104  40.469  1.00  0.00     0.030 A 
HETATM   19  N   UNL     1      28.666  50.782  41.329  1.00  0.00    -0.359 N 
HETATM   20  C   UNL     1      30.042  54.046  40.212  1.00  0.00     0.002 A 
HETATM   21  C   UNL     1      31.375  53.758  40.480  1.00  0.00     0.001 A 
HETATM   22  H   UNL     1      27.663  50.740  41.215  1.00  0.00     0.166 HD
HETATM   23  C   UNL     1      29.444  49.762  41.807  1.00  0.00     0.016 A 
HETATM   24  C   UNL     1      28.828  48.464  42.199  1.00  0.00     0.069 C 
ENDBRANCH   5  14
BRANCH   5  25
HETATM   25  O   UNL     1      31.713  48.532  43.391  1.00  0.00    -0.371 OA
HETATM   26  H   UNL     1      31.967  47.636  43.121  1.00  0.00     0.212 HD
ENDBRANCH   5  25
TORSDOF 2
ENDMDL
MODEL 4
REMARK VINA RESULT:      -7.8     12.668     15.103
REMARK  2 active torsions:
REMARK  status: ('A' for Active; 'I' for Inactive)
REMARK    1  A    between atoms: C_5  and  C_7 
REMARK    2  A    between atoms: C_5  and  O_6 
ROOT
HETATM    1  C   UNL     1      17.152  53.081  49.185  1.00  0.00     0.050 C 
HETATM    2  C   UNL     1      17.591  51.869  48.423  1.00  0.00    -0.034 A 
HETATM    3  C   UNL     1      18.021  50.692  49.020  1.00  0.00     0.052 A 
HETATM    4  C   UNL     1      18.440  49.568  48.288  1.00  0.00     0.039 A 
HETATM    5  C   UNL     1      18.811  48.455  49.246  1.00  0.00     0.200 A 
HETATM    6  C   UNL     1      18.581  49.145  50.636  1.00  0.00     0.266 A 
HETATM    7  O   UNL     1      18.716  48.678  51.757  1.00  0.00    -0.269 OA
HETATM    8  N   UNL     1      18.105  50.430  50.382  1.00  0.00    -0.323 N 
HETATM    9  C   UNL     1      18.405  49.605  46.903  1.00  0.00     0.046 A 
HETATM   10 CL   UNL     1      18.822  48.257  45.924  1.00  0.00    -0.084 Cl
HETATM   11  C   UNL     1      17.983  50.779  46.272  1.00  0.00     0.025 A 
HETATM   12  C   UNL     1      17.585  51.898  47.022  1.00  0.00     0.011 A 
HETATM   13  H   UNL     1      17.872  51.063  51.132  1.00  0.00     0.169 HD
ENDROOT
BRANCH   5  14
HETATM   14  C   UNL     1      20.263  48.089  49.025  1.00  0.00     0.025 A 
HETATM   15  C   UNL     1      21.407  48.978  49.010  1.00  0.00     0.003 A 
HETATM   16  C   UNL     1      22.543  48.204  48.772  1.00  0.00     0.043 A 
HETATM   17  C   UNL     1      21.594  50.370  49.177  1.00  0.00     0.014 A 
HETATM   18  C   UNL     1      23.835  48.738  48.687  1.00  0.00     0.030 A 
HETATM   19  N   UNL     1      22.129  46.903  48.655  1.00  0.00    -0.359 N 
HETATM   20  C   UNL     1      23.983  50.115  48.857  1.00  0.00     0.002 A 
HETATM   21  C   UNL     1      22.879  50.922  49.101  1.00  0.00     0.001 A 
HETATM   22  H   UNL     1      22.749  46.123  48.487  1.00  0.00     0.166 HD
HETATM   23  C   UNL     1      20.773  46.806  48.820  1.00  0.00     0.016 A 
HETATM   24  C   UNL     1      20.100  45.479  48.767  1.00  0.00     0.069 C 
ENDBRANCH   5  14
BRANCH   5  25
HETATM   25  O   UNL     1      17.903  47.365  49.098  1.00  0.00    -0.371 OA
HETATM   26  H   UNL     1      18.390  46.643  48.673  1.00  0.00     0.212 HD
ENDBRANCH   5  25
TORSDOF 2
ENDMDL
MODEL 5
REMARK VINA RESULT:      -7.8      3.446      7.106
REMARK  2 active torsions:
REMARK  status: ('A' for Active; 'I' for Inactive)
REMARK    1  A    between atoms: C_5  and  C_7 
REMARK    2  A    between atoms: C_5  and  O_6 
ROOT
HETATM    1  C   UNL     1      33.966  51.275  42.224  1.00  0.00     0.050 C 
HETATM    2  C   UNL     1      32.750  50.444  41.954  1.00  0.00    -0.034 A 
HETATM    3  C   UNL     1      32.155  50.324  40.706  1.00  0.00     0.052 A 
HETATM    4  C   UNL     1      31.006  49.548  40.475  1.00  0.00     0.039 A 
HETATM    5  C   UNL     1      30.646  49.613  39.005  1.00  0.00     0.200 A 
HETATM    6  C   UNL     1      31.743  50.587  38.452  1.00  0.00     0.266 A 
HETATM    7  O   UNL     1      31.925  50.970  37.306  1.00  0.00    -0.269 OA
HETATM    8  N   UNL     1      32.573  50.918  39.522  1.00  0.00    -0.323 N 
HETATM    9  C   UNL     1      30.440  48.839  41.523  1.00  0.00     0.046 A 
HETATM   10 CL   UNL     1      29.085  47.803  41.322  1.00  0.00    -0.084 Cl
HETATM   11  C   UNL     1      31.013  48.946  42.794  1.00  0.00     0.025 A 
HETATM   12  C   UNL     1      32.151  49.741  43.008  1.00  0.00     0.011 A 
HETATM   13  H   UNL     1      33.367  51.530  39.404  1.00  0.00     0.169 HD
ENDROOT
BRANCH   5  14
HETATM   14  C   UNL     1      29.252  50.190  38.874  1.00  0.00     0.025 A 
HETATM   15  C   UNL     1      28.040  49.497  38.487  1.00  0.00     0.003 A 
HETATM   16  C   UNL     1      26.998  50.424  38.502  1.00  0.00     0.043 A 
HETATM   17  C   UNL     1      27.722  48.168  38.125  1.00  0.00     0.014 A 
HETATM   18  C   UNL     1      25.675  50.100  38.175  1.00  0.00     0.030 A 
HETATM   19  N   UNL     1      27.531  51.626  38.888  1.00  0.00    -0.359 N 
HETATM   20  C   UNL     1      25.396  48.779  37.823  1.00  0.00     0.002 A 
HETATM   21  C   UNL     1      26.404  47.823  37.799  1.00  0.00     0.001 A 
HETATM   22  H   UNL     1      26.996  52.476  38.991  1.00  0.00     0.166 HD
HETATM   23  C   UNL     1      28.873  51.508  39.132  1.00  0.00     0.016 A 
HETATM   24  C   UNL     1      29.660  52.684  39.596  1.00  0.00     0.069 C 
ENDBRANCH   5  14
BRANCH   5  25
HETATM   25  O   UNL     1      30.805  48.326  38.410  1.00  0.00    -0.371 OA
HETATM   26  H   UNL     1      31.666  48.323  37.964  1.00  0.00     0.212 HD
ENDBRANCH   5  25
TORSDOF 2
ENDMDL
MODEL 6
REMARK VINA RESULT:      -7.8      1.884      5.864
REMARK  2 active torsions:
REMARK  status: ('A' for Active; 'I' for Inactive)
REMARK    1  A    between atoms: C_5  and  C_7 
REMARK    2  A    between atoms: C_5  and  O_6 
ROOT
HETATM    1  C   UNL     1      37.105  50.508  42.445  1.00  0.00     0.050 C 
HETATM    2  C   UNL     1      35.989  50.859  41.511  1.00  0.00    -0.034 A 
HETATM    3  C   UNL     1      34.666  51.006  41.905  1.00  0.00     0.052 A 
HETATM    4  C   UNL     1      33.630  51.325  41.011  1.00  0.00     0.039 A 
HETATM    5  C   UNL     1      32.327  51.440  41.776  1.00  0.00     0.200 A 
HETATM    6  C   UNL     1      32.783  51.088  43.235  1.00  0.00     0.266 A 
HETATM    7  O   UNL     1      32.120  51.051  44.260  1.00  0.00    -0.269 OA
HETATM    8  N   UNL     1      34.160  50.876  43.193  1.00  0.00    -0.323 N 
HETATM    9  C   UNL     1      33.923  51.533  39.673  1.00  0.00     0.046 A 
HETATM   10 CL   UNL     1      32.739  52.002  38.521  1.00  0.00    -0.084 Cl
HETATM   11  C   UNL     1      35.245  51.384  39.243  1.00  0.00     0.025 A 
HETATM   12  C   UNL     1      36.264  51.047  40.150  1.00  0.00     0.011 A 
HETATM   13  H   UNL     1      34.683  50.646  44.024  1.00  0.00     0.169 HD
ENDROOT
BRANCH   5  14
HETATM   14  C   UNL     1      31.350  50.424  41.223  1.00  0.00     0.025 A 
HETATM   15  C   UNL     1      30.056  50.676  40.623  1.00  0.00     0.003 A 
HETATM   16  C   UNL     1      29.510  49.446  40.258  1.00  0.00     0.043 A 
HETATM   17  C   UNL     1      29.290  51.833  40.348  1.00  0.00     0.014 A 
HETATM   18  C   UNL     1      28.256  49.309  39.649  1.00  0.00     0.030 A 
HETATM   19  N   UNL     1      30.419  48.481  40.604  1.00  0.00    -0.359 N 
HETATM   20  C   UNL     1      27.527  50.471  39.393  1.00  0.00     0.002 A 
HETATM   21  C   UNL     1      28.036  51.718  39.736  1.00  0.00     0.001 A 
HETATM   22  H   UNL     1      30.285  47.492  40.447  1.00  0.00     0.166 HD
HETATM   23  C   UNL     1      31.534  49.041  41.167  1.00  0.00     0.016 A 
HETATM   24  C   UNL     1      32.675  48.184  41.594  1.00  0.00     0.069 C 
ENDBRANCH   5  14
BRANCH   5  25
HETATM   25  O   UNL     1      31.857  52.787  41.734  1.00  0.00    -0.371 OA
HETATM   26  H   UNL     1      32.400  53.258  41.083  1.00  0.00     0.212 HD
ENDBRANCH   5  25
TORSDOF 2
ENDMDL
MODEL 7
REMARK VINA RESULT:      -7.8      3.966      6.751
REMARK  2 active torsions:
REMARK  status: ('A' for Active; 'I' for Inactive)
REMARK    1  A    between atoms: C_5  and  C_7 
REMARK    2  A    between atoms: C_5  and  O_6 
ROOT
HETATM    1  C   UNL     1      31.277  53.465  40.588  1.00  0.00     0.050 C 
HETATM    2  C   UNL     1      30.142  52.524  40.326  1.00  0.00    -0.034 A 
HETATM    3  C   UNL     1      30.003  51.288  40.942  1.00  0.00     0.052 A 
HETATM    4  C   UNL     1      28.935  50.413  40.674  1.00  0.00     0.039 A 
HETATM    5  C   UNL     1      29.075  49.175  41.536  1.00  0.00     0.200 A 
HETATM    6  C   UNL     1      30.415  49.468  42.296  1.00  0.00     0.266 A 
HETATM    7  O   UNL     1      30.984  48.791  43.140  1.00  0.00    -0.269 OA
HETATM    8  N   UNL     1      30.851  50.727  41.888  1.00  0.00    -0.323 N 
HETATM    9  C   UNL     1      27.950  50.794  39.777  1.00  0.00     0.046 A 
HETATM   10 CL   UNL     1      26.569  49.829  39.445  1.00  0.00    -0.084 Cl
HETATM   11  C   UNL     1      28.066  52.031  39.135  1.00  0.00     0.025 A 
HETATM   12  C   UNL     1      29.150  52.883  39.403  1.00  0.00     0.011 A 
HETATM   13  H   UNL     1      31.696  51.137  42.257  1.00  0.00     0.169 HD
ENDROOT
BRANCH   5  14
HETATM   14  C   UNL     1      29.185  47.966  40.632  1.00  0.00     0.025 A 
HETATM   15  C   UNL     1      28.333  46.794  40.615  1.00  0.00     0.003 A 
HETATM   16  C   UNL     1      28.807  45.939  39.620  1.00  0.00     0.043 A 
HETATM   17  C   UNL     1      27.200  46.371  41.348  1.00  0.00     0.014 A 
HETATM   18  C   UNL     1      28.222  44.701  39.325  1.00  0.00     0.030 A 
HETATM   19  N   UNL     1      29.888  46.551  39.042  1.00  0.00    -0.359 N 
HETATM   20  C   UNL     1      27.105  44.315  40.067  1.00  0.00     0.002 A 
HETATM   21  C   UNL     1      26.598  45.139  41.065  1.00  0.00     0.001 A 
HETATM   22  H   UNL     1      30.425  46.156  38.282  1.00  0.00     0.166 HD
HETATM   23  C   UNL     1      30.124  47.771  39.618  1.00  0.00     0.016 A 
HETATM   24  C   UNL     1      31.234  48.634  39.128  1.00  0.00     0.069 C 
ENDBRANCH   5  14
BRANCH   5  25
HETATM   25  O   UNL     1      27.999  49.112  42.471  1.00  0.00    -0.371 OA
HETATM   26  H   UNL     1      27.966  49.967  42.927  1.00  0.00     0.212 HD
ENDBRANCH   5  25
TORSDOF 2
ENDMDL
MODEL 8
REMARK VINA RESULT:      -7.5     23.758     25.006
REMARK  2 active torsions:
REMARK  status: ('A' for Active; 'I' for Inactive)
REMARK    1  A    between atoms: C_5  and  C_7 
REMARK    2  A    between atoms: C_5  and  O_6 
ROOT
HETATM    1  C   UNL     1      38.581  49.356  66.044  1.00  0.00     0.050 C 
HETATM    2  C   UNL     1      39.342  48.200  65.471  1.00  0.00    -0.034 A 
HETATM    3  C   UNL     1      38.744  47.067  64.937  1.00  0.00     0.052 A 
HETATM    4  C   UNL     1      39.476  45.987  64.414  1.00  0.00     0.039 A 
HETATM    5  C   UNL     1      38.515  44.939  63.889  1.00  0.00     0.200 A 
HETATM    6  C   UNL     1      37.127  45.577  64.242  1.00  0.00     0.266 A 
HETATM    7  O   UNL     1      36.005  45.148  64.018  1.00  0.00    -0.269 OA
HETATM    8  N   UNL     1      37.382  46.816  64.827  1.00  0.00    -0.323 N 
HETATM    9  C   UNL     1      40.860  46.045  64.397  1.00  0.00     0.046 A 
HETATM   10 CL   UNL     1      41.836  44.812  63.708  1.00  0.00    -0.084 Cl
HETATM   11  C   UNL     1      41.492  47.171  64.935  1.00  0.00     0.025 A 
HETATM   12  C   UNL     1      40.743  48.232  65.469  1.00  0.00     0.011 A 
HETATM   13  H   UNL     1      36.633  47.421  65.128  1.00  0.00     0.169 HD
ENDROOT
BRANCH   5  14
HETATM   14  C   UNL     1      38.755  43.645  64.637  1.00  0.00     0.025 A 
HETATM   15  C   UNL     1      38.970  42.326  64.077  1.00  0.00     0.003 A 
HETATM   16  C   UNL     1      39.147  41.438  65.137  1.00  0.00     0.043 A 
HETATM   17  C   UNL     1      39.034  41.795  62.767  1.00  0.00     0.014 A 
HETATM   18  C   UNL     1      39.375  40.067  64.964  1.00  0.00     0.030 A 
HETATM   19  N   UNL     1      39.057  42.166  66.294  1.00  0.00    -0.359 N 
HETATM   20  C   UNL     1      39.433  39.576  63.658  1.00  0.00     0.002 A 
HETATM   21  C   UNL     1      39.266  40.427  62.573  1.00  0.00     0.001 A 
HETATM   22  H   UNL     1      39.156  41.774  67.220  1.00  0.00     0.166 HD
HETATM   23  C   UNL     1      38.840  43.490  66.021  1.00  0.00     0.016 A 
HETATM   24  C   UNL     1      38.740  44.481  67.128  1.00  0.00     0.069 C 
ENDBRANCH   5  14
BRANCH   5  25
HETATM   25  O   UNL     1      38.645  44.830  62.473  1.00  0.00    -0.371 OA
HETATM   26  H   UNL     1      39.327  45.462  62.198  1.00  0.00     0.212 HD
ENDBRANCH   5  25
TORSDOF 2
ENDMDL
MODEL 9
REMARK VINA RESULT:      -7.5      3.386      5.078
REMARK  2 active torsions:
REMARK  status: ('A' for Active; 'I' for Inactive)
REMARK    1  A    between atoms: C_5  and  C_7 
REMARK    2  A    between atoms: C_5  and  O_6 
ROOT
HETATM    1  C   UNL     1      29.874  45.818  39.302  1.00  0.00     0.050 C 
HETATM    2  C   UNL     1      29.182  47.108  39.619  1.00  0.00    -0.034 A 
HETATM    3  C   UNL     1      29.693  48.359  39.302  1.00  0.00     0.052 A 
HETATM    4  C   UNL     1      29.034  49.560  39.618  1.00  0.00     0.039 A 
HETATM    5  C   UNL     1      29.849  50.729  39.104  1.00  0.00     0.200 A 
HETATM    6  C   UNL     1      31.096  50.001  38.492  1.00  0.00     0.266 A 
HETATM    7  O   UNL     1      32.064  50.481  37.922  1.00  0.00    -0.269 OA
HETATM    8  N   UNL     1      30.887  48.631  38.645  1.00  0.00    -0.323 N 
HETATM    9  C   UNL     1      27.802  49.515  40.252  1.00  0.00     0.046 A 
HETATM   10 CL   UNL     1      26.886  50.924  40.607  1.00  0.00    -0.084 Cl
HETATM   11  C   UNL     1      27.265  48.270  40.590  1.00  0.00     0.025 A 
HETATM   12  C   UNL     1      27.948  47.082  40.282  1.00  0.00     0.011 A 
HETATM   13  H   UNL     1      31.557  47.955  38.311  1.00  0.00     0.169 HD
ENDROOT
BRANCH   5  14
HETATM   14  C   UNL     1      30.224  51.611  40.277  1.00  0.00     0.025 A 
HETATM   15  C   UNL     1      30.972  51.239  41.460  1.00  0.00     0.003 A 
HETATM   16  C   UNL     1      31.078  52.370  42.268  1.00  0.00     0.043 A 
HETATM   17  C   UNL     1      31.577  50.049  41.927  1.00  0.00     0.014 A 
HETATM   18  C   UNL     1      31.740  52.376  43.503  1.00  0.00     0.030 A 
HETATM   19  N   UNL     1      30.439  53.393  41.618  1.00  0.00    -0.359 N 
HETATM   20  C   UNL     1      32.325  51.184  43.934  1.00  0.00     0.002 A 
HETATM   21  C   UNL     1      32.246  50.035  43.157  1.00  0.00     0.001 A 
HETATM   22  H   UNL     1      30.367  54.336  41.976  1.00  0.00     0.166 HD
HETATM   23  C   UNL     1      29.934  52.968  40.418  1.00  0.00     0.016 A 
HETATM   24  C   UNL     1      29.223  53.920  39.521  1.00  0.00     0.069 C 
ENDBRANCH   5  14
BRANCH   5  25
HETATM   25  O   UNL     1      29.133  51.402  38.070  1.00  0.00    -0.371 OA
HETATM   26  H   UNL     1      29.277  52.352  38.195  1.00  0.00     0.212 HD
ENDBRANCH   5  25
TORSDOF 2
ENDMDL
MODEL 10
REMARK VINA RESULT:      -7.4      2.516      5.614
REMARK  2 active torsions:
REMARK  status: ('A' for Active; 'I' for Inactive)
REMARK    1  A    between atoms: C_5  and  C_7 
REMARK    2  A    between atoms: C_5  and  O_6 
ROOT
HETATM    1  C   UNL     1      35.796  50.151  40.770  1.00  0.00     0.050 C 
HETATM    2  C   UNL     1      34.541  50.939  40.558  1.00  0.00    -0.034 A 
HETATM    3  C   UNL     1      33.338  50.667  41.194  1.00  0.00     0.052 A 
HETATM    4  C   UNL     1      32.167  51.412  40.973  1.00  0.00     0.039 A 
HETATM    5  C   UNL     1      31.055  50.868  41.847  1.00  0.00     0.200 A 
HETATM    6  C   UNL     1      31.771  49.669  42.561  1.00  0.00     0.266 A 
HETATM    7  O   UNL     1      31.327  48.896  43.396  1.00  0.00    -0.269 OA
HETATM    8  N   UNL     1      33.094  49.661  42.122  1.00  0.00    -0.323 N 
HETATM    9  C   UNL     1      32.198  52.489  40.102  1.00  0.00     0.046 A 
HETATM   10 CL   UNL     1      30.841  53.505  39.827  1.00  0.00    -0.084 Cl
HETATM   11  C   UNL     1      33.394  52.784  39.439  1.00  0.00     0.025 A 
HETATM   12  C   UNL     1      34.549  52.016  39.661  1.00  0.00     0.011 A 
HETATM   13  H   UNL     1      33.757  48.980  42.458  1.00  0.00     0.169 HD
ENDROOT
BRANCH   5  14
HETATM   14  C   UNL     1      29.921  50.407  40.958  1.00  0.00     0.025 A 
HETATM   15  C   UNL     1      29.894  49.249  40.087  1.00  0.00     0.003 A 
HETATM   16  C   UNL     1      28.648  49.216  39.462  1.00  0.00     0.043 A 
HETATM   17  C   UNL     1      30.808  48.219  39.766  1.00  0.00     0.014 A 
HETATM   18  C   UNL     1      28.272  48.228  38.544  1.00  0.00     0.030 A 
HETATM   19  N   UNL     1      27.934  50.290  39.927  1.00  0.00    -0.359 N 
HETATM   20  C   UNL     1      29.198  47.226  38.249  1.00  0.00     0.002 A 
HETATM   21  C   UNL     1      30.450  47.219  38.852  1.00  0.00     0.001 A 
HETATM   22  H   UNL     1      26.988  50.507  39.646  1.00  0.00     0.166 HD
HETATM   23  C   UNL     1      28.667  51.007  40.835  1.00  0.00     0.016 A 
HETATM   24  C   UNL     1      28.080  52.203  41.500  1.00  0.00     0.069 C 
ENDBRANCH   5  14
BRANCH   5  25
HETATM   25  O   UNL     1      30.680  51.846  42.816  1.00  0.00    -0.371 OA
HETATM   26  H   UNL     1      30.274  51.371  43.558  1.00  0.00     0.212 HD
ENDBRANCH   5  25
TORSDOF 2
ENDMDL
