MODEL 1
REMARK VINA RESULT:      -8.5      0.000      0.000
REMARK  5 active torsions:
REMARK  status: ('A' for Active; 'I' for Inactive)
REMARK    1  A    between atoms: N_1  and  C_5 
REMARK    2  A    between atoms: C_5  and  C_6 
REMARK    3  A    between atoms: C_6  and  C_7 
REMARK    4  A    between atoms: C_6  and  C_20 
REMARK       I    between atoms: C_7  and  N_9 
REMARK    5  A    between atoms: N_9  and  C_10 
ROOT
HETATM    1  C   UNL     1      27.196  44.419  51.927  1.00  0.00     0.232 C 
HETATM    2  O   UNL     1      27.841  44.215  50.897  1.00  0.00    -0.272 OA
HETATM    3  N   UNL     1      26.355  45.485  52.175  1.00  0.00    -0.327 N 
HETATM    4  H   UNL     1      26.097  45.665  53.141  1.00  0.00     0.169 HD
ENDROOT
BRANCH   1   5
HETATM    5  C   UNL     1      27.349  43.460  53.103  1.00  0.00     0.136 C 
BRANCH   5   6
HETATM    6  C   UNL     1      27.588  42.031  52.570  1.00  0.00     0.248 C 
BRANCH   6   7
HETATM    7  N   UNL     1      26.479  41.556  51.691  1.00  0.00    -0.078 N 
HETATM    8  H   UNL     1      26.028  42.384  51.254  1.00  0.00     0.274 HD
HETATM    9  H   UNL     1      26.811  40.944  50.935  1.00  0.00     0.274 HD
HETATM   10  H   UNL     1      25.751  41.057  52.216  1.00  0.00     0.274 HD
ENDBRANCH   6   7
ENDBRANCH   5   6
BRANCH   5  11
HETATM   11  C   UNL     1      28.425  43.854  54.104  1.00  0.00    -0.043 A 
HETATM   12  C   UNL     1      29.529  43.002  54.277  1.00  0.00     0.008 A 
HETATM   13  C   UNL     1      30.556  43.339  55.159  1.00  0.00     0.001 A 
HETATM   14  C   UNL     1      30.495  44.527  55.879  1.00  0.00     0.000 A 
HETATM   15  C   UNL     1      29.407  45.382  55.719  1.00  0.00     0.001 A 
HETATM   16  C   UNL     1      28.377  45.052  54.835  1.00  0.00     0.008 A 
ENDBRANCH   5  11
ENDBRANCH   1   5
BRANCH   3  17
HETATM   17  C   UNL     1      25.916  46.449  51.242  1.00  0.00     0.035 A 
HETATM   18  C   UNL     1      24.568  46.414  50.872  1.00  0.00     0.030 A 
HETATM   19  C   UNL     1      24.064  47.322  49.936  1.00  0.00     0.016 A 
HETATM   20  C   UNL     1      24.911  48.266  49.336  1.00  0.00    -0.008 A 
HETATM   21  C   UNL     1      24.469  49.186  48.381  1.00  0.00     0.128 A 
HETATM   22  C   UNL     1      26.274  48.301  49.688  1.00  0.00    -0.021 A 
HETATM   23  N   UNL     1      25.262  50.094  47.771  1.00  0.00    -0.272 NA
HETATM   24  C   UNL     1      26.563  50.095  48.121  1.00  0.00     0.117 A 
HETATM   25  C   UNL     1      27.109  49.235  49.061  1.00  0.00     0.031 A 
HETATM   26  C   UNL     1      26.761  47.392  50.649  1.00  0.00     0.042 A 
ENDBRANCH   3  17
TORSDOF 5
ENDMDL
MODEL 2
REMARK VINA RESULT:      -8.3      1.178      2.247
REMARK  5 active torsions:
REMARK  status: ('A' for Active; 'I' for Inactive)
REMARK    1  A    between atoms: N_1  and  C_5 
REMARK    2  A    between atoms: C_5  and  C_6 
REMARK    3  A    between atoms: C_6  and  C_7 
REMARK    4  A    between atoms: C_6  and  C_20 
REMARK       I    between atoms: C_7  and  N_9 
REMARK    5  A    between atoms: N_9  and  C_10 
ROOT
HETATM    1  C   UNL     1      26.731  44.522  50.916  1.00  0.00     0.232 C 
HETATM    2  O   UNL     1      27.295  44.286  49.847  1.00  0.00    -0.272 OA
HETATM    3  N   UNL     1      26.077  45.685  51.265  1.00  0.00    -0.327 N 
HETATM    4  H   UNL     1      25.889  45.842  52.252  1.00  0.00     0.169 HD
ENDROOT
BRANCH   1   5
HETATM    5  C   UNL     1      26.778  43.477  52.028  1.00  0.00     0.136 C 
BRANCH   5   6
HETATM    6  C   UNL     1      26.554  42.075  51.422  1.00  0.00     0.248 C 
BRANCH   6   7
HETATM    7  N   UNL     1      25.222  41.944  50.762  1.00  0.00    -0.078 N 
HETATM    8  H   UNL     1      24.576  42.640  51.183  1.00  0.00     0.274 HD
HETATM    9  H   UNL     1      25.264  42.125  49.751  1.00  0.00     0.274 HD
HETATM   10  H   UNL     1      24.804  41.017  50.907  1.00  0.00     0.274 HD
ENDBRANCH   6   7
ENDBRANCH   5   6
BRANCH   5  11
HETATM   11  C   UNL     1      28.043  43.510  52.871  1.00  0.00    -0.043 A 
HETATM   12  C   UNL     1      28.051  44.283  54.046  1.00  0.00     0.008 A 
HETATM   13  C   UNL     1      29.178  44.316  54.867  1.00  0.00     0.001 A 
HETATM   14  C   UNL     1      30.310  43.581  54.530  1.00  0.00     0.000 A 
HETATM   15  C   UNL     1      30.317  42.811  53.369  1.00  0.00     0.001 A 
HETATM   16  C   UNL     1      29.192  42.771  52.544  1.00  0.00     0.008 A 
ENDBRANCH   5  11
ENDBRANCH   1   5
BRANCH   3  17
HETATM   17  C   UNL     1      25.757  46.763  50.411  1.00  0.00     0.035 A 
HETATM   18  C   UNL     1      26.795  47.630  50.056  1.00  0.00     0.030 A 
HETATM   19  C   UNL     1      26.551  48.733  49.232  1.00  0.00     0.016 A 
HETATM   20  C   UNL     1      25.253  48.999  48.771  1.00  0.00    -0.008 A 
HETATM   21  C   UNL     1      24.944  50.096  47.961  1.00  0.00     0.128 A 
HETATM   22  C   UNL     1      24.195  48.143  49.135  1.00  0.00    -0.021 A 
HETATM   23  N   UNL     1      23.703  50.392  47.516  1.00  0.00    -0.272 NA
HETATM   24  C   UNL     1      22.711  49.560  47.890  1.00  0.00     0.117 A 
HETATM   25  C   UNL     1      22.903  48.439  48.683  1.00  0.00     0.031 A 
HETATM   26  C   UNL     1      24.463  47.024  49.948  1.00  0.00     0.042 A 
ENDBRANCH   3  17
TORSDOF 5
ENDMDL
MODEL 3
REMARK VINA RESULT:      -8.2      1.655      2.376
REMARK  5 active torsions:
REMARK  status: ('A' for Active; 'I' for Inactive)
REMARK    1  A    between atoms: N_1  and  C_5 
REMARK    2  A    between atoms: C_5  and  C_6 
REMARK    3  A    between atoms: C_6  and  C_7 
REMARK    4  A    between atoms: C_6  and  C_20 
REMARK       I    between atoms: C_7  and  N_9 
REMARK    5  A    between atoms: N_9  and  C_10 
ROOT
HETATM    1  C   UNL     1      27.123  43.557  52.458  1.00  0.00     0.232 C 
HETATM    2  O   UNL     1      27.886  43.710  51.502  1.00  0.00    -0.272 OA
HETATM    3  N   UNL     1      25.830  44.024  52.563  1.00  0.00    -0.327 N 
HETATM    4  H   UNL     1      25.414  44.054  53.491  1.00  0.00     0.169 HD
ENDROOT
BRANCH   1   5
HETATM    5  C   UNL     1      27.628  42.836  53.704  1.00  0.00     0.136 C 
BRANCH   5   6
HETATM    6  C   UNL     1      28.147  41.436  53.311  1.00  0.00     0.248 C 
BRANCH   6   7
HETATM    7  N   UNL     1      27.265  40.760  52.313  1.00  0.00    -0.078 N 
HETATM    8  H   UNL     1      26.328  40.624  52.741  1.00  0.00     0.274 HD
HETATM    9  H   UNL     1      27.142  41.315  51.457  1.00  0.00     0.274 HD
HETATM   10  H   UNL     1      27.615  39.831  52.050  1.00  0.00     0.274 HD
ENDBRANCH   6   7
ENDBRANCH   5   6
BRANCH   5  11
HETATM   11  C   UNL     1      28.677  43.602  54.495  1.00  0.00    -0.043 A 
HETATM   12  C   UNL     1      28.379  44.907  54.925  1.00  0.00     0.008 A 
HETATM   13  C   UNL     1      29.298  45.634  55.681  1.00  0.00     0.001 A 
HETATM   14  C   UNL     1      30.525  45.072  56.018  1.00  0.00     0.000 A 
HETATM   15  C   UNL     1      30.835  43.780  55.600  1.00  0.00     0.001 A 
HETATM   16  C   UNL     1      29.919  43.045  54.845  1.00  0.00     0.008 A 
ENDBRANCH   5  11
ENDBRANCH   1   5
BRANCH   3  17
HETATM   17  C   UNL     1      25.054  44.602  51.535  1.00  0.00     0.035 A 
HETATM   18  C   UNL     1      24.297  43.736  50.740  1.00  0.00     0.030 A 
HETATM   19  C   UNL     1      23.522  44.232  49.687  1.00  0.00     0.016 A 
HETATM   20  C   UNL     1      23.513  45.605  49.399  1.00  0.00    -0.008 A 
HETATM   21  C   UNL     1      22.772  46.156  48.349  1.00  0.00     0.128 A 
HETATM   22  C   UNL     1      24.283  46.486  50.182  1.00  0.00    -0.021 A 
HETATM   23  N   UNL     1      22.756  47.470  48.033  1.00  0.00    -0.272 NA
HETATM   24  C   UNL     1      23.512  48.286  48.794  1.00  0.00     0.117 A 
HETATM   25  C   UNL     1      24.278  47.850  49.864  1.00  0.00     0.031 A 
HETATM   26  C   UNL     1      25.043  45.972  51.252  1.00  0.00     0.042 A 
ENDBRANCH   3  17
TORSDOF 5
ENDMDL
MODEL 4
REMARK VINA RESULT:      -8.1      2.280      7.522
REMARK  5 active torsions:
REMARK  status: ('A' for Active; 'I' for Inactive)
REMARK    1  A    between atoms: N_1  and  C_5 
REMARK    2  A    between atoms: C_5  and  C_6 
REMARK    3  A    between atoms: C_6  and  C_7 
REMARK    4  A    between atoms: C_6  and  C_20 
REMARK       I    between atoms: C_7  and  N_9 
REMARK    5  A    between atoms: N_9  and  C_10 
ROOT
HETATM    1  C   UNL     1      26.748  44.298  52.670  1.00  0.00     0.232 C 
HETATM    2  O   UNL     1      26.003  44.474  53.635  1.00  0.00    -0.272 OA
HETATM    3  N   UNL     1      28.126  44.242  52.692  1.00  0.00    -0.327 N 
HETATM    4  H   UNL     1      28.616  44.353  51.808  1.00  0.00     0.169 HD
ENDROOT
BRANCH   1   5
HETATM    5  C   UNL     1      26.143  44.182  51.274  1.00  0.00     0.136 C 
BRANCH   5   6
HETATM    6  C   UNL     1      25.002  43.141  51.296  1.00  0.00     0.248 C 
BRANCH   6   7
HETATM    7  N   UNL     1      25.494  41.749  51.075  1.00  0.00    -0.078 N 
HETATM    8  H   UNL     1      26.327  41.595  51.677  1.00  0.00     0.274 HD
HETATM    9  H   UNL     1      24.792  41.040  51.322  1.00  0.00     0.274 HD
HETATM   10  H   UNL     1      25.789  41.589  50.105  1.00  0.00     0.274 HD
ENDBRANCH   6   7
ENDBRANCH   5   6
BRANCH   5  11
HETATM   11  C   UNL     1      25.666  45.499  50.681  1.00  0.00    -0.043 A 
HETATM   12  C   UNL     1      24.349  45.583  50.197  1.00  0.00     0.008 A 
HETATM   13  C   UNL     1      23.858  46.779  49.675  1.00  0.00     0.001 A 
HETATM   14  C   UNL     1      24.672  47.906  49.628  1.00  0.00     0.000 A 
HETATM   15  C   UNL     1      25.980  47.839  50.104  1.00  0.00     0.001 A 
HETATM   16  C   UNL     1      26.476  46.645  50.630  1.00  0.00     0.008 A 
ENDBRANCH   5  11
ENDBRANCH   1   5
BRANCH   3  17
HETATM   17  C   UNL     1      28.951  44.184  53.836  1.00  0.00     0.035 A 
HETATM   18  C   UNL     1      29.821  43.094  53.944  1.00  0.00     0.030 A 
HETATM   19  C   UNL     1      30.652  42.956  55.060  1.00  0.00     0.016 A 
HETATM   20  C   UNL     1      30.606  43.897  56.099  1.00  0.00    -0.008 A 
HETATM   21  C   UNL     1      31.399  43.802  57.247  1.00  0.00     0.128 A 
HETATM   22  C   UNL     1      29.722  44.990  56.011  1.00  0.00    -0.021 A 
HETATM   23  N   UNL     1      31.365  44.680  58.274  1.00  0.00    -0.272 NA
HETATM   24  C   UNL     1      30.502  45.709  58.164  1.00  0.00     0.117 A 
HETATM   25  C   UNL     1      29.675  45.906  57.069  1.00  0.00     0.031 A 
HETATM   26  C   UNL     1      28.907  45.126  54.870  1.00  0.00     0.042 A 
ENDBRANCH   3  17
TORSDOF 5
ENDMDL
MODEL 5
REMARK VINA RESULT:      -8.1      2.304      7.535
REMARK  5 active torsions:
REMARK  status: ('A' for Active; 'I' for Inactive)
REMARK    1  A    between atoms: N_1  and  C_5 
REMARK    2  A    between atoms: C_5  and  C_6 
REMARK    3  A    between atoms: C_6  and  C_7 
REMARK    4  A    between atoms: C_6  and  C_20 
REMARK       I    between atoms: C_7  and  N_9 
REMARK    5  A    between atoms: N_9  and  C_10 
ROOT
HETATM    1  C   UNL     1      26.546  44.258  52.666  1.00  0.00     0.232 C 
HETATM    2  O   UNL     1      25.707  44.051  53.544  1.00  0.00    -0.272 OA
HETATM    3  N   UNL     1      27.846  44.679  52.851  1.00  0.00    -0.327 N 
HETATM    4  H   UNL     1      28.338  45.056  52.045  1.00  0.00     0.169 HD
ENDROOT
BRANCH   1   5
HETATM    5  C   UNL     1      26.143  44.106  51.202  1.00  0.00     0.136 C 
BRANCH   5   6
HETATM    6  C   UNL     1      25.285  42.833  51.037  1.00  0.00     0.248 C 
BRANCH   6   7
HETATM    7  N   UNL     1      26.015  41.595  51.444  1.00  0.00    -0.078 N 
HETATM    8  H   UNL     1      26.854  41.495  50.840  1.00  0.00     0.274 HD
HETATM    9  H   UNL     1      26.333  41.630  52.421  1.00  0.00     0.274 HD
HETATM   10  H   UNL     1      25.448  40.749  51.318  1.00  0.00     0.274 HD
ENDBRANCH   6   7
ENDBRANCH   5   6
BRANCH   5  11
HETATM   11  C   UNL     1      25.438  45.317  50.612  1.00  0.00    -0.043 A 
HETATM   12  C   UNL     1      26.074  46.569  50.680  1.00  0.00     0.008 A 
HETATM   13  C   UNL     1      25.480  47.701  50.123  1.00  0.00     0.001 A 
HETATM   14  C   UNL     1      24.244  47.601  49.493  1.00  0.00     0.000 A 
HETATM   15  C   UNL     1      23.600  46.368  49.418  1.00  0.00     0.001 A 
HETATM   16  C   UNL     1      24.191  45.231  49.970  1.00  0.00     0.008 A 
ENDBRANCH   5  11
ENDBRANCH   1   5
BRANCH   3  17
HETATM   17  C   UNL     1      28.537  44.775  54.078  1.00  0.00     0.035 A 
HETATM   18  C   UNL     1      28.248  45.874  54.892  1.00  0.00     0.030 A 
HETATM   19  C   UNL     1      28.909  46.049  56.112  1.00  0.00     0.016 A 
HETATM   20  C   UNL     1      29.890  45.135  56.524  1.00  0.00    -0.008 A 
HETATM   21  C   UNL     1      30.597  45.268  57.723  1.00  0.00     0.128 A 
HETATM   22  C   UNL     1      30.202  44.032  55.706  1.00  0.00    -0.021 A 
HETATM   23  N   UNL     1      31.560  44.417  58.140  1.00  0.00    -0.272 NA
HETATM   24  C   UNL     1      31.843  43.378  57.331  1.00  0.00     0.117 A 
HETATM   25  C   UNL     1      31.200  43.143  56.124  1.00  0.00     0.031 A 
HETATM   26  C   UNL     1      29.512  43.860  54.490  1.00  0.00     0.042 A 
ENDBRANCH   3  17
TORSDOF 5
ENDMDL
MODEL 6
REMARK VINA RESULT:      -8.1      1.744      2.692
REMARK  5 active torsions:
REMARK  status: ('A' for Active; 'I' for Inactive)
REMARK    1  A    between atoms: N_1  and  C_5 
REMARK    2  A    between atoms: C_5  and  C_6 
REMARK    3  A    between atoms: C_6  and  C_7 
REMARK    4  A    between atoms: C_6  and  C_20 
REMARK       I    between atoms: C_7  and  N_9 
REMARK    5  A    between atoms: N_9  and  C_10 
ROOT
HETATM    1  C   UNL     1      27.436  43.804  52.557  1.00  0.00     0.232 C 
HETATM    2  O   UNL     1      28.125  43.768  51.535  1.00  0.00    -0.272 OA
HETATM    3  N   UNL     1      26.297  44.555  52.756  1.00  0.00    -0.327 N 
HETATM    4  H   UNL     1      25.984  44.690  53.714  1.00  0.00     0.169 HD
ENDROOT
BRANCH   1   5
HETATM    5  C   UNL     1      27.875  43.002  53.778  1.00  0.00     0.136 C 
BRANCH   5   6
HETATM    6  C   UNL     1      28.360  41.607  53.326  1.00  0.00     0.248 C 
BRANCH   6   7
HETATM    7  N   UNL     1      27.298  40.834  52.617  1.00  0.00    -0.078 N 
HETATM    8  H   UNL     1      26.416  40.910  53.163  1.00  0.00     0.274 HD
HETATM    9  H   UNL     1      27.114  41.194  51.672  1.00  0.00     0.274 HD
HETATM   10  H   UNL     1      27.524  39.835  52.545  1.00  0.00     0.274 HD
ENDBRANCH   6   7
ENDBRANCH   5   6
BRANCH   5  11
HETATM   11  C   UNL     1      28.922  43.688  54.642  1.00  0.00    -0.043 A 
HETATM   12  C   UNL     1      28.654  44.979  55.129  1.00  0.00     0.008 A 
HETATM   13  C   UNL     1      29.570  45.634  55.952  1.00  0.00     0.001 A 
HETATM   14  C   UNL     1      30.764  45.011  56.300  1.00  0.00     0.000 A 
HETATM   15  C   UNL     1      31.045  43.732  55.825  1.00  0.00     0.001 A 
HETATM   16  C   UNL     1      30.130  43.070  55.003  1.00  0.00     0.008 A 
ENDBRANCH   5  11
ENDBRANCH   1   5
BRANCH   3  17
HETATM   17  C   UNL     1      25.582  45.283  51.780  1.00  0.00     0.035 A 
HETATM   18  C   UNL     1      25.781  46.666  51.738  1.00  0.00     0.030 A 
HETATM   19  C   UNL     1      25.091  47.456  50.814  1.00  0.00     0.016 A 
HETATM   20  C   UNL     1      24.169  46.873  49.932  1.00  0.00    -0.008 A 
HETATM   21  C   UNL     1      23.436  47.614  48.999  1.00  0.00     0.128 A 
HETATM   22  C   UNL     1      23.947  45.483  49.974  1.00  0.00    -0.021 A 
HETATM   23  N   UNL     1      22.528  47.087  48.149  1.00  0.00    -0.272 NA
HETATM   24  C   UNL     1      22.330  45.755  48.222  1.00  0.00     0.117 A 
HETATM   25  C   UNL     1      23.006  44.923  49.101  1.00  0.00     0.031 A 
HETATM   26  C   UNL     1      24.667  44.699  50.898  1.00  0.00     0.042 A 
ENDBRANCH   3  17
TORSDOF 5
ENDMDL
MODEL 7
REMARK VINA RESULT:      -7.9      2.822      7.632
REMARK  5 active torsions:
REMARK  status: ('A' for Active; 'I' for Inactive)
REMARK    1  A    between atoms: N_1  and  C_5 
REMARK    2  A    between atoms: C_5  and  C_6 
REMARK    3  A    between atoms: C_6  and  C_7 
REMARK    4  A    between atoms: C_6  and  C_20 
REMARK       I    between atoms: C_7  and  N_9 
REMARK    5  A    between atoms: N_9  and  C_10 
ROOT
HETATM    1  C   UNL     1      26.224  44.403  53.341  1.00  0.00     0.232 C 
HETATM    2  O   UNL     1      25.672  43.926  54.334  1.00  0.00    -0.272 OA
HETATM    3  N   UNL     1      27.548  44.776  53.234  1.00  0.00    -0.327 N 
HETATM    4  H   UNL     1      27.804  45.387  52.463  1.00  0.00     0.169 HD
ENDROOT
BRANCH   1   5
HETATM    5  C   UNL     1      25.394  44.689  52.093  1.00  0.00     0.136 C 
BRANCH   5   6
HETATM    6  C   UNL     1      25.971  45.923  51.366  1.00  0.00     0.248 C 
BRANCH   6   7
HETATM    7  N   UNL     1      24.993  47.047  51.284  1.00  0.00    -0.078 N 
HETATM    8  H   UNL     1      24.719  47.316  52.249  1.00  0.00     0.274 HD
HETATM    9  H   UNL     1      25.387  47.879  50.826  1.00  0.00     0.274 HD
HETATM   10  H   UNL     1      24.134  46.782  50.788  1.00  0.00     0.274 HD
ENDBRANCH   6   7
ENDBRANCH   5   6
BRANCH   5  11
HETATM   11  C   UNL     1      25.259  43.511  51.141  1.00  0.00    -0.043 A 
HETATM   12  C   UNL     1      26.230  42.495  51.183  1.00  0.00     0.008 A 
HETATM   13  C   UNL     1      26.129  41.380  50.352  1.00  0.00     0.001 A 
HETATM   14  C   UNL     1      25.060  41.263  49.468  1.00  0.00     0.000 A 
HETATM   15  C   UNL     1      24.091  42.261  49.415  1.00  0.00     0.001 A 
HETATM   16  C   UNL     1      24.184  43.378  50.246  1.00  0.00     0.008 A 
ENDBRANCH   5  11
ENDBRANCH   1   5
BRANCH   3  17
HETATM   17  C   UNL     1      28.577  44.514  54.164  1.00  0.00     0.035 A 
HETATM   18  C   UNL     1      29.409  43.420  53.907  1.00  0.00     0.030 A 
HETATM   19  C   UNL     1      30.436  43.084  54.794  1.00  0.00     0.016 A 
HETATM   20  C   UNL     1      30.630  43.826  55.968  1.00  0.00    -0.008 A 
HETATM   21  C   UNL     1      31.627  43.527  56.901  1.00  0.00     0.128 A 
HETATM   22  C   UNL     1      29.789  44.920  56.247  1.00  0.00    -0.021 A 
HETATM   23  N   UNL     1      31.828  44.209  58.050  1.00  0.00    -0.272 NA
HETATM   24  C   UNL     1      31.000  45.244  58.294  1.00  0.00     0.117 A 
HETATM   25  C   UNL     1      29.983  45.635  57.436  1.00  0.00     0.031 A 
HETATM   26  C   UNL     1      28.772  45.258  55.332  1.00  0.00     0.042 A 
ENDBRANCH   3  17
TORSDOF 5
ENDMDL
MODEL 8
REMARK VINA RESULT:      -7.7      2.877      7.265
REMARK  5 active torsions:
REMARK  status: ('A' for Active; 'I' for Inactive)
REMARK    1  A    between atoms: N_1  and  C_5 
REMARK    2  A    between atoms: C_5  and  C_6 
REMARK    3  A    between atoms: C_6  and  C_7 
REMARK    4  A    between atoms: C_6  and  C_20 
REMARK       I    between atoms: C_7  and  N_9 
REMARK    5  A    between atoms: N_9  and  C_10 
ROOT
HETATM    1  C   UNL     1      25.152  44.738  52.625  1.00  0.00     0.232 C 
HETATM    2  O   UNL     1      24.594  44.201  53.584  1.00  0.00    -0.272 OA
HETATM    3  N   UNL     1      26.395  45.337  52.625  1.00  0.00    -0.327 N 
HETATM    4  H   UNL     1      26.618  45.959  51.852  1.00  0.00     0.169 HD
ENDROOT
BRANCH   1   5
HETATM    5  C   UNL     1      24.416  44.832  51.292  1.00  0.00     0.136 C 
BRANCH   5   6
HETATM    6  C   UNL     1      24.946  46.046  50.499  1.00  0.00     0.248 C 
BRANCH   6   7
HETATM    7  N   UNL     1      24.130  47.276  50.724  1.00  0.00    -0.078 N 
HETATM    8  H   UNL     1      23.897  47.336  51.735  1.00  0.00     0.274 HD
HETATM    9  H   UNL     1      24.634  48.135  50.466  1.00  0.00     0.274 HD
HETATM   10  H   UNL     1      23.242  47.255  50.209  1.00  0.00     0.274 HD
ENDBRANCH   6   7
ENDBRANCH   5   6
BRANCH   5  11
HETATM   11  C   UNL     1      24.470  43.567  50.450  1.00  0.00    -0.043 A 
HETATM   12  C   UNL     1      25.609  42.747  50.537  1.00  0.00     0.008 A 
HETATM   13  C   UNL     1      25.689  41.561  49.808  1.00  0.00     0.001 A 
HETATM   14  C   UNL     1      24.636  41.176  48.984  1.00  0.00     0.000 A 
HETATM   15  C   UNL     1      23.501  41.978  48.886  1.00  0.00     0.001 A 
HETATM   16  C   UNL     1      23.414  43.166  49.615  1.00  0.00     0.008 A 
ENDBRANCH   5  11
ENDBRANCH   1   5
BRANCH   3  17
HETATM   17  C   UNL     1      27.355  45.291  53.659  1.00  0.00     0.035 A 
HETATM   18  C   UNL     1      27.424  46.391  54.519  1.00  0.00     0.030 A 
HETATM   19  C   UNL     1      28.365  46.429  55.552  1.00  0.00     0.016 A 
HETATM   20  C   UNL     1      29.271  45.372  55.724  1.00  0.00    -0.008 A 
HETATM   21  C   UNL     1      30.246  45.361  56.726  1.00  0.00     0.128 A 
HETATM   22  C   UNL     1      29.223  44.265  54.855  1.00  0.00    -0.021 A 
HETATM   23  N   UNL     1      31.145  44.369  56.908  1.00  0.00    -0.272 NA
HETATM   24  C   UNL     1      31.080  43.329  56.053  1.00  0.00     0.117 A 
HETATM   25  C   UNL     1      30.151  43.230  55.029  1.00  0.00     0.031 A 
HETATM   26  C   UNL     1      28.255  44.234  53.832  1.00  0.00     0.042 A 
ENDBRANCH   3  17
TORSDOF 5
ENDMDL
MODEL 9
REMARK VINA RESULT:      -7.5      4.332      6.103
REMARK  5 active torsions:
REMARK  status: ('A' for Active; 'I' for Inactive)
REMARK    1  A    between atoms: N_1  and  C_5 
REMARK    2  A    between atoms: C_5  and  C_6 
REMARK    3  A    between atoms: C_6  and  C_7 
REMARK    4  A    between atoms: C_6  and  C_20 
REMARK       I    between atoms: C_7  and  N_9 
REMARK    5  A    between atoms: N_9  and  C_10 
ROOT
HETATM    1  C   UNL     1      27.413  43.656  52.591  1.00  0.00     0.232 C 
HETATM    2  O   UNL     1      27.751  44.364  51.641  1.00  0.00    -0.272 OA
HETATM    3  N   UNL     1      26.997  42.342  52.534  1.00  0.00    -0.327 N 
HETATM    4  H   UNL     1      26.506  41.968  53.342  1.00  0.00     0.169 HD
ENDROOT
BRANCH   1   5
HETATM    5  C   UNL     1      27.375  44.260  53.992  1.00  0.00     0.136 C 
BRANCH   5   6
HETATM    6  C   UNL     1      26.290  43.546  54.827  1.00  0.00     0.248 C 
BRANCH   6   7
HETATM    7  N   UNL     1      24.925  44.102  54.587  1.00  0.00    -0.078 N 
HETATM    8  H   UNL     1      24.432  43.483  53.913  1.00  0.00     0.274 HD
HETATM    9  H   UNL     1      24.361  44.145  55.445  1.00  0.00     0.274 HD
HETATM   10  H   UNL     1      24.954  45.040  54.171  1.00  0.00     0.274 HD
ENDBRANCH   6   7
ENDBRANCH   5   6
BRANCH   5  11
HETATM   11  C   UNL     1      28.711  44.256  54.719  1.00  0.00    -0.043 A 
HETATM   12  C   UNL     1      29.085  45.396  55.450  1.00  0.00     0.008 A 
HETATM   13  C   UNL     1      30.285  45.425  56.159  1.00  0.00     0.001 A 
HETATM   14  C   UNL     1      31.129  44.319  56.148  1.00  0.00     0.000 A 
HETATM   15  C   UNL     1      30.773  43.181  55.427  1.00  0.00     0.001 A 
HETATM   16  C   UNL     1      29.571  43.145  54.718  1.00  0.00     0.008 A 
ENDBRANCH   5  11
ENDBRANCH   1   5
BRANCH   3  17
HETATM   17  C   UNL     1      27.053  41.487  51.412  1.00  0.00     0.035 A 
HETATM   18  C   UNL     1      28.217  40.729  51.242  1.00  0.00     0.030 A 
HETATM   19  C   UNL     1      28.356  39.877  50.143  1.00  0.00     0.016 A 
HETATM   20  C   UNL     1      27.338  39.789  49.181  1.00  0.00    -0.008 A 
HETATM   21  C   UNL     1      27.428  38.969  48.052  1.00  0.00     0.128 A 
HETATM   22  C   UNL     1      26.168  40.558  49.332  1.00  0.00    -0.021 A 
HETATM   23  N   UNL     1      26.476  38.875  47.098  1.00  0.00    -0.272 NA
HETATM   24  C   UNL     1      25.373  39.631  47.266  1.00  0.00     0.117 A 
HETATM   25  C   UNL     1      25.174  40.473  48.349  1.00  0.00     0.031 A 
HETATM   26  C   UNL     1      26.036  41.396  50.457  1.00  0.00     0.042 A 
ENDBRANCH   3  17
TORSDOF 5
ENDMDL
MODEL 10
REMARK VINA RESULT:      -7.3      3.778      7.492
REMARK  5 active torsions:
REMARK  status: ('A' for Active; 'I' for Inactive)
REMARK    1  A    between atoms: N_1  and  C_5 
REMARK    2  A    between atoms: C_5  and  C_6 
REMARK    3  A    between atoms: C_6  and  C_7 
REMARK    4  A    between atoms: C_6  and  C_20 
REMARK       I    between atoms: C_7  and  N_9 
REMARK    5  A    between atoms: N_9  and  C_10 
ROOT
HETATM    1  C   UNL     1      27.277  42.122  51.745  1.00  0.00     0.232 C 
HETATM    2  O   UNL     1      27.258  41.113  52.452  1.00  0.00    -0.272 OA
HETATM    3  N   UNL     1      27.814  43.349  52.074  1.00  0.00    -0.327 N 
HETATM    4  H   UNL     1      27.533  44.151  51.515  1.00  0.00     0.169 HD
ENDROOT
BRANCH   1   5
HETATM    5  C   UNL     1      26.599  42.086  50.378  1.00  0.00     0.136 C 
BRANCH   5   6
HETATM    6  C   UNL     1      26.823  43.434  49.660  1.00  0.00     0.248 C 
BRANCH   6   7
HETATM    7  N   UNL     1      25.610  43.896  48.921  1.00  0.00    -0.078 N 
HETATM    8  H   UNL     1      25.638  44.933  48.860  1.00  0.00     0.274 HD
HETATM    9  H   UNL     1      25.569  43.526  47.963  1.00  0.00     0.274 HD
HETATM   10  H   UNL     1      24.740  43.645  49.404  1.00  0.00     0.274 HD
ENDBRANCH   6   7
ENDBRANCH   5   6
BRANCH   5  11
HETATM   11  C   UNL     1      27.021  40.922  49.495  1.00  0.00    -0.043 A 
HETATM   12  C   UNL     1      26.023  40.145  48.880  1.00  0.00     0.008 A 
HETATM   13  C   UNL     1      26.364  39.090  48.035  1.00  0.00     0.001 A 
HETATM   14  C   UNL     1      27.701  38.793  47.793  1.00  0.00     0.000 A 
HETATM   15  C   UNL     1      28.701  39.553  48.395  1.00  0.00     0.001 A 
HETATM   16  C   UNL     1      28.367  40.613  49.240  1.00  0.00     0.008 A 
ENDBRANCH   5  11
ENDBRANCH   1   5
BRANCH   3  17
HETATM   17  C   UNL     1      28.613  43.648  53.199  1.00  0.00     0.035 A 
HETATM   18  C   UNL     1      29.773  42.888  53.380  1.00  0.00     0.030 A 
HETATM   19  C   UNL     1      30.603  43.110  54.483  1.00  0.00     0.016 A 
HETATM   20  C   UNL     1      30.269  44.083  55.437  1.00  0.00    -0.008 A 
HETATM   21  C   UNL     1      31.049  44.336  56.570  1.00  0.00     0.128 A 
HETATM   22  C   UNL     1      29.095  44.843  55.275  1.00  0.00    -0.021 A 
HETATM   23  N   UNL     1      30.746  45.251  57.517  1.00  0.00    -0.272 NA
HETATM   24  C   UNL     1      29.611  45.956  57.338  1.00  0.00     0.117 A 
HETATM   25  C   UNL     1      28.767  45.794  56.250  1.00  0.00     0.031 A 
HETATM   26  C   UNL     1      28.281  44.621  54.147  1.00  0.00     0.042 A 
ENDBRANCH   3  17
TORSDOF 5
ENDMDL
