MODEL 1
REMARK VINA RESULT:      -8.1      0.000      0.000
REMARK  4 active torsions:
REMARK  status: ('A' for Active; 'I' for Inactive)
REMARK    1  A    between atoms: C_6  and  C_7 
REMARK    2  A    between atoms: C_7  and  N_8 
REMARK    3  A    between atoms: N_8  and  C_9 
REMARK    4  A    between atoms: C_9  and  C_10 
ROOT
HETATM    1  C   UNL     1      26.129  43.934  54.466  1.00  0.00     0.327 C 
ENDROOT
BRANCH   1   2
HETATM    2  N   UNL     1      27.188  42.973  54.116  1.00  0.00     0.097 N 
HETATM    3  H   UNL     1      27.531  42.545  54.982  1.00  0.00     0.317 HD
BRANCH   2   4
HETATM    4  C   UNL     1      28.368  43.629  53.512  1.00  0.00     0.252 C 
HETATM    5  C   UNL     1      29.046  42.781  52.434  1.00  0.00     0.048 C 
BRANCH   4   6
HETATM    6  C   UNL     1      29.296  43.951  54.649  1.00  0.00     0.006 A 
HETATM    7  C   UNL     1      29.409  45.124  55.381  1.00  0.00     0.058 A 
HETATM    8  O   UNL     1      30.389  45.009  56.319  1.00  0.00    -0.320 OA
HETATM    9  C   UNL     1      28.704  46.423  55.359  1.00  0.00     0.077 C 
HETATM   10  C   UNL     1      30.911  43.759  56.211  1.00  0.00     0.050 A 
HETATM   11  C   UNL     1      31.994  43.411  57.153  1.00  0.00     0.076 C 
HETATM   12  C   UNL     1      30.279  43.072  55.201  1.00  0.00     0.044 A 
ENDBRANCH   4   6
ENDBRANCH   2   4
ENDBRANCH   1   2
BRANCH   1  13
HETATM   13  C   UNL     1      25.613  44.591  53.199  1.00  0.00     0.044 A 
HETATM   14  N   UNL     1      25.031  43.728  52.288  1.00  0.00    -0.338 N 
HETATM   15  H   UNL     1      24.972  42.736  52.519  1.00  0.00     0.168 HD
HETATM   16  C   UNL     1      24.531  44.181  51.167  1.00  0.00     0.158 A 
HETATM   17  N   UNL     1      24.566  45.461  50.864  1.00  0.00    -0.269 N 
HETATM   18  S   UNL     1      23.770  43.187  49.965  1.00  0.00    -0.064 SA
HETATM   19  C   UNL     1      25.126  46.446  51.704  1.00  0.00     0.255 A 
HETATM   20  C   UNL     1      23.985  45.738  49.642  1.00  0.00     0.109 A 
HETATM   21  O   UNL     1      25.139  47.622  51.394  1.00  0.00    -0.268 OA
HETATM   22  C   UNL     1      25.671  45.909  52.962  1.00  0.00     0.101 A 
HETATM   23  C   UNL     1      23.510  44.645  49.027  1.00  0.00     0.071 A 
ENDBRANCH   1  13
TORSDOF 4
ENDMDL
MODEL 2
REMARK VINA RESULT:      -7.5      2.494      3.256
REMARK  4 active torsions:
REMARK  status: ('A' for Active; 'I' for Inactive)
REMARK    1  A    between atoms: C_6  and  C_7 
REMARK    2  A    between atoms: C_7  and  N_8 
REMARK    3  A    between atoms: N_8  and  C_9 
REMARK    4  A    between atoms: C_9  and  C_10 
ROOT
HETATM    1  C   UNL     1      25.346  45.105  51.440  1.00  0.00     0.327 C 
ENDROOT
BRANCH   1   2
HETATM    2  N   UNL     1      26.613  45.017  52.183  1.00  0.00     0.097 N 
HETATM    3  H   UNL     1      27.288  44.504  51.606  1.00  0.00     0.317 HD
BRANCH   2   4
HETATM    4  C   UNL     1      26.483  44.228  53.427  1.00  0.00     0.252 C 
HETATM    5  C   UNL     1      25.239  44.582  54.242  1.00  0.00     0.048 C 
BRANCH   4   6
HETATM    6  C   UNL     1      27.752  44.454  54.201  1.00  0.00     0.006 A 
HETATM    7  C   UNL     1      28.236  45.626  54.765  1.00  0.00     0.058 A 
HETATM    8  O   UNL     1      29.436  45.404  55.370  1.00  0.00    -0.320 OA
HETATM    9  C   UNL     1      27.730  47.011  54.850  1.00  0.00     0.077 C 
HETATM   10  C   UNL     1      29.734  44.088  55.212  1.00  0.00     0.050 A 
HETATM   11  C   UNL     1      31.003  43.622  55.809  1.00  0.00     0.076 C 
HETATM   12  C   UNL     1      28.738  43.462  54.500  1.00  0.00     0.044 A 
ENDBRANCH   4   6
ENDBRANCH   2   4
ENDBRANCH   1   2
BRANCH   1  13
HETATM   13  C   UNL     1      25.339  46.380  50.614  1.00  0.00     0.044 A 
HETATM   14  N   UNL     1      24.089  46.800  50.198  1.00  0.00    -0.338 N 
HETATM   15  H   UNL     1      23.270  46.256  50.473  1.00  0.00     0.168 HD
HETATM   16  C   UNL     1      23.955  47.897  49.497  1.00  0.00     0.158 A 
HETATM   17  N   UNL     1      24.993  48.632  49.161  1.00  0.00    -0.269 N 
HETATM   18  S   UNL     1      22.434  48.518  48.937  1.00  0.00    -0.064 SA
HETATM   19  C   UNL     1      26.320  48.318  49.523  1.00  0.00     0.255 A 
HETATM   20  C   UNL     1      24.644  49.747  48.426  1.00  0.00     0.109 A 
HETATM   21  O   UNL     1      27.257  49.021  49.197  1.00  0.00    -0.268 OA
HETATM   22  C   UNL     1      26.439  47.086  50.320  1.00  0.00     0.101 A 
HETATM   23  C   UNL     1      23.323  49.844  48.213  1.00  0.00     0.071 A 
ENDBRANCH   1  13
TORSDOF 4
ENDMDL
MODEL 3
REMARK VINA RESULT:      -7.5      2.657      3.392
REMARK  4 active torsions:
REMARK  status: ('A' for Active; 'I' for Inactive)
REMARK    1  A    between atoms: C_6  and  C_7 
REMARK    2  A    between atoms: C_7  and  N_8 
REMARK    3  A    between atoms: N_8  and  C_9 
REMARK    4  A    between atoms: C_9  and  C_10 
ROOT
HETATM    1  C   UNL     1      25.791  44.636  51.170  1.00  0.00     0.327 C 
ENDROOT
BRANCH   1   2
HETATM    2  N   UNL     1      26.881  44.857  52.135  1.00  0.00     0.097 N 
HETATM    3  H   UNL     1      27.744  44.474  51.736  1.00  0.00     0.317 HD
BRANCH   2   4
HETATM    4  C   UNL     1      26.673  44.118  53.399  1.00  0.00     0.252 C 
HETATM    5  C   UNL     1      25.403  44.535  54.142  1.00  0.00     0.048 C 
BRANCH   4   6
HETATM    6  C   UNL     1      27.911  44.339  54.222  1.00  0.00     0.006 A 
HETATM    7  C   UNL     1      28.368  45.504  54.820  1.00  0.00     0.058 A 
HETATM    8  O   UNL     1      29.546  45.280  55.465  1.00  0.00    -0.320 OA
HETATM    9  C   UNL     1      27.853  46.887  54.905  1.00  0.00     0.077 C 
HETATM   10  C   UNL     1      29.856  43.967  55.300  1.00  0.00     0.050 A 
HETATM   11  C   UNL     1      31.105  43.498  55.937  1.00  0.00     0.076 C 
HETATM   12  C   UNL     1      28.890  43.347  54.544  1.00  0.00     0.044 A 
ENDBRANCH   4   6
ENDBRANCH   2   4
ENDBRANCH   1   2
BRANCH   1  13
HETATM   13  C   UNL     1      25.448  45.953  50.496  1.00  0.00     0.044 A 
HETATM   14  N   UNL     1      26.536  46.732  50.146  1.00  0.00    -0.338 N 
HETATM   15  H   UNL     1      27.475  46.382  50.343  1.00  0.00     0.168 HD
HETATM   16  C   UNL     1      26.366  47.879  49.541  1.00  0.00     0.158 A 
HETATM   17  N   UNL     1      25.167  48.333  49.248  1.00  0.00    -0.269 N 
HETATM   18  S   UNL     1      27.662  48.925  49.049  1.00  0.00    -0.064 SA
HETATM   19  C   UNL     1      23.976  47.638  49.545  1.00  0.00     0.255 A 
HETATM   20  C   UNL     1      25.200  49.557  48.608  1.00  0.00     0.109 A 
HETATM   21  O   UNL     1      22.883  48.086  49.258  1.00  0.00    -0.268 OA
HETATM   22  C   UNL     1      24.199  46.346  50.216  1.00  0.00     0.101 A 
HETATM   23  C   UNL     1      26.445  50.019  48.422  1.00  0.00     0.071 A 
ENDBRANCH   1  13
TORSDOF 4
ENDMDL
MODEL 4
REMARK VINA RESULT:      -7.3      6.167     11.046
REMARK  4 active torsions:
REMARK  status: ('A' for Active; 'I' for Inactive)
REMARK    1  A    between atoms: C_6  and  C_7 
REMARK    2  A    between atoms: C_7  and  N_8 
REMARK    3  A    between atoms: N_8  and  C_9 
REMARK    4  A    between atoms: C_9  and  C_10 
ROOT
HETATM    1  C   UNL     1      20.835  49.617  48.747  1.00  0.00     0.327 C 
ENDROOT
BRANCH   1   2
HETATM    2  N   UNL     1      20.215  48.721  49.738  1.00  0.00     0.097 N 
HETATM    3  H   UNL     1      19.730  47.972  49.232  1.00  0.00     0.317 HD
BRANCH   2   4
HETATM    4  C   UNL     1      19.169  49.398  50.533  1.00  0.00     0.252 C 
HETATM    5  C   UNL     1      18.654  48.552  51.699  1.00  0.00     0.048 C 
BRANCH   4   6
HETATM    6  C   UNL     1      18.076  49.760  49.567  1.00  0.00     0.006 A 
HETATM    7  C   UNL     1      17.567  51.011  49.250  1.00  0.00     0.058 A 
HETATM    8  O   UNL     1      16.567  50.900  48.333  1.00  0.00    -0.320 OA
HETATM    9  C   UNL     1      17.882  52.389  49.680  1.00  0.00     0.077 C 
HETATM   10  C   UNL     1      16.427  49.581  48.040  1.00  0.00     0.050 A 
HETATM   11  C   UNL     1      15.392  49.230  47.045  1.00  0.00     0.076 C 
HETATM   12  C   UNL     1      17.325  48.839  48.771  1.00  0.00     0.044 A 
ENDBRANCH   4   6
ENDBRANCH   2   4
ENDBRANCH   1   2
BRANCH   1  13
HETATM   13  C   UNL     1      22.340  49.424  48.772  1.00  0.00     0.044 A 
HETATM   14  N   UNL     1      22.791  48.452  49.648  1.00  0.00    -0.338 N 
HETATM   15  H   UNL     1      22.107  47.930  50.197  1.00  0.00     0.168 HD
HETATM   16  C   UNL     1      24.067  48.182  49.742  1.00  0.00     0.158 A 
HETATM   17  N   UNL     1      24.963  48.819  49.019  1.00  0.00    -0.269 N 
HETATM   18  S   UNL     1      24.734  46.976  50.798  1.00  0.00    -0.064 SA
HETATM   19  C   UNL     1      24.638  49.827  48.088  1.00  0.00     0.255 A 
HETATM   20  C   UNL     1      26.252  48.388  49.262  1.00  0.00     0.109 A 
HETATM   21  O   UNL     1      25.491  50.395  47.433  1.00  0.00    -0.268 OA
HETATM   22  C   UNL     1      23.194  50.103  47.994  1.00  0.00     0.101 A 
HETATM   23  C   UNL     1      26.315  47.412  50.180  1.00  0.00     0.071 A 
ENDBRANCH   1  13
TORSDOF 4
ENDMDL
MODEL 5
REMARK VINA RESULT:      -7.2      2.849      6.805
REMARK  4 active torsions:
REMARK  status: ('A' for Active; 'I' for Inactive)
REMARK    1  A    between atoms: C_6  and  C_7 
REMARK    2  A    between atoms: C_7  and  N_8 
REMARK    3  A    between atoms: N_8  and  C_9 
REMARK    4  A    between atoms: C_9  and  C_10 
ROOT
HETATM    1  C   UNL     1      25.961  44.451  51.991  1.00  0.00     0.327 C 
ENDROOT
BRANCH   1   2
HETATM    2  N   UNL     1      24.902  45.442  51.739  1.00  0.00     0.097 N 
HETATM    3  H   UNL     1      24.035  45.099  52.165  1.00  0.00     0.317 HD
BRANCH   2   4
HETATM    4  C   UNL     1      24.598  45.588  50.299  1.00  0.00     0.252 C 
HETATM    5  C   UNL     1      25.133  44.435  49.448  1.00  0.00     0.048 C 
BRANCH   4   6
HETATM    6  C   UNL     1      25.170  46.915  49.883  1.00  0.00     0.006 A 
HETATM    7  C   UNL     1      24.507  48.079  49.521  1.00  0.00     0.058 A 
HETATM    8  O   UNL     1      25.399  49.054  49.197  1.00  0.00    -0.320 OA
HETATM    9  C   UNL     1      23.084  48.465  49.428  1.00  0.00     0.077 C 
HETATM   10  C   UNL     1      26.645  48.537  49.356  1.00  0.00     0.050 A 
HETATM   11  C   UNL     1      27.778  49.439  49.067  1.00  0.00     0.076 C 
HETATM   12  C   UNL     1      26.560  47.228  49.772  1.00  0.00     0.044 A 
ENDBRANCH   4   6
ENDBRANCH   2   4
ENDBRANCH   1   2
BRANCH   1  13
HETATM   13  C   UNL     1      26.862  44.956  53.104  1.00  0.00     0.044 A 
HETATM   14  N   UNL     1      27.889  44.101  53.458  1.00  0.00    -0.338 N 
HETATM   15  H   UNL     1      27.987  43.216  52.958  1.00  0.00     0.168 HD
HETATM   16  C   UNL     1      28.743  44.436  54.391  1.00  0.00     0.158 A 
HETATM   17  N   UNL     1      28.656  45.586  55.025  1.00  0.00    -0.269 N 
HETATM   18  S   UNL     1      30.072  43.443  54.901  1.00  0.00    -0.064 SA
HETATM   19  C   UNL     1      27.660  46.549  54.759  1.00  0.00     0.255 A 
HETATM   20  C   UNL     1      29.649  45.753  55.969  1.00  0.00     0.109 A 
HETATM   21  O   UNL     1      27.610  47.603  55.362  1.00  0.00    -0.268 OA
HETATM   22  C   UNL     1      26.720  46.149  53.697  1.00  0.00     0.101 A 
HETATM   23  C   UNL     1      30.490  44.710  56.038  1.00  0.00     0.071 A 
ENDBRANCH   1  13
TORSDOF 4
ENDMDL
MODEL 6
REMARK VINA RESULT:      -7.0     13.265     14.542
REMARK  4 active torsions:
REMARK  status: ('A' for Active; 'I' for Inactive)
REMARK    1  A    between atoms: C_6  and  C_7 
REMARK    2  A    between atoms: C_7  and  N_8 
REMARK    3  A    between atoms: N_8  and  C_9 
REMARK    4  A    between atoms: C_9  and  C_10 
ROOT
HETATM    1  C   UNL     1      30.302  52.746  42.567  1.00  0.00     0.327 C 
ENDROOT
BRANCH   1   2
HETATM    2  N   UNL     1      31.734  52.479  42.359  1.00  0.00     0.097 N 
HETATM    3  H   UNL     1      31.855  52.095  41.416  1.00  0.00     0.317 HD
BRANCH   2   4
HETATM    4  C   UNL     1      32.252  51.438  43.274  1.00  0.00     0.252 C 
HETATM    5  C   UNL     1      32.496  51.949  44.695  1.00  0.00     0.048 C 
BRANCH   4   6
HETATM    6  C   UNL     1      33.506  50.908  42.638  1.00  0.00     0.006 A 
HETATM    7  C   UNL     1      33.664  49.826  41.784  1.00  0.00     0.058 A 
HETATM    8  O   UNL     1      34.974  49.673  41.445  1.00  0.00    -0.320 OA
HETATM    9  C   UNL     1      32.736  48.846  41.182  1.00  0.00     0.077 C 
HETATM   10  C   UNL     1      35.673  50.659  42.065  1.00  0.00     0.050 A 
HETATM   11  C   UNL     1      37.130  50.689  41.823  1.00  0.00     0.076 C 
HETATM   12  C   UNL     1      34.822  51.441  42.811  1.00  0.00     0.044 A 
ENDBRANCH   4   6
ENDBRANCH   2   4
ENDBRANCH   1   2
BRANCH   1  13
HETATM   13  C   UNL     1      29.535  52.356  41.315  1.00  0.00     0.044 A 
HETATM   14  N   UNL     1      28.818  51.177  41.412  1.00  0.00    -0.338 N 
HETATM   15  H   UNL     1      28.834  50.663  42.294  1.00  0.00     0.168 HD
HETATM   16  C   UNL     1      28.102  50.749  40.404  1.00  0.00     0.158 A 
HETATM   17  N   UNL     1      28.040  51.414  39.270  1.00  0.00    -0.269 N 
HETATM   18  S   UNL     1      27.158  49.293  40.426  1.00  0.00    -0.064 SA
HETATM   19  C   UNL     1      28.720  52.628  39.041  1.00  0.00     0.255 A 
HETATM   20  C   UNL     1      27.232  50.801  38.334  1.00  0.00     0.109 A 
HETATM   21  O   UNL     1      28.639  53.218  37.981  1.00  0.00    -0.268 OA
HETATM   22  C   UNL     1      29.508  53.091  40.196  1.00  0.00     0.101 A 
HETATM   23  C   UNL     1      26.682  49.661  38.780  1.00  0.00     0.071 A 
ENDBRANCH   1  13
TORSDOF 4
ENDMDL
MODEL 7
REMARK VINA RESULT:      -6.9      3.714      6.260
REMARK  4 active torsions:
REMARK  status: ('A' for Active; 'I' for Inactive)
REMARK    1  A    between atoms: C_6  and  C_7 
REMARK    2  A    between atoms: C_7  and  N_8 
REMARK    3  A    between atoms: N_8  and  C_9 
REMARK    4  A    between atoms: C_9  and  C_10 
ROOT
HETATM    1  C   UNL     1      27.630  42.288  52.715  1.00  0.00     0.327 C 
ENDROOT
BRANCH   1   2
HETATM    2  N   UNL     1      26.374  43.050  52.628  1.00  0.00     0.097 N 
HETATM    3  H   UNL     1      26.327  43.483  51.699  1.00  0.00     0.317 HD
BRANCH   2   4
HETATM    4  C   UNL     1      26.330  44.176  53.586  1.00  0.00     0.252 C 
HETATM    5  C   UNL     1      25.455  43.895  54.809  1.00  0.00     0.048 C 
BRANCH   4   6
HETATM    6  C   UNL     1      25.851  45.369  52.808  1.00  0.00     0.006 A 
HETATM    7  C   UNL     1      25.846  46.708  53.173  1.00  0.00     0.058 A 
HETATM    8  O   UNL     1      25.310  47.471  52.182  1.00  0.00    -0.320 OA
HETATM    9  C   UNL     1      26.293  47.448  54.371  1.00  0.00     0.077 C 
HETATM   10  C   UNL     1      24.975  46.638  51.162  1.00  0.00     0.050 A 
HETATM   11  C   UNL     1      24.381  47.265  49.964  1.00  0.00     0.076 C 
HETATM   12  C   UNL     1      25.283  45.340  51.496  1.00  0.00     0.044 A 
ENDBRANCH   4   6
ENDBRANCH   2   4
ENDBRANCH   1   2
BRANCH   1  13
HETATM   13  C   UNL     1      27.864  41.559  51.404  1.00  0.00     0.044 A 
HETATM   14  N   UNL     1      28.518  40.345  51.518  1.00  0.00    -0.338 N 
HETATM   15  H   UNL     1      28.783  40.015  52.447  1.00  0.00     0.168 HD
HETATM   16  C   UNL     1      28.758  39.616  50.459  1.00  0.00     0.158 A 
HETATM   17  N   UNL     1      28.394  40.007  49.256  1.00  0.00    -0.269 N 
HETATM   18  S   UNL     1      29.558  38.076  50.494  1.00  0.00    -0.064 SA
HETATM   19  C   UNL     1      27.720  41.219  49.001  1.00  0.00     0.255 A 
HETATM   20  C   UNL     1      28.734  39.099  48.273  1.00  0.00     0.109 A 
HETATM   21  O   UNL     1      27.396  41.549  47.876  1.00  0.00    -0.268 OA
HETATM   22  C   UNL     1      27.453  42.013  50.213  1.00  0.00     0.101 A 
HETATM   23  C   UNL     1      29.360  38.014  48.753  1.00  0.00     0.071 A 
ENDBRANCH   1  13
TORSDOF 4
ENDMDL
MODEL 8
REMARK VINA RESULT:      -6.9      3.320      4.758
REMARK  4 active torsions:
REMARK  status: ('A' for Active; 'I' for Inactive)
REMARK    1  A    between atoms: C_6  and  C_7 
REMARK    2  A    between atoms: C_7  and  N_8 
REMARK    3  A    between atoms: N_8  and  C_9 
REMARK    4  A    between atoms: C_9  and  C_10 
ROOT
HETATM    1  C   UNL     1      26.070  46.564  51.267  1.00  0.00     0.327 C 
ENDROOT
BRANCH   1   2
HETATM    2  N   UNL     1      25.993  45.221  50.671  1.00  0.00     0.097 N 
HETATM    3  H   UNL     1      25.219  45.213  49.998  1.00  0.00     0.317 HD
BRANCH   2   4
HETATM    4  C   UNL     1      25.656  44.180  51.666  1.00  0.00     0.252 C 
HETATM    5  C   UNL     1      25.076  44.748  52.962  1.00  0.00     0.048 C 
BRANCH   4   6
HETATM    6  C   UNL     1      26.920  43.401  51.902  1.00  0.00     0.006 A 
HETATM    7  C   UNL     1      27.247  42.118  51.488  1.00  0.00     0.058 A 
HETATM    8  O   UNL     1      28.491  41.778  51.927  1.00  0.00    -0.320 OA
HETATM    9  C   UNL     1      26.553  41.086  50.691  1.00  0.00     0.077 C 
HETATM   10  C   UNL     1      28.983  42.839  52.618  1.00  0.00     0.050 A 
HETATM   11  C   UNL     1      30.342  42.691  53.179  1.00  0.00     0.076 C 
HETATM   12  C   UNL     1      28.059  43.858  52.635  1.00  0.00     0.044 A 
ENDBRANCH   4   6
ENDBRANCH   2   4
ENDBRANCH   1   2
BRANCH   1  13
HETATM   13  C   UNL     1      25.602  47.589  50.250  1.00  0.00     0.044 A 
HETATM   14  N   UNL     1      24.230  47.685  50.106  1.00  0.00    -0.338 N 
HETATM   15  H   UNL     1      23.632  47.092  50.682  1.00  0.00     0.168 HD
HETATM   16  C   UNL     1      23.707  48.548  49.273  1.00  0.00     0.158 A 
HETATM   17  N   UNL     1      24.458  49.347  48.545  1.00  0.00    -0.269 N 
HETATM   18  S   UNL     1      22.002  48.758  49.026  1.00  0.00    -0.064 SA
HETATM   19  C   UNL     1      25.868  49.353  48.598  1.00  0.00     0.255 A 
HETATM   20  C   UNL     1      23.719  50.184  47.733  1.00  0.00     0.109 A 
HETATM   21  O   UNL     1      26.532  50.107  47.913  1.00  0.00    -0.268 OA
HETATM   22  C   UNL     1      26.428  48.380  49.551  1.00  0.00     0.101 A 
HETATM   23  C   UNL     1      22.396  50.006  47.860  1.00  0.00     0.071 A 
ENDBRANCH   1  13
TORSDOF 4
ENDMDL
MODEL 9
REMARK VINA RESULT:      -6.9      2.780      7.211
REMARK  4 active torsions:
REMARK  status: ('A' for Active; 'I' for Inactive)
REMARK    1  A    between atoms: C_6  and  C_7 
REMARK    2  A    between atoms: C_7  and  N_8 
REMARK    3  A    between atoms: N_8  and  C_9 
REMARK    4  A    between atoms: C_9  and  C_10 
ROOT
HETATM    1  C   UNL     1      25.148  44.604  51.939  1.00  0.00     0.327 C 
ENDROOT
BRANCH   1   2
HETATM    2  N   UNL     1      24.278  45.672  51.420  1.00  0.00     0.097 N 
HETATM    3  H   UNL     1      23.320  45.484  51.732  1.00  0.00     0.317 HD
BRANCH   2   4
HETATM    4  C   UNL     1      24.214  45.678  49.943  1.00  0.00     0.252 C 
HETATM    5  C   UNL     1      25.318  44.848  49.285  1.00  0.00     0.048 C 
BRANCH   4   6
HETATM    6  C   UNL     1      24.264  47.121  49.527  1.00  0.00     0.006 A 
HETATM    7  C   UNL     1      25.294  48.039  49.675  1.00  0.00     0.058 A 
HETATM    8  O   UNL     1      24.928  49.252  49.176  1.00  0.00    -0.320 OA
HETATM    9  C   UNL     1      26.659  47.971  50.236  1.00  0.00     0.077 C 
HETATM   10  C   UNL     1      23.665  49.128  48.690  1.00  0.00     0.050 A 
HETATM   11  C   UNL     1      23.069  50.335  48.083  1.00  0.00     0.076 C 
HETATM   12  C   UNL     1      23.211  47.844  48.883  1.00  0.00     0.044 A 
ENDBRANCH   4   6
ENDBRANCH   2   4
ENDBRANCH   1   2
BRANCH   1  13
HETATM   13  C   UNL     1      26.059  45.179  53.009  1.00  0.00     0.044 A 
HETATM   14  N   UNL     1      27.127  44.373  53.362  1.00  0.00    -0.338 N 
HETATM   15  H   UNL     1      27.244  43.476  52.889  1.00  0.00     0.168 HD
HETATM   16  C   UNL     1      27.993  44.771  54.259  1.00  0.00     0.158 A 
HETATM   17  N   UNL     1      27.880  45.937  54.857  1.00  0.00    -0.269 N 
HETATM   18  S   UNL     1      29.371  43.844  54.763  1.00  0.00    -0.064 SA
HETATM   19  C   UNL     1      26.842  46.854  54.588  1.00  0.00     0.255 A 
HETATM   20  C   UNL     1      28.892  46.172  55.766  1.00  0.00     0.109 A 
HETATM   21  O   UNL     1      26.769  47.926  55.157  1.00  0.00    -0.268 OA
HETATM   22  C   UNL     1      25.890  46.385  53.567  1.00  0.00     0.101 A 
HETATM   23  C   UNL     1      29.772  45.163  55.845  1.00  0.00     0.071 A 
ENDBRANCH   1  13
TORSDOF 4
ENDMDL
MODEL 10
REMARK VINA RESULT:      -6.9      1.768      2.579
REMARK  4 active torsions:
REMARK  status: ('A' for Active; 'I' for Inactive)
REMARK    1  A    between atoms: C_6  and  C_7 
REMARK    2  A    between atoms: C_7  and  N_8 
REMARK    3  A    between atoms: N_8  and  C_9 
REMARK    4  A    between atoms: C_9  and  C_10 
ROOT
HETATM    1  C   UNL     1      26.523  45.193  51.103  1.00  0.00     0.327 C 
ENDROOT
BRANCH   1   2
HETATM    2  N   UNL     1      26.578  45.606  52.515  1.00  0.00     0.097 N 
HETATM    3  H   UNL     1      27.480  46.067  52.678  1.00  0.00     0.317 HD
BRANCH   2   4
HETATM    4  C   UNL     1      26.556  44.453  53.440  1.00  0.00     0.252 C 
HETATM    5  C   UNL     1      25.305  44.406  54.319  1.00  0.00     0.048 C 
BRANCH   4   6
HETATM    6  C   UNL     1      27.818  44.544  54.253  1.00  0.00     0.006 A 
HETATM    7  C   UNL     1      28.312  45.614  54.985  1.00  0.00     0.058 A 
HETATM    8  O   UNL     1      29.499  45.288  55.565  1.00  0.00    -0.320 OA
HETATM    9  C   UNL     1      27.827  46.983  55.260  1.00  0.00     0.077 C 
HETATM   10  C   UNL     1      29.779  44.003  55.225  1.00  0.00     0.050 A 
HETATM   11  C   UNL     1      31.032  43.434  55.763  1.00  0.00     0.076 C 
HETATM   12  C   UNL     1      28.783  43.502  54.419  1.00  0.00     0.044 A 
ENDBRANCH   4   6
ENDBRANCH   2   4
ENDBRANCH   1   2
BRANCH   1  13
HETATM   13  C   UNL     1      25.392  45.934  50.411  1.00  0.00     0.044 A 
HETATM   14  N   UNL     1      24.476  45.126  49.762  1.00  0.00    -0.338 N 
HETATM   15  H   UNL     1      24.600  44.114  49.796  1.00  0.00     0.168 HD
HETATM   16  C   UNL     1      23.446  45.649  49.147  1.00  0.00     0.158 A 
HETATM   17  N   UNL     1      23.247  46.950  49.118  1.00  0.00    -0.269 N 
HETATM   18  S   UNL     1      22.234  44.727  48.314  1.00  0.00    -0.064 SA
HETATM   19  C   UNL     1      24.102  47.883  49.741  1.00  0.00     0.255 A 
HETATM   20  C   UNL     1      22.107  47.301  48.423  1.00  0.00     0.109 A 
HETATM   21  O   UNL     1      23.887  49.079  49.698  1.00  0.00    -0.268 OA
HETATM   22  C   UNL     1      25.245  47.265  50.435  1.00  0.00     0.101 A 
HETATM   23  C   UNL     1      21.446  46.244  47.928  1.00  0.00     0.071 A 
ENDBRANCH   1  13
TORSDOF 4
ENDMDL
