MODEL 1
REMARK VINA RESULT:      -8.6      0.000      0.000
REMARK  5 active torsions:
REMARK  status: ('A' for Active; 'I' for Inactive)
REMARK    1  A    between atoms: C_2  and  C_3 
REMARK    2  A    between atoms: C_3  and  O_4 
REMARK    3  A    between atoms: O_4  and  C_5 
REMARK    4  A    between atoms: C_8  and  C_9 
REMARK    5  A    between atoms: C_15  and  C_16 
ROOT
HETATM    1  C   UNL     1      26.043  44.426  53.125  1.00  0.00     0.066 C 
HETATM    2  C   UNL     1      26.375  44.768  51.717  1.00  0.00     0.028 A 
HETATM    3  C   UNL     1      26.399  46.059  51.254  1.00  0.00     0.133 A 
HETATM    4  N   UNL     1      26.788  46.012  49.954  1.00  0.00    -0.261 N 
HETATM    5  H   UNL     1      26.930  46.773  49.298  1.00  0.00     0.191 HD
HETATM    6  N   UNL     1      26.995  44.760  49.522  1.00  0.00    -0.172 NA
HETATM    7  C   UNL     1      26.739  43.976  50.586  1.00  0.00     0.098 A 
HETATM    8  N   UNL     1      26.110  47.137  52.051  1.00  0.00    -0.312 N 
HETATM    9  C   UNL     1      25.638  46.927  53.385  1.00  0.00     0.224 C 
HETATM   10  O   UNL     1      25.479  47.934  54.057  1.00  0.00    -0.273 OA
HETATM   11  C   UNL     1      25.240  45.536  53.811  1.00  0.00     0.117 C 
HETATM   12  H   UNL     1      26.237  48.095  51.745  1.00  0.00     0.170 HD
ENDROOT
BRANCH   1  13
HETATM   13  C   UNL     1      27.352  44.124  53.840  1.00  0.00    -0.049 A 
HETATM   14  C   UNL     1      27.950  42.853  53.850  1.00  0.00     0.010 A 
HETATM   15  C   UNL     1      29.204  42.660  54.435  1.00  0.00     0.037 A 
HETATM   16  C   UNL     1      29.894  43.729  54.998  1.00  0.00     0.069 A 
HETATM   17  C   UNL     1      29.295  44.984  55.049  1.00  0.00     0.037 A 
HETATM   18  C   UNL     1      28.037  45.180  54.470  1.00  0.00     0.010 A 
BRANCH  16  19
HETATM   19  O   UNL     1      31.134  43.439  55.493  1.00  0.00    -0.348 OA
BRANCH  19  20
HETATM   20  C   UNL     1      31.147  42.987  56.849  1.00  0.00     0.202 C 
BRANCH  20  21
HETATM   21  C   UNL     1      31.680  44.110  57.688  1.00  0.00    -0.011 C 
HETATM   22  C   UNL     1      30.920  45.013  58.322  1.00  0.00     0.009 C 
ENDBRANCH  20  21
ENDBRANCH  19  20
ENDBRANCH  16  19
ENDBRANCH   1  13
BRANCH   7  23
HETATM   23  C   UNL     1      26.878  42.524  50.486  1.00  0.00    -0.005 A 
HETATM   24  C   UNL     1      25.743  41.730  50.274  1.00  0.00     0.014 A 
HETATM   25  C   UNL     1      25.855  40.342  50.177  1.00  0.00     0.001 A 
HETATM   26  C   UNL     1      27.104  39.734  50.293  1.00  0.00     0.000 A 
HETATM   27  C   UNL     1      28.238  40.512  50.518  1.00  0.00     0.001 A 
HETATM   28  C   UNL     1      28.126  41.902  50.619  1.00  0.00     0.014 A 
ENDBRANCH   7  23
TORSDOF 5
ENDMDL
MODEL 2
REMARK VINA RESULT:      -8.1      3.081      6.337
REMARK  5 active torsions:
REMARK  status: ('A' for Active; 'I' for Inactive)
REMARK    1  A    between atoms: C_2  and  C_3 
REMARK    2  A    between atoms: C_3  and  O_4 
REMARK    3  A    between atoms: O_4  and  C_5 
REMARK    4  A    between atoms: C_8  and  C_9 
REMARK    5  A    between atoms: C_15  and  C_16 
ROOT
HETATM    1  C   UNL     1      25.126  43.239  51.457  1.00  0.00     0.066 C 
HETATM    2  C   UNL     1      26.169  42.345  50.888  1.00  0.00     0.028 A 
HETATM    3  C   UNL     1      25.993  41.650  49.719  1.00  0.00     0.133 A 
HETATM    4  N   UNL     1      27.150  40.984  49.470  1.00  0.00    -0.261 N 
HETATM    5  H   UNL     1      27.390  40.383  48.689  1.00  0.00     0.191 HD
HETATM    6  N   UNL     1      28.072  41.177  50.424  1.00  0.00    -0.172 NA
HETATM    7  C   UNL     1      27.490  42.004  51.312  1.00  0.00     0.098 A 
HETATM    8  N   UNL     1      24.837  41.717  48.985  1.00  0.00    -0.312 N 
HETATM    9  C   UNL     1      23.709  42.430  49.501  1.00  0.00     0.224 C 
HETATM   10  O   UNL     1      22.746  42.513  48.756  1.00  0.00    -0.273 OA
HETATM   11  C   UNL     1      23.728  42.890  50.938  1.00  0.00     0.117 C 
HETATM   12  H   UNL     1      24.745  41.298  48.067  1.00  0.00     0.170 HD
ENDROOT
BRANCH   1  13
HETATM   13  C   UNL     1      25.530  44.670  51.135  1.00  0.00    -0.049 A 
HETATM   14  C   UNL     1      26.132  45.048  49.923  1.00  0.00     0.010 A 
HETATM   15  C   UNL     1      26.386  46.392  49.641  1.00  0.00     0.037 A 
HETATM   16  C   UNL     1      26.025  47.385  50.547  1.00  0.00     0.069 A 
HETATM   17  C   UNL     1      25.479  47.028  51.777  1.00  0.00     0.037 A 
HETATM   18  C   UNL     1      25.229  45.682  52.065  1.00  0.00     0.010 A 
BRANCH  16  19
HETATM   19  O   UNL     1      26.268  48.669  50.148  1.00  0.00    -0.348 OA
BRANCH  19  20
HETATM   20  C   UNL     1      27.058  48.788  48.963  1.00  0.00     0.202 C 
BRANCH  20  21
HETATM   21  C   UNL     1      26.419  49.839  48.105  1.00  0.00    -0.011 C 
HETATM   22  C   UNL     1      25.099  50.034  47.999  1.00  0.00     0.009 C 
ENDBRANCH  20  21
ENDBRANCH  19  20
ENDBRANCH  16  19
ENDBRANCH   1  13
BRANCH   7  23
HETATM   23  C   UNL     1      28.220  42.447  52.498  1.00  0.00    -0.005 A 
HETATM   24  C   UNL     1      27.517  42.974  53.590  1.00  0.00     0.014 A 
HETATM   25  C   UNL     1      28.197  43.405  54.731  1.00  0.00     0.001 A 
HETATM   26  C   UNL     1      29.586  43.316  54.789  1.00  0.00     0.000 A 
HETATM   27  C   UNL     1      30.297  42.806  53.704  1.00  0.00     0.001 A 
HETATM   28  C   UNL     1      29.617  42.379  52.560  1.00  0.00     0.014 A 
ENDBRANCH   7  23
TORSDOF 5
ENDMDL
MODEL 3
REMARK VINA RESULT:      -8.0     13.016     14.869
REMARK  5 active torsions:
REMARK  status: ('A' for Active; 'I' for Inactive)
REMARK    1  A    between atoms: C_2  and  C_3 
REMARK    2  A    between atoms: C_3  and  O_4 
REMARK    3  A    between atoms: O_4  and  C_5 
REMARK    4  A    between atoms: C_8  and  C_9 
REMARK    5  A    between atoms: C_15  and  C_16 
ROOT
HETATM    1  C   UNL     1      29.974  48.492  38.929  1.00  0.00     0.066 C 
HETATM    2  C   UNL     1      28.815  48.784  39.812  1.00  0.00     0.028 A 
HETATM    3  C   UNL     1      28.137  47.805  40.493  1.00  0.00     0.133 A 
HETATM    4  N   UNL     1      27.183  48.420  41.238  1.00  0.00    -0.261 N 
HETATM    5  H   UNL     1      26.505  48.016  41.875  1.00  0.00     0.191 HD
HETATM    6  N   UNL     1      27.172  49.750  41.065  1.00  0.00    -0.172 NA
HETATM    7  C   UNL     1      28.161  49.997  40.187  1.00  0.00     0.098 A 
HETATM    8  N   UNL     1      28.469  46.477  40.406  1.00  0.00    -0.312 N 
HETATM    9  C   UNL     1      29.473  46.056  39.478  1.00  0.00     0.224 C 
HETATM   10  O   UNL     1      29.769  44.872  39.515  1.00  0.00    -0.273 OA
HETATM   11  C   UNL     1      29.977  47.037  38.449  1.00  0.00     0.117 C 
HETATM   12  H   UNL     1      28.046  45.767  40.992  1.00  0.00     0.170 HD
ENDROOT
BRANCH   1  13
HETATM   13  C   UNL     1      31.234  48.858  39.697  1.00  0.00    -0.049 A 
HETATM   14  C   UNL     1      31.858  50.113  39.605  1.00  0.00     0.010 A 
HETATM   15  C   UNL     1      32.953  50.427  40.413  1.00  0.00     0.037 A 
HETATM   16  C   UNL     1      33.433  49.509  41.342  1.00  0.00     0.069 A 
HETATM   17  C   UNL     1      32.866  48.240  41.410  1.00  0.00     0.037 A 
HETATM   18  C   UNL     1      31.773  47.920  40.598  1.00  0.00     0.010 A 
BRANCH  16  19
HETATM   19  O   UNL     1      34.472  49.938  42.118  1.00  0.00    -0.348 OA
BRANCH  19  20
HETATM   20  C   UNL     1      34.536  51.354  42.304  1.00  0.00     0.202 C 
BRANCH  20  21
HETATM   21  C   UNL     1      34.005  51.648  43.675  1.00  0.00    -0.011 C 
HETATM   22  C   UNL     1      32.705  51.736  43.984  1.00  0.00     0.009 C 
ENDBRANCH  20  21
ENDBRANCH  19  20
ENDBRANCH  16  19
ENDBRANCH   1  13
BRANCH   7  23
HETATM   23  C   UNL     1      28.454  51.367  39.769  1.00  0.00    -0.005 A 
HETATM   24  C   UNL     1      28.308  51.729  38.423  1.00  0.00     0.014 A 
HETATM   25  C   UNL     1      28.584  53.032  38.004  1.00  0.00     0.001 A 
HETATM   26  C   UNL     1      29.011  53.985  38.927  1.00  0.00     0.000 A 
HETATM   27  C   UNL     1      29.173  53.633  40.266  1.00  0.00     0.001 A 
HETATM   28  C   UNL     1      28.901  52.327  40.685  1.00  0.00     0.014 A 
ENDBRANCH   7  23
TORSDOF 5
ENDMDL
MODEL 4
REMARK VINA RESULT:      -7.9      7.541     10.446
REMARK  5 active torsions:
REMARK  status: ('A' for Active; 'I' for Inactive)
REMARK    1  A    between atoms: C_2  and  C_3 
REMARK    2  A    between atoms: C_3  and  O_4 
REMARK    3  A    between atoms: O_4  and  C_5 
REMARK    4  A    between atoms: C_8  and  C_9 
REMARK    5  A    between atoms: C_15  and  C_16 
ROOT
HETATM    1  C   UNL     1      20.314  47.319  46.982  1.00  0.00     0.066 C 
HETATM    2  C   UNL     1      19.065  47.236  47.783  1.00  0.00     0.028 A 
HETATM    3  C   UNL     1      18.419  46.051  48.028  1.00  0.00     0.133 A 
HETATM    4  N   UNL     1      17.357  46.331  48.827  1.00  0.00    -0.261 N 
HETATM    5  H   UNL     1      16.665  45.702  49.220  1.00  0.00     0.191 HD
HETATM    6  N   UNL     1      17.247  47.639  49.100  1.00  0.00    -0.172 NA
HETATM    7  C   UNL     1      18.281  48.218  48.462  1.00  0.00     0.098 A 
HETATM    8  N   UNL     1      18.869  44.849  47.547  1.00  0.00    -0.312 N 
HETATM    9  C   UNL     1      19.979  44.817  46.645  1.00  0.00     0.224 C 
HETATM   10  O   UNL     1      20.371  43.706  46.324  1.00  0.00    -0.273 OA
HETATM   11  C   UNL     1      20.482  46.111  46.055  1.00  0.00     0.117 C 
HETATM   12  H   UNL     1      18.461  43.962  47.819  1.00  0.00     0.170 HD
ENDROOT
BRANCH   1  13
HETATM   13  C   UNL     1      21.471  47.472  47.958  1.00  0.00    -0.049 A 
HETATM   14  C   UNL     1      22.229  46.389  48.433  1.00  0.00     0.010 A 
HETATM   15  C   UNL     1      23.344  46.600  49.246  1.00  0.00     0.037 A 
HETATM   16  C   UNL     1      23.739  47.892  49.583  1.00  0.00     0.069 A 
HETATM   17  C   UNL     1      22.970  48.975  49.171  1.00  0.00     0.037 A 
HETATM   18  C   UNL     1      21.848  48.767  48.361  1.00  0.00     0.010 A 
BRANCH  16  19
HETATM   19  O   UNL     1      24.874  47.987  50.338  1.00  0.00    -0.348 OA
BRANCH  19  20
HETATM   20  C   UNL     1      26.050  47.462  49.718  1.00  0.00     0.202 C 
BRANCH  20  21
HETATM   21  C   UNL     1      26.999  48.606  49.519  1.00  0.00    -0.011 C 
HETATM   22  C   UNL     1      26.857  49.558  48.588  1.00  0.00     0.009 C 
ENDBRANCH  20  21
ENDBRANCH  19  20
ENDBRANCH  16  19
ENDBRANCH   1  13
BRANCH   7  23
HETATM   23  C   UNL     1      18.490  49.662  48.551  1.00  0.00    -0.005 A 
HETATM   24  C   UNL     1      18.417  50.447  47.392  1.00  0.00     0.014 A 
HETATM   25  C   UNL     1      18.614  51.827  47.455  1.00  0.00     0.001 A 
HETATM   26  C   UNL     1      18.889  52.436  48.678  1.00  0.00     0.000 A 
HETATM   27  C   UNL     1      18.978  51.664  49.836  1.00  0.00     0.001 A 
HETATM   28  C   UNL     1      18.784  50.282  49.772  1.00  0.00     0.014 A 
ENDBRANCH   7  23
TORSDOF 5
ENDMDL
MODEL 5
REMARK VINA RESULT:      -7.8      3.127      6.969
REMARK  5 active torsions:
REMARK  status: ('A' for Active; 'I' for Inactive)
REMARK    1  A    between atoms: C_2  and  C_3 
REMARK    2  A    between atoms: C_3  and  O_4 
REMARK    3  A    between atoms: O_4  and  C_5 
REMARK    4  A    between atoms: C_8  and  C_9 
REMARK    5  A    between atoms: C_15  and  C_16 
ROOT
HETATM    1  C   UNL     1      26.715  43.048  52.451  1.00  0.00     0.066 C 
HETATM    2  C   UNL     1      28.161  43.012  52.791  1.00  0.00     0.028 A 
HETATM    3  C   UNL     1      29.036  42.127  52.213  1.00  0.00     0.133 A 
HETATM    4  N   UNL     1      30.271  42.404  52.706  1.00  0.00    -0.261 N 
HETATM    5  H   UNL     1      31.160  41.965  52.495  1.00  0.00     0.191 HD
HETATM    6  N   UNL     1      30.257  43.404  53.600  1.00  0.00    -0.172 NA
HETATM    7  C   UNL     1      28.970  43.789  53.675  1.00  0.00     0.098 A 
HETATM    8  N   UNL     1      28.644  41.199  51.283  1.00  0.00    -0.312 N 
HETATM    9  C   UNL     1      27.255  41.040  50.981  1.00  0.00     0.224 C 
HETATM   10  O   UNL     1      26.992  40.252  50.087  1.00  0.00    -0.273 OA
HETATM   11  C   UNL     1      26.232  41.722  51.855  1.00  0.00     0.117 C 
HETATM   12  H   UNL     1      29.303  40.623  50.773  1.00  0.00     0.170 HD
ENDROOT
BRANCH   1  13
HETATM   13  C   UNL     1      26.497  44.225  51.512  1.00  0.00    -0.049 A 
HETATM   14  C   UNL     1      25.391  45.087  51.598  1.00  0.00     0.010 A 
HETATM   15  C   UNL     1      25.298  46.212  50.776  1.00  0.00     0.037 A 
HETATM   16  C   UNL     1      26.311  46.512  49.870  1.00  0.00     0.069 A 
HETATM   17  C   UNL     1      27.387  45.641  49.729  1.00  0.00     0.037 A 
HETATM   18  C   UNL     1      27.482  44.510  50.548  1.00  0.00     0.010 A 
BRANCH  16  19
HETATM   19  O   UNL     1      26.145  47.664  49.154  1.00  0.00    -0.348 OA
BRANCH  19  20
HETATM   20  C   UNL     1      27.215  48.604  49.277  1.00  0.00     0.202 C 
BRANCH  20  21
HETATM   21  C   UNL     1      26.831  49.821  48.490  1.00  0.00    -0.011 C 
HETATM   22  C   UNL     1      25.623  50.029  47.952  1.00  0.00     0.009 C 
ENDBRANCH  20  21
ENDBRANCH  19  20
ENDBRANCH  16  19
ENDBRANCH   1  13
BRANCH   7  23
HETATM   23  C   UNL     1      28.577  44.886  54.557  1.00  0.00    -0.005 A 
HETATM   24  C   UNL     1      27.600  45.799  54.138  1.00  0.00     0.014 A 
HETATM   25  C   UNL     1      27.212  46.854  54.966  1.00  0.00     0.001 A 
HETATM   26  C   UNL     1      27.800  47.009  56.219  1.00  0.00     0.000 A 
HETATM   27  C   UNL     1      28.783  46.115  56.642  1.00  0.00     0.001 A 
HETATM   28  C   UNL     1      29.174  45.061  55.812  1.00  0.00     0.014 A 
ENDBRANCH   7  23
TORSDOF 5
ENDMDL
MODEL 6
REMARK VINA RESULT:      -7.8      2.516      4.828
REMARK  5 active torsions:
REMARK  status: ('A' for Active; 'I' for Inactive)
REMARK    1  A    between atoms: C_2  and  C_3 
REMARK    2  A    between atoms: C_3  and  O_4 
REMARK    3  A    between atoms: O_4  and  C_5 
REMARK    4  A    between atoms: C_8  and  C_9 
REMARK    5  A    between atoms: C_15  and  C_16 
ROOT
HETATM    1  C   UNL     1      27.569  42.274  50.141  1.00  0.00     0.066 C 
HETATM    2  C   UNL     1      26.091  42.428  50.202  1.00  0.00     0.028 A 
HETATM    3  C   UNL     1      25.230  41.366  50.091  1.00  0.00     0.133 A 
HETATM    4  N   UNL     1      23.972  41.852  50.243  1.00  0.00    -0.261 N 
HETATM    5  H   UNL     1      23.086  41.357  50.236  1.00  0.00     0.191 HD
HETATM    6  N   UNL     1      23.950  43.181  50.419  1.00  0.00    -0.172 NA
HETATM    7  C   UNL     1      25.241  43.560  50.389  1.00  0.00     0.098 A 
HETATM    8  N   UNL     1      25.663  40.078  49.907  1.00  0.00    -0.312 N 
HETATM    9  C   UNL     1      27.053  39.820  49.690  1.00  0.00     0.224 C 
HETATM   10  O   UNL     1      27.371  38.644  49.614  1.00  0.00    -0.273 OA
HETATM   11  C   UNL     1      27.981  40.981  49.430  1.00  0.00     0.117 C 
HETATM   12  H   UNL     1      25.039  39.280  49.939  1.00  0.00     0.170 HD
ENDROOT
BRANCH   1  13
HETATM   13  C   UNL     1      28.092  42.349  51.567  1.00  0.00    -0.049 A 
HETATM   14  C   UNL     1      28.199  41.231  52.411  1.00  0.00     0.010 A 
HETATM   15  C   UNL     1      28.783  41.343  53.674  1.00  0.00     0.037 A 
HETATM   16  C   UNL     1      29.293  42.562  54.112  1.00  0.00     0.069 A 
HETATM   17  C   UNL     1      29.148  43.694  53.315  1.00  0.00     0.037 A 
HETATM   18  C   UNL     1      28.557  43.587  52.052  1.00  0.00     0.010 A 
BRANCH  16  19
HETATM   19  O   UNL     1      29.893  42.548  55.339  1.00  0.00    -0.348 OA
BRANCH  19  20
HETATM   20  C   UNL     1      30.747  43.664  55.601  1.00  0.00     0.202 C 
BRANCH  20  21
HETATM   21  C   UNL     1      31.390  43.430  56.935  1.00  0.00    -0.011 C 
HETATM   22  C   UNL     1      31.409  44.320  57.936  1.00  0.00     0.009 C 
ENDBRANCH  20  21
ENDBRANCH  19  20
ENDBRANCH  16  19
ENDBRANCH   1  13
BRANCH   7  23
HETATM   23  C   UNL     1      25.604  44.965  50.565  1.00  0.00    -0.005 A 
HETATM   24  C   UNL     1      25.296  45.617  51.767  1.00  0.00     0.014 A 
HETATM   25  C   UNL     1      25.633  46.959  51.954  1.00  0.00     0.001 A 
HETATM   26  C   UNL     1      26.279  47.662  50.939  1.00  0.00     0.000 A 
HETATM   27  C   UNL     1      26.579  47.028  49.734  1.00  0.00     0.001 A 
HETATM   28  C   UNL     1      26.238  45.686  49.546  1.00  0.00     0.014 A 
ENDBRANCH   7  23
TORSDOF 5
ENDMDL
MODEL 7
REMARK VINA RESULT:      -7.7      2.561      5.848
REMARK  5 active torsions:
REMARK  status: ('A' for Active; 'I' for Inactive)
REMARK    1  A    between atoms: C_2  and  C_3 
REMARK    2  A    between atoms: C_3  and  O_4 
REMARK    3  A    between atoms: O_4  and  C_5 
REMARK    4  A    between atoms: C_8  and  C_9 
REMARK    5  A    between atoms: C_15  and  C_16 
ROOT
HETATM    1  C   UNL     1      27.030  44.343  50.945  1.00  0.00     0.066 C 
HETATM    2  C   UNL     1      26.350  44.651  52.230  1.00  0.00     0.028 A 
HETATM    3  C   UNL     1      25.062  45.119  52.293  1.00  0.00     0.133 A 
HETATM    4  N   UNL     1      24.742  45.239  53.607  1.00  0.00    -0.261 N 
HETATM    5  H   UNL     1      23.872  45.542  54.032  1.00  0.00     0.191 HD
HETATM    6  N   UNL     1      25.757  44.904  54.417  1.00  0.00    -0.172 NA
HETATM    7  C   UNL     1      26.760  44.547  53.594  1.00  0.00     0.098 A 
HETATM    8  N   UNL     1      24.302  45.349  51.174  1.00  0.00    -0.312 N 
HETATM    9  C   UNL     1      24.894  45.228  49.878  1.00  0.00     0.224 C 
HETATM   10  O   UNL     1      24.135  45.369  48.932  1.00  0.00    -0.273 OA
HETATM   11  C   UNL     1      26.391  45.083  49.766  1.00  0.00     0.117 C 
HETATM   12  H   UNL     1      23.318  45.585  51.220  1.00  0.00     0.170 HD
ENDROOT
BRANCH   1  13
HETATM   13  C   UNL     1      27.008  42.832  50.769  1.00  0.00    -0.049 A 
HETATM   14  C   UNL     1      25.822  42.084  50.677  1.00  0.00     0.010 A 
HETATM   15  C   UNL     1      25.862  40.713  50.412  1.00  0.00     0.037 A 
HETATM   16  C   UNL     1      27.079  40.067  50.211  1.00  0.00     0.069 A 
HETATM   17  C   UNL     1      28.267  40.778  50.353  1.00  0.00     0.037 A 
HETATM   18  C   UNL     1      28.230  42.150  50.624  1.00  0.00     0.010 A 
BRANCH  16  19
HETATM   19  O   UNL     1      27.001  38.738  49.904  1.00  0.00    -0.348 OA
BRANCH  19  20
HETATM   20  C   UNL     1      28.168  38.199  49.279  1.00  0.00     0.202 C 
BRANCH  20  21
HETATM   21  C   UNL     1      28.800  37.253  50.255  1.00  0.00    -0.011 C 
HETATM   22  C   UNL     1      29.899  37.522  50.972  1.00  0.00     0.009 C 
ENDBRANCH  20  21
ENDBRANCH  19  20
ENDBRANCH  16  19
ENDBRANCH   1  13
BRANCH   7  23
HETATM   23  C   UNL     1      28.041  44.101  54.139  1.00  0.00    -0.005 A 
HETATM   24  C   UNL     1      28.833  44.995  54.871  1.00  0.00     0.014 A 
HETATM   25  C   UNL     1      30.060  44.589  55.399  1.00  0.00     0.001 A 
HETATM   26  C   UNL     1      30.508  43.285  55.196  1.00  0.00     0.000 A 
HETATM   27  C   UNL     1      29.735  42.390  54.457  1.00  0.00     0.001 A 
HETATM   28  C   UNL     1      28.509  42.798  53.926  1.00  0.00     0.014 A 
ENDBRANCH   7  23
TORSDOF 5
ENDMDL
MODEL 8
REMARK VINA RESULT:      -7.7      3.082      6.823
REMARK  5 active torsions:
REMARK  status: ('A' for Active; 'I' for Inactive)
REMARK    1  A    between atoms: C_2  and  C_3 
REMARK    2  A    between atoms: C_3  and  O_4 
REMARK    3  A    between atoms: O_4  and  C_5 
REMARK    4  A    between atoms: C_8  and  C_9 
REMARK    5  A    between atoms: C_15  and  C_16 
ROOT
HETATM    1  C   UNL     1      25.370  44.359  51.924  1.00  0.00     0.066 C 
HETATM    2  C   UNL     1      26.464  43.369  52.102  1.00  0.00     0.028 A 
HETATM    3  C   UNL     1      26.532  42.203  51.384  1.00  0.00     0.133 A 
HETATM    4  N   UNL     1      27.674  41.569  51.756  1.00  0.00    -0.261 N 
HETATM    5  H   UNL     1      28.058  40.690  51.425  1.00  0.00     0.191 HD
HETATM    6  N   UNL     1      28.351  42.237  52.701  1.00  0.00    -0.172 NA
HETATM    7  C   UNL     1      27.623  43.344  52.937  1.00  0.00     0.098 A 
HETATM    8  N   UNL     1      25.591  41.852  50.450  1.00  0.00    -0.312 N 
HETATM    9  C   UNL     1      24.417  42.653  50.291  1.00  0.00     0.224 C 
HETATM   10  O   UNL     1      23.666  42.322  49.387  1.00  0.00    -0.273 OA
HETATM   11  C   UNL     1      24.118  43.726  51.309  1.00  0.00     0.117 C 
HETATM   12  H   UNL     1      25.698  41.051  49.839  1.00  0.00     0.170 HD
ENDROOT
BRANCH   1  13
HETATM   13  C   UNL     1      25.922  45.500  51.083  1.00  0.00    -0.049 A 
HETATM   14  C   UNL     1      25.586  46.848  51.295  1.00  0.00     0.010 A 
HETATM   15  C   UNL     1      26.204  47.861  50.559  1.00  0.00     0.037 A 
HETATM   16  C   UNL     1      27.181  47.556  49.616  1.00  0.00     0.069 A 
HETATM   17  C   UNL     1      27.488  46.224  49.351  1.00  0.00     0.037 A 
HETATM   18  C   UNL     1      26.867  45.206  50.082  1.00  0.00     0.010 A 
BRANCH  16  19
HETATM   19  O   UNL     1      27.759  48.625  48.992  1.00  0.00    -0.348 OA
BRANCH  19  20
HETATM   20  C   UNL     1      26.990  49.829  49.034  1.00  0.00     0.202 C 
BRANCH  20  21
HETATM   21  C   UNL     1      26.056  49.803  47.862  1.00  0.00    -0.011 C 
HETATM   22  C   UNL     1      24.746  50.073  47.927  1.00  0.00     0.009 C 
ENDBRANCH  20  21
ENDBRANCH  19  20
ENDBRANCH  16  19
ENDBRANCH   1  13
BRANCH   7  23
HETATM   23  C   UNL     1      28.073  44.330  53.918  1.00  0.00    -0.005 A 
HETATM   24  C   UNL     1      29.260  44.110  54.629  1.00  0.00     0.014 A 
HETATM   25  C   UNL     1      29.706  45.039  55.571  1.00  0.00     0.001 A 
HETATM   26  C   UNL     1      28.966  46.196  55.813  1.00  0.00     0.000 A 
HETATM   27  C   UNL     1      27.777  46.419  55.121  1.00  0.00     0.001 A 
HETATM   28  C   UNL     1      27.328  45.486  54.181  1.00  0.00     0.014 A 
ENDBRANCH   7  23
TORSDOF 5
ENDMDL
MODEL 9
REMARK VINA RESULT:      -7.6      2.643      3.946
REMARK  5 active torsions:
REMARK  status: ('A' for Active; 'I' for Inactive)
REMARK    1  A    between atoms: C_2  and  C_3 
REMARK    2  A    between atoms: C_3  and  O_4 
REMARK    3  A    between atoms: O_4  and  C_5 
REMARK    4  A    between atoms: C_8  and  C_9 
REMARK    5  A    between atoms: C_15  and  C_16 
ROOT
HETATM    1  C   UNL     1      26.126  41.351  50.742  1.00  0.00     0.066 C 
HETATM    2  C   UNL     1      26.609  41.077  49.363  1.00  0.00     0.028 A 
HETATM    3  C   UNL     1      26.350  41.913  48.307  1.00  0.00     0.133 A 
HETATM    4  N   UNL     1      26.978  41.395  47.221  1.00  0.00    -0.261 N 
HETATM    5  H   UNL     1      27.019  41.750  46.272  1.00  0.00     0.191 HD
HETATM    6  N   UNL     1      27.614  40.246  47.492  1.00  0.00    -0.172 NA
HETATM    7  C   UNL     1      27.395  40.025  48.802  1.00  0.00     0.098 A 
HETATM    8  N   UNL     1      25.616  43.065  48.437  1.00  0.00    -0.312 N 
HETATM    9  C   UNL     1      24.977  43.362  49.682  1.00  0.00     0.224 C 
HETATM   10  O   UNL     1      24.410  44.441  49.744  1.00  0.00    -0.273 OA
HETATM   11  C   UNL     1      24.922  42.298  50.750  1.00  0.00     0.117 C 
HETATM   12  H   UNL     1      25.519  43.740  47.688  1.00  0.00     0.170 HD
ENDROOT
BRANCH   1  13
HETATM   13  C   UNL     1      27.303  41.895  51.536  1.00  0.00    -0.049 A 
HETATM   14  C   UNL     1      27.691  43.245  51.514  1.00  0.00     0.010 A 
HETATM   15  C   UNL     1      28.715  43.707  52.344  1.00  0.00     0.037 A 
HETATM   16  C   UNL     1      29.356  42.841  53.226  1.00  0.00     0.069 A 
HETATM   17  C   UNL     1      29.026  41.489  53.223  1.00  0.00     0.037 A 
HETATM   18  C   UNL     1      28.004  41.022  52.389  1.00  0.00     0.010 A 
BRANCH  16  19
HETATM   19  O   UNL     1      30.304  43.408  54.030  1.00  0.00    -0.348 OA
BRANCH  19  20
HETATM   20  C   UNL     1      30.293  42.949  55.383  1.00  0.00     0.202 C 
BRANCH  20  21
HETATM   21  C   UNL     1      31.276  43.785  56.146  1.00  0.00    -0.011 C 
HETATM   22  C   UNL     1      31.816  43.441  57.322  1.00  0.00     0.009 C 
ENDBRANCH  20  21
ENDBRANCH  19  20
ENDBRANCH  16  19
ENDBRANCH   1  13
BRANCH   7  23
HETATM   23  C   UNL     1      27.962  38.849  49.458  1.00  0.00    -0.005 A 
HETATM   24  C   UNL     1      27.177  37.700  49.624  1.00  0.00     0.014 A 
HETATM   25  C   UNL     1      27.699  36.566  50.249  1.00  0.00     0.001 A 
HETATM   26  C   UNL     1      29.012  36.572  50.718  1.00  0.00     0.000 A 
HETATM   27  C   UNL     1      29.799  37.714  50.571  1.00  0.00     0.001 A 
HETATM   28  C   UNL     1      29.274  38.850  49.948  1.00  0.00     0.014 A 
ENDBRANCH   7  23
TORSDOF 5
ENDMDL
MODEL 10
REMARK VINA RESULT:      -7.5      9.619     12.871
REMARK  5 active torsions:
REMARK  status: ('A' for Active; 'I' for Inactive)
REMARK    1  A    between atoms: C_2  and  C_3 
REMARK    2  A    between atoms: C_3  and  O_4 
REMARK    3  A    between atoms: O_4  and  C_5 
REMARK    4  A    between atoms: C_8  and  C_9 
REMARK    5  A    between atoms: C_15  and  C_16 
ROOT
HETATM    1  C   UNL     1      20.618  50.011  47.398  1.00  0.00     0.066 C 
HETATM    2  C   UNL     1      20.331  48.618  47.831  1.00  0.00     0.028 A 
HETATM    3  C   UNL     1      21.025  47.997  48.838  1.00  0.00     0.133 A 
HETATM    4  N   UNL     1      20.472  46.768  49.007  1.00  0.00    -0.261 N 
HETATM    5  H   UNL     1      20.717  46.040  49.669  1.00  0.00     0.191 HD
HETATM    6  N   UNL     1      19.471  46.530  48.148  1.00  0.00    -0.172 NA
HETATM    7  C   UNL     1      19.370  47.650  47.409  1.00  0.00     0.098 A 
HETATM    8  N   UNL     1      22.046  48.608  49.520  1.00  0.00    -0.312 N 
HETATM    9  C   UNL     1      22.510  49.894  49.100  1.00  0.00     0.224 C 
HETATM   10  O   UNL     1      23.365  50.407  49.804  1.00  0.00    -0.273 OA
HETATM   11  C   UNL     1      22.036  50.448  47.779  1.00  0.00     0.117 C 
HETATM   12  H   UNL     1      22.482  48.197  50.337  1.00  0.00     0.170 HD
ENDROOT
BRANCH   1  13
HETATM   13  C   UNL     1      19.547  50.905  48.003  1.00  0.00    -0.049 A 
HETATM   14  C   UNL     1      18.358  51.246  47.336  1.00  0.00     0.010 A 
HETATM   15  C   UNL     1      17.365  51.985  47.981  1.00  0.00     0.037 A 
HETATM   16  C   UNL     1      17.525  52.380  49.307  1.00  0.00     0.069 A 
HETATM   17  C   UNL     1      18.718  52.102  49.967  1.00  0.00     0.037 A 
HETATM   18  C   UNL     1      19.718  51.366  49.322  1.00  0.00     0.010 A 
BRANCH  16  19
HETATM   19  O   UNL     1      16.470  53.051  49.858  1.00  0.00    -0.348 OA
BRANCH  19  20
HETATM   20  C   UNL     1      15.195  52.442  49.641  1.00  0.00     0.202 C 
BRANCH  20  21
HETATM   21  C   UNL     1      14.232  53.070  50.604  1.00  0.00    -0.011 C 
HETATM   22  C   UNL     1      14.488  54.166  51.329  1.00  0.00     0.009 C 
ENDBRANCH  20  21
ENDBRANCH  19  20
ENDBRANCH  16  19
ENDBRANCH   1  13
BRANCH   7  23
HETATM   23  C   UNL     1      18.355  47.756  46.362  1.00  0.00    -0.005 A 
HETATM   24  C   UNL     1      17.003  47.863  46.713  1.00  0.00     0.014 A 
HETATM   25  C   UNL     1      16.018  47.964  45.729  1.00  0.00     0.001 A 
HETATM   26  C   UNL     1      16.377  47.955  44.382  1.00  0.00     0.000 A 
HETATM   27  C   UNL     1      17.718  47.835  44.019  1.00  0.00     0.001 A 
HETATM   28  C   UNL     1      18.703  47.730  45.006  1.00  0.00     0.014 A 
ENDBRANCH   7  23
TORSDOF 5
ENDMDL
