MODEL 1
REMARK VINA RESULT:      -9.2      0.000      0.000
REMARK  7 active torsions:
REMARK  status: ('A' for Active; 'I' for Inactive)
REMARK    1  A    between atoms: C_3  and  C_4 
REMARK    2  A    between atoms: N_5  and  C_7 
REMARK    3  A    between atoms: N_10  and  C_11 
REMARK    4  A    between atoms: C_14  and  C_15 
REMARK       I    between atoms: C_15  and  N_16 
REMARK    5  A    between atoms: N_16  and  C_17 
REMARK    6  A    between atoms: C_17  and  C_18 
REMARK    7  A    between atoms: C_18  and  N_19 
ROOT
HETATM    1  C   UNL     1      21.448  49.498  47.636  1.00  0.00     0.192 C 
HETATM    2  C   UNL     1      22.863  49.929  47.975  1.00  0.00     0.053 C 
HETATM    3  C   UNL     1      23.499  49.146  49.108  1.00  0.00     0.125 C 
HETATM    4  N   UNL     1      23.416  47.691  48.872  1.00  0.00    -0.381 N 
HETATM    5  C   UNL     1      22.100  47.150  48.500  1.00  0.00     0.125 C 
HETATM    6  C   UNL     1      21.382  47.981  47.441  1.00  0.00     0.053 C 
ENDROOT
BRANCH   4   7
HETATM    7  C   UNL     1      24.169  46.927  49.806  1.00  0.00     0.030 A 
HETATM    8  C   UNL     1      24.934  47.505  50.836  1.00  0.00     0.030 A 
HETATM    9  C   UNL     1      25.744  46.737  51.689  1.00  0.00     0.019 A 
HETATM   10  C   UNL     1      25.790  45.352  51.545  1.00  0.00     0.032 A 
HETATM   11  C   UNL     1      24.995  44.740  50.580  1.00  0.00     0.019 A 
HETATM   12  C   UNL     1      24.179  45.519  49.748  1.00  0.00     0.030 A 
BRANCH  10  13
HETATM   13  C   UNL     1      26.734  44.521  52.328  1.00  0.00     0.251 C 
HETATM   14  N   UNL     1      27.198  45.046  53.512  1.00  0.00    -0.355 N 
HETATM   15  H   UNL     1      26.845  45.957  53.790  1.00  0.00     0.162 HD
HETATM   16  O   UNL     1      27.074  43.417  51.913  1.00  0.00    -0.268 OA
BRANCH  14  17
HETATM   17  C   UNL     1      28.346  44.532  54.256  1.00  0.00     0.150 C 
BRANCH  17  18
HETATM   18  C   UNL     1      29.086  45.522  55.186  1.00  0.00     0.254 C 
BRANCH  18  19
HETATM   19  N   UNL     1      29.808  44.846  56.326  1.00  0.00    -0.066 N 
HETATM   20  H   UNL     1      29.082  44.285  56.824  1.00  0.00     0.280 HD
HETATM   21  C   UNL     1      30.890  43.862  55.915  1.00  0.00     0.261 C 
HETATM   22  C   UNL     1      31.478  43.195  57.166  1.00  0.00     0.195 C 
HETATM   23  O   UNL     1      31.999  44.175  58.070  1.00  0.00    -0.388 OA
HETATM   24  C   UNL     1      30.973  45.067  58.523  1.00  0.00     0.195 C 
HETATM   25  C   UNL     1      30.352  45.831  57.347  1.00  0.00     0.261 C 
ENDBRANCH  18  19
ENDBRANCH  17  18
ENDBRANCH  14  17
ENDBRANCH  10  13
ENDBRANCH   4   7
BRANCH   1  26
HETATM   26  N   UNL     1      20.318  50.023  48.537  1.00  0.00    -0.056 N 
HETATM   27  C   UNL     1      18.951  49.314  48.308  1.00  0.00     0.257 C 
HETATM   28  C   UNL     1      18.061  49.625  49.526  1.00  0.00     0.041 C 
HETATM   29  C   UNL     1      17.894  51.123  49.771  1.00  0.00     0.004 C 
HETATM   30  C   UNL     1      19.242  51.817  49.881  1.00  0.00     0.028 C 
HETATM   31  C   UNL     1      20.149  51.518  48.693  1.00  0.00     0.236 C 
HETATM   32  H   UNL     1      20.586  49.698  49.472  1.00  0.00     0.281 HD
BRANCH  27  33
HETATM   33  C   UNL     1      18.239  49.655  47.023  1.00  0.00     0.136 A 
HETATM   34  N   UNL     1      17.357  48.815  46.373  1.00  0.00    -0.346 N 
HETATM   35  C   UNL     1      16.945  47.489  46.770  1.00  0.00     0.157 C 
HETATM   36  C   UNL     1      16.900  49.470  45.263  1.00  0.00     0.111 A 
HETATM   37  C   UNL     1      17.509  50.698  45.284  1.00  0.00     0.136 A 
HETATM   38  N   UNL     1      18.334  50.802  46.372  1.00  0.00    -0.244 NA
ENDBRANCH  27  33
ENDBRANCH   1  26
TORSDOF 7
ENDMDL
MODEL 2
REMARK VINA RESULT:      -8.1     12.823     13.896
REMARK  7 active torsions:
REMARK  status: ('A' for Active; 'I' for Inactive)
REMARK    1  A    between atoms: C_3  and  C_4 
REMARK    2  A    between atoms: N_5  and  C_7 
REMARK    3  A    between atoms: N_10  and  C_11 
REMARK    4  A    between atoms: C_14  and  C_15 
REMARK       I    between atoms: C_15  and  N_16 
REMARK    5  A    between atoms: N_16  and  C_17 
REMARK    6  A    between atoms: C_17  and  C_18 
REMARK    7  A    between atoms: C_18  and  N_19 
ROOT
HETATM    1  C   UNL     1      29.906  48.313  40.842  1.00  0.00     0.192 C 
HETATM    2  C   UNL     1      31.288  48.049  40.272  1.00  0.00     0.053 C 
HETATM    3  C   UNL     1      32.308  49.126  40.585  1.00  0.00     0.125 C 
HETATM    4  N   UNL     1      32.363  49.415  42.033  1.00  0.00    -0.381 N 
HETATM    5  C   UNL     1      31.082  49.655  42.713  1.00  0.00     0.125 C 
HETATM    6  C   UNL     1      29.997  48.653  42.332  1.00  0.00     0.053 C 
ENDROOT
BRANCH   4   7
HETATM    7  C   UNL     1      33.438  50.273  42.394  1.00  0.00     0.030 A 
HETATM    8  C   UNL     1      34.707  50.218  41.786  1.00  0.00     0.030 A 
HETATM    9  C   UNL     1      35.781  51.011  42.221  1.00  0.00     0.019 A 
HETATM   10  C   UNL     1      35.604  51.906  43.275  1.00  0.00     0.032 A 
HETATM   11  C   UNL     1      34.346  52.034  43.856  1.00  0.00     0.019 A 
HETATM   12  C   UNL     1      33.279  51.248  43.399  1.00  0.00     0.030 A 
BRANCH  10  13
HETATM   13  C   UNL     1      36.742  52.655  43.856  1.00  0.00     0.251 C 
HETATM   14  N   UNL     1      36.996  53.906  43.344  1.00  0.00    -0.355 N 
HETATM   15  H   UNL     1      36.374  54.250  42.618  1.00  0.00     0.162 HD
HETATM   16  O   UNL     1      37.414  52.156  44.753  1.00  0.00    -0.268 OA
BRANCH  14  17
HETATM   17  C   UNL     1      38.231  54.657  43.559  1.00  0.00     0.150 C 
BRANCH  17  18
HETATM   18  C   UNL     1      38.376  55.411  44.902  1.00  0.00     0.254 C 
BRANCH  18  19
HETATM   19  N   UNL     1      39.091  54.610  45.963  1.00  0.00    -0.066 N 
HETATM   20  H   UNL     1      39.144  53.637  45.591  1.00  0.00     0.280 HD
HETATM   21  C   UNL     1      40.524  55.033  46.236  1.00  0.00     0.261 C 
HETATM   22  C   UNL     1      41.149  54.087  47.271  1.00  0.00     0.195 C 
HETATM   23  O   UNL     1      40.383  54.075  48.480  1.00  0.00    -0.388 OA
HETATM   24  C   UNL     1      39.048  53.609  48.249  1.00  0.00     0.195 C 
HETATM   25  C   UNL     1      38.310  54.523  47.263  1.00  0.00     0.261 C 
ENDBRANCH  18  19
ENDBRANCH  17  18
ENDBRANCH  14  17
ENDBRANCH  10  13
ENDBRANCH   4   7
BRANCH   1  26
HETATM   26  N   UNL     1      29.003  49.290  40.071  1.00  0.00    -0.056 N 
HETATM   27  C   UNL     1      27.484  48.966  40.187  1.00  0.00     0.257 C 
HETATM   28  C   UNL     1      26.711  50.223  39.747  1.00  0.00     0.041 C 
HETATM   29  C   UNL     1      27.090  50.692  38.344  1.00  0.00     0.004 C 
HETATM   30  C   UNL     1      28.591  50.896  38.219  1.00  0.00     0.028 C 
HETATM   31  C   UNL     1      29.384  49.671  38.658  1.00  0.00     0.236 C 
HETATM   32  H   UNL     1      29.087  50.164  40.603  1.00  0.00     0.281 HD
BRANCH  27  33
HETATM   33  C   UNL     1      27.012  47.752  39.428  1.00  0.00     0.136 A 
HETATM   34  N   UNL     1      25.904  47.002  39.767  1.00  0.00    -0.346 N 
HETATM   35  C   UNL     1      24.999  47.214  40.874  1.00  0.00     0.157 C 
HETATM   36  C   UNL     1      25.778  46.001  38.843  1.00  0.00     0.111 A 
HETATM   37  C   UNL     1      26.809  46.187  37.959  1.00  0.00     0.136 A 
HETATM   38  N   UNL     1      27.565  47.267  38.328  1.00  0.00    -0.244 NA
ENDBRANCH  27  33
ENDBRANCH   1  26
TORSDOF 7
ENDMDL
MODEL 3
REMARK VINA RESULT:      -8.0     13.374     14.337
REMARK  7 active torsions:
REMARK  status: ('A' for Active; 'I' for Inactive)
REMARK    1  A    between atoms: C_3  and  C_4 
REMARK    2  A    between atoms: N_5  and  C_7 
REMARK    3  A    between atoms: N_10  and  C_11 
REMARK    4  A    between atoms: C_14  and  C_15 
REMARK       I    between atoms: C_15  and  N_16 
REMARK    5  A    between atoms: N_16  and  C_17 
REMARK    6  A    between atoms: C_17  and  C_18 
REMARK    7  A    between atoms: C_18  and  N_19 
ROOT
HETATM    1  C   UNL     1      31.137  49.891  39.707  1.00  0.00     0.192 C 
HETATM    2  C   UNL     1      32.229  50.763  39.115  1.00  0.00     0.053 C 
HETATM    3  C   UNL     1      33.184  51.348  40.138  1.00  0.00     0.125 C 
HETATM    4  N   UNL     1      33.741  50.300  41.018  1.00  0.00    -0.381 N 
HETATM    5  C   UNL     1      32.784  49.365  41.628  1.00  0.00     0.125 C 
HETATM    6  C   UNL     1      31.738  48.845  40.648  1.00  0.00     0.053 C 
ENDROOT
BRANCH   4   7
HETATM    7  C   UNL     1      34.784  50.772  41.861  1.00  0.00     0.030 A 
HETATM    8  C   UNL     1      34.560  51.601  42.976  1.00  0.00     0.030 A 
HETATM    9  C   UNL     1      35.613  52.130  43.740  1.00  0.00     0.019 A 
HETATM   10  C   UNL     1      36.932  51.821  43.416  1.00  0.00     0.032 A 
HETATM   11  C   UNL     1      37.189  50.951  42.361  1.00  0.00     0.019 A 
HETATM   12  C   UNL     1      36.126  50.417  41.619  1.00  0.00     0.030 A 
BRANCH  10  13
HETATM   13  C   UNL     1      38.072  52.469  44.105  1.00  0.00     0.251 C 
HETATM   14  N   UNL     1      38.483  53.690  43.625  1.00  0.00    -0.355 N 
HETATM   15  H   UNL     1      37.964  54.086  42.846  1.00  0.00     0.162 HD
HETATM   16  O   UNL     1      38.611  51.916  45.059  1.00  0.00    -0.268 OA
BRANCH  14  17
HETATM   17  C   UNL     1      39.754  54.331  43.958  1.00  0.00     0.150 C 
BRANCH  17  18
HETATM   18  C   UNL     1      39.780  55.248  45.203  1.00  0.00     0.254 C 
BRANCH  18  19
HETATM   19  N   UNL     1      39.929  54.492  46.501  1.00  0.00    -0.066 N 
HETATM   20  H   UNL     1      40.044  53.491  46.230  1.00  0.00     0.280 HD
HETATM   21  C   UNL     1      41.157  54.848  47.320  1.00  0.00     0.261 C 
HETATM   22  C   UNL     1      41.222  53.951  48.563  1.00  0.00     0.195 C 
HETATM   23  O   UNL     1      40.032  54.078  49.349  1.00  0.00    -0.388 OA
HETATM   24  C   UNL     1      38.872  53.676  48.610  1.00  0.00     0.195 C 
HETATM   25  C   UNL     1      38.682  54.553  47.367  1.00  0.00     0.261 C 
ENDBRANCH  18  19
ENDBRANCH  17  18
ENDBRANCH  14  17
ENDBRANCH  10  13
ENDBRANCH   4   7
BRANCH   1  26
HETATM   26  N   UNL     1      29.923  50.607  40.322  1.00  0.00    -0.056 N 
HETATM   27  C   UNL     1      28.764  49.646  40.723  1.00  0.00     0.257 C 
HETATM   28  C   UNL     1      27.839  50.417  41.682  1.00  0.00     0.041 C 
HETATM   29  C   UNL     1      27.318  51.722  41.084  1.00  0.00     0.004 C 
HETATM   30  C   UNL     1      28.461  52.599  40.596  1.00  0.00     0.028 C 
HETATM   31  C   UNL     1      29.401  51.858  39.652  1.00  0.00     0.236 C 
HETATM   32  H   UNL     1      30.271  50.930  41.231  1.00  0.00     0.281 HD
BRANCH  27  33
HETATM   33  C   UNL     1      27.979  49.052  39.582  1.00  0.00     0.136 A 
HETATM   34  N   UNL     1      27.491  47.760  39.559  1.00  0.00    -0.346 N 
HETATM   35  C   UNL     1      27.624  46.749  40.583  1.00  0.00     0.157 C 
HETATM   36  C   UNL     1      26.818  47.588  38.382  1.00  0.00     0.111 A 
HETATM   37  C   UNL     1      26.905  48.792  37.731  1.00  0.00     0.136 A 
HETATM   38  N   UNL     1      27.624  49.687  38.478  1.00  0.00    -0.244 NA
ENDBRANCH  27  33
ENDBRANCH   1  26
TORSDOF 7
ENDMDL
MODEL 4
REMARK VINA RESULT:      -7.9      1.759      2.287
REMARK  7 active torsions:
REMARK  status: ('A' for Active; 'I' for Inactive)
REMARK    1  A    between atoms: C_3  and  C_4 
REMARK    2  A    between atoms: N_5  and  C_7 
REMARK    3  A    between atoms: N_10  and  C_11 
REMARK    4  A    between atoms: C_14  and  C_15 
REMARK       I    between atoms: C_15  and  N_16 
REMARK    5  A    between atoms: N_16  and  C_17 
REMARK    6  A    between atoms: C_17  and  C_18 
REMARK    7  A    between atoms: C_18  and  N_19 
ROOT
HETATM    1  C   UNL     1      20.873  46.592  47.637  1.00  0.00     0.192 C 
HETATM    2  C   UNL     1      22.238  47.251  47.703  1.00  0.00     0.053 C 
HETATM    3  C   UNL     1      23.070  46.846  48.904  1.00  0.00     0.125 C 
HETATM    4  N   UNL     1      23.170  45.377  49.022  1.00  0.00    -0.381 N 
HETATM    5  C   UNL     1      21.915  44.615  48.938  1.00  0.00     0.125 C 
HETATM    6  C   UNL     1      21.002  45.076  47.806  1.00  0.00     0.053 C 
ENDROOT
BRANCH   4   7
HETATM    7  C   UNL     1      24.097  44.955  50.013  1.00  0.00     0.030 A 
HETATM    8  C   UNL     1      24.330  43.601  50.326  1.00  0.00     0.030 A 
HETATM    9  C   UNL     1      25.181  43.209  51.372  1.00  0.00     0.019 A 
HETATM   10  C   UNL     1      25.846  44.173  52.127  1.00  0.00     0.032 A 
HETATM   11  C   UNL     1      25.691  45.518  51.804  1.00  0.00     0.019 A 
HETATM   12  C   UNL     1      24.852  45.893  50.745  1.00  0.00     0.030 A 
BRANCH  10  13
HETATM   13  C   UNL     1      26.638  43.810  53.325  1.00  0.00     0.251 C 
HETATM   14  N   UNL     1      27.915  43.346  53.114  1.00  0.00    -0.355 N 
HETATM   15  H   UNL     1      28.247  43.305  52.155  1.00  0.00     0.162 HD
HETATM   16  O   UNL     1      26.150  43.926  54.445  1.00  0.00    -0.268 OA
BRANCH  14  17
HETATM   17  C   UNL     1      28.726  42.659  54.117  1.00  0.00     0.150 C 
BRANCH  17  18
HETATM   18  C   UNL     1      30.070  43.315  54.512  1.00  0.00     0.254 C 
BRANCH  18  19
HETATM   19  N   UNL     1      30.032  43.991  55.861  1.00  0.00    -0.066 N 
HETATM   20  H   UNL     1      29.353  43.441  56.431  1.00  0.00     0.280 HD
HETATM   21  C   UNL     1      31.341  43.970  56.632  1.00  0.00     0.261 C 
HETATM   22  C   UNL     1      31.134  44.617  58.008  1.00  0.00     0.195 C 
HETATM   23  O   UNL     1      30.643  45.955  57.876  1.00  0.00    -0.388 OA
HETATM   24  C   UNL     1      29.374  45.983  57.214  1.00  0.00     0.195 C 
HETATM   25  C   UNL     1      29.480  45.405  55.797  1.00  0.00     0.261 C 
ENDBRANCH  18  19
ENDBRANCH  17  18
ENDBRANCH  14  17
ENDBRANCH  10  13
ENDBRANCH   4   7
BRANCH   1  26
HETATM   26  N   UNL     1      19.761  47.188  48.516  1.00  0.00    -0.056 N 
HETATM   27  C   UNL     1      18.386  47.305  47.796  1.00  0.00     0.257 C 
HETATM   28  C   UNL     1      17.313  47.502  48.882  1.00  0.00     0.041 C 
HETATM   29  C   UNL     1      17.591  48.705  49.781  1.00  0.00     0.004 C 
HETATM   30  C   UNL     1      18.983  48.628  50.388  1.00  0.00     0.028 C 
HETATM   31  C   UNL     1      20.066  48.422  49.336  1.00  0.00     0.236 C 
HETATM   32  H   UNL     1      19.588  46.455  49.213  1.00  0.00     0.281 HD
BRANCH  27  33
HETATM   33  C   UNL     1      18.285  48.379  46.742  1.00  0.00     0.136 A 
HETATM   34  N   UNL     1      18.411  48.155  45.385  1.00  0.00    -0.346 N 
HETATM   35  C   UNL     1      18.654  46.897  44.717  1.00  0.00     0.157 C 
HETATM   36  C   UNL     1      18.241  49.352  44.747  1.00  0.00     0.111 A 
HETATM   37  C   UNL     1      18.000  50.266  45.740  1.00  0.00     0.136 A 
HETATM   38  N   UNL     1      18.030  49.657  46.966  1.00  0.00    -0.244 NA
ENDBRANCH  27  33
ENDBRANCH   1  26
TORSDOF 7
ENDMDL
MODEL 5
REMARK VINA RESULT:      -7.9      6.747     12.889
REMARK  7 active torsions:
REMARK  status: ('A' for Active; 'I' for Inactive)
REMARK    1  A    between atoms: C_3  and  C_4 
REMARK    2  A    between atoms: N_5  and  C_7 
REMARK    3  A    between atoms: N_10  and  C_11 
REMARK    4  A    between atoms: C_14  and  C_15 
REMARK       I    between atoms: C_15  and  N_16 
REMARK    5  A    between atoms: N_16  and  C_17 
REMARK    6  A    between atoms: C_17  and  C_18 
REMARK    7  A    between atoms: C_18  and  N_19 
ROOT
HETATM    1  C   UNL     1      19.728  48.988  48.321  1.00  0.00     0.192 C 
HETATM    2  C   UNL     1      18.790  48.992  49.514  1.00  0.00     0.053 C 
HETATM    3  C   UNL     1      17.959  50.253  49.650  1.00  0.00     0.125 C 
HETATM    4  N   UNL     1      17.245  50.567  48.396  1.00  0.00    -0.381 N 
HETATM    5  C   UNL     1      18.039  50.561  47.158  1.00  0.00     0.125 C 
HETATM    6  C   UNL     1      18.972  49.360  47.044  1.00  0.00     0.053 C 
ENDROOT
BRANCH   4   7
HETATM    7  C   UNL     1      16.304  51.625  48.535  1.00  0.00     0.030 A 
HETATM    8  C   UNL     1      15.544  52.127  47.461  1.00  0.00     0.030 A 
HETATM    9  C   UNL     1      14.689  53.233  47.601  1.00  0.00     0.019 A 
HETATM   10  C   UNL     1      14.556  53.858  48.839  1.00  0.00     0.032 A 
HETATM   11  C   UNL     1      15.242  53.347  49.938  1.00  0.00     0.019 A 
HETATM   12  C   UNL     1      16.077  52.232  49.786  1.00  0.00     0.030 A 
BRANCH  10  13
HETATM   13  C   UNL     1      13.778  55.108  48.998  1.00  0.00     0.251 C 
HETATM   14  N   UNL     1      14.464  56.294  48.868  1.00  0.00    -0.355 N 
HETATM   15  H   UNL     1      15.454  56.240  48.645  1.00  0.00     0.162 HD
HETATM   16  O   UNL     1      12.576  55.060  49.237  1.00  0.00    -0.268 OA
BRANCH  14  17
HETATM   17  C   UNL     1      13.956  57.598  49.287  1.00  0.00     0.150 C 
BRANCH  17  18
HETATM   18  C   UNL     1      14.834  58.420  50.260  1.00  0.00     0.254 C 
BRANCH  18  19
HETATM   19  N   UNL     1      14.629  58.050  51.709  1.00  0.00    -0.066 N 
HETATM   20  H   UNL     1      13.595  57.986  51.837  1.00  0.00     0.280 HD
HETATM   21  C   UNL     1      15.187  56.698  52.117  1.00  0.00     0.261 C 
HETATM   22  C   UNL     1      14.837  56.421  53.585  1.00  0.00     0.195 C 
HETATM   23  O   UNL     1      15.341  57.457  54.435  1.00  0.00    -0.388 OA
HETATM   24  C   UNL     1      14.766  58.727  54.107  1.00  0.00     0.195 C 
HETATM   25  C   UNL     1      15.106  59.128  52.667  1.00  0.00     0.261 C 
ENDBRANCH  18  19
ENDBRANCH  17  18
ENDBRANCH  14  17
ENDBRANCH  10  13
ENDBRANCH   4   7
BRANCH   1  26
HETATM   26  N   UNL     1      21.052  49.758  48.465  1.00  0.00    -0.056 N 
HETATM   27  C   UNL     1      22.253  49.083  47.739  1.00  0.00     0.257 C 
HETATM   28  C   UNL     1      23.364  50.141  47.607  1.00  0.00     0.041 C 
HETATM   29  C   UNL     1      23.773  50.742  48.950  1.00  0.00     0.004 C 
HETATM   30  C   UNL     1      22.569  51.297  49.694  1.00  0.00     0.028 C 
HETATM   31  C   UNL     1      21.447  50.274  49.830  1.00  0.00     0.236 C 
HETATM   32  H   UNL     1      20.898  50.605  47.906  1.00  0.00     0.281 HD
BRANCH  27  33
HETATM   33  C   UNL     1      22.784  47.824  48.377  1.00  0.00     0.136 A 
HETATM   34  N   UNL     1      22.418  46.546  48.003  1.00  0.00    -0.346 N 
HETATM   35  C   UNL     1      21.490  46.161  46.965  1.00  0.00     0.157 C 
HETATM   36  C   UNL     1      23.115  45.667  48.785  1.00  0.00     0.111 A 
HETATM   37  C   UNL     1      23.898  46.443  49.601  1.00  0.00     0.136 A 
HETATM   38  N   UNL     1      23.686  47.771  49.343  1.00  0.00    -0.244 NA
ENDBRANCH  27  33
ENDBRANCH   1  26
TORSDOF 7
ENDMDL
MODEL 6
REMARK VINA RESULT:      -7.9      1.842      2.485
REMARK  7 active torsions:
REMARK  status: ('A' for Active; 'I' for Inactive)
REMARK    1  A    between atoms: C_3  and  C_4 
REMARK    2  A    between atoms: N_5  and  C_7 
REMARK    3  A    between atoms: N_10  and  C_11 
REMARK    4  A    between atoms: C_14  and  C_15 
REMARK       I    between atoms: C_15  and  N_16 
REMARK    5  A    between atoms: N_16  and  C_17 
REMARK    6  A    between atoms: C_17  and  C_18 
REMARK    7  A    between atoms: C_18  and  N_19 
ROOT
HETATM    1  C   UNL     1      19.263  48.035  47.496  1.00  0.00     0.192 C 
HETATM    2  C   UNL     1      20.456  47.697  46.621  1.00  0.00     0.053 C 
HETATM    3  C   UNL     1      21.640  47.121  47.374  1.00  0.00     0.125 C 
HETATM    4  N   UNL     1      21.239  45.974  48.214  1.00  0.00    -0.381 N 
HETATM    5  C   UNL     1      20.070  46.162  49.086  1.00  0.00     0.125 C 
HETATM    6  C   UNL     1      18.898  46.844  48.387  1.00  0.00     0.053 C 
ENDROOT
BRANCH   4   7
HETATM    7  C   UNL     1      22.344  45.283  48.784  1.00  0.00     0.030 A 
HETATM    8  C   UNL     1      22.338  43.898  49.039  1.00  0.00     0.030 A 
HETATM    9  C   UNL     1      23.404  43.252  49.687  1.00  0.00     0.019 A 
HETATM   10  C   UNL     1      24.524  43.980  50.081  1.00  0.00     0.032 A 
HETATM   11  C   UNL     1      24.592  45.339  49.786  1.00  0.00     0.019 A 
HETATM   12  C   UNL     1      23.529  45.966  49.123  1.00  0.00     0.030 A 
BRANCH  10  13
HETATM   13  C   UNL     1      25.603  43.367  50.890  1.00  0.00     0.251 C 
HETATM   14  N   UNL     1      26.361  44.212  51.667  1.00  0.00    -0.355 N 
HETATM   15  H   UNL     1      26.118  45.199  51.660  1.00  0.00     0.162 HD
HETATM   16  O   UNL     1      25.792  42.156  50.849  1.00  0.00    -0.268 OA
BRANCH  14  17
HETATM   17  C   UNL     1      27.638  43.856  52.281  1.00  0.00     0.150 C 
BRANCH  17  18
HETATM   18  C   UNL     1      27.589  43.083  53.620  1.00  0.00     0.254 C 
BRANCH  18  19
HETATM   19  N   UNL     1      28.449  43.697  54.698  1.00  0.00    -0.066 N 
HETATM   20  H   UNL     1      28.073  43.328  55.599  1.00  0.00     0.280 HD
HETATM   21  C   UNL     1      29.915  43.302  54.661  1.00  0.00     0.261 C 
HETATM   22  C   UNL     1      30.645  43.931  55.855  1.00  0.00     0.195 C 
HETATM   23  O   UNL     1      30.502  45.356  55.848  1.00  0.00    -0.388 OA
HETATM   24  C   UNL     1      29.128  45.744  55.955  1.00  0.00     0.195 C 
HETATM   25  C   UNL     1      28.312  45.209  54.772  1.00  0.00     0.261 C 
ENDBRANCH  18  19
ENDBRANCH  17  18
ENDBRANCH  14  17
ENDBRANCH  10  13
ENDBRANCH   4   7
BRANCH   1  26
HETATM   26  N   UNL     1      19.316  49.358  48.278  1.00  0.00    -0.056 N 
HETATM   27  C   UNL     1      17.931  49.827  48.814  1.00  0.00     0.257 C 
HETATM   28  C   UNL     1      18.193  50.888  49.899  1.00  0.00     0.041 C 
HETATM   29  C   UNL     1      19.036  52.057  49.394  1.00  0.00     0.004 C 
HETATM   30  C   UNL     1      20.336  51.570  48.773  1.00  0.00     0.028 C 
HETATM   31  C   UNL     1      20.108  50.510  47.702  1.00  0.00     0.236 C 
HETATM   32  H   UNL     1      19.817  49.108  49.138  1.00  0.00     0.281 HD
BRANCH  27  33
HETATM   33  C   UNL     1      16.966  50.345  47.778  1.00  0.00     0.136 A 
HETATM   34  N   UNL     1      15.933  49.608  47.235  1.00  0.00    -0.346 N 
HETATM   35  C   UNL     1      15.573  48.241  47.533  1.00  0.00     0.157 C 
HETATM   36  C   UNL     1      15.266  50.411  46.353  1.00  0.00     0.111 A 
HETATM   37  C   UNL     1      15.907  51.622  46.401  1.00  0.00     0.136 A 
HETATM   38  N   UNL     1      16.955  51.571  47.281  1.00  0.00    -0.244 NA
ENDBRANCH  27  33
ENDBRANCH   1  26
TORSDOF 7
ENDMDL
MODEL 7
REMARK VINA RESULT:      -7.8     14.956     16.292
REMARK  7 active torsions:
REMARK  status: ('A' for Active; 'I' for Inactive)
REMARK    1  A    between atoms: C_3  and  C_4 
REMARK    2  A    between atoms: N_5  and  C_7 
REMARK    3  A    between atoms: N_10  and  C_11 
REMARK    4  A    between atoms: C_14  and  C_15 
REMARK       I    between atoms: C_15  and  N_16 
REMARK    5  A    between atoms: N_16  and  C_17 
REMARK    6  A    between atoms: C_17  and  C_18 
REMARK    7  A    between atoms: C_18  and  N_19 
ROOT
HETATM    1  C   UNL     1      31.829  49.686  41.568  1.00  0.00     0.192 C 
HETATM    2  C   UNL     1      33.234  49.187  41.283  1.00  0.00     0.053 C 
HETATM    3  C   UNL     1      34.312  50.244  41.422  1.00  0.00     0.125 C 
HETATM    4  N   UNL     1      34.232  50.929  42.728  1.00  0.00    -0.381 N 
HETATM    5  C   UNL     1      32.911  51.431  43.137  1.00  0.00     0.125 C 
HETATM    6  C   UNL     1      31.785  50.429  42.905  1.00  0.00     0.053 C 
ENDROOT
BRANCH   4   7
HETATM    7  C   UNL     1      35.337  51.788  42.980  1.00  0.00     0.030 A 
HETATM    8  C   UNL     1      35.531  52.456  44.204  1.00  0.00     0.030 A 
HETATM    9  C   UNL     1      36.578  53.371  44.400  1.00  0.00     0.019 A 
HETATM   10  C   UNL     1      37.481  53.628  43.371  1.00  0.00     0.032 A 
HETATM   11  C   UNL     1      37.359  52.936  42.169  1.00  0.00     0.019 A 
HETATM   12  C   UNL     1      36.319  52.013  41.994  1.00  0.00     0.030 A 
BRANCH  10  13
HETATM   13  C   UNL     1      38.511  54.686  43.487  1.00  0.00     0.251 C 
HETATM   14  N   UNL     1      39.604  54.414  44.274  1.00  0.00    -0.355 N 
HETATM   15  H   UNL     1      39.654  53.495  44.706  1.00  0.00     0.162 HD
HETATM   16  O   UNL     1      38.367  55.753  42.897  1.00  0.00    -0.268 OA
BRANCH  14  17
HETATM   17  C   UNL     1      40.553  55.415  44.756  1.00  0.00     0.150 C 
BRANCH  17  18
HETATM   18  C   UNL     1      40.010  56.500  45.715  1.00  0.00     0.254 C 
BRANCH  18  19
HETATM   19  N   UNL     1      40.191  57.905  45.194  1.00  0.00    -0.066 N 
HETATM   20  H   UNL     1      40.611  58.444  45.983  1.00  0.00     0.280 HD
HETATM   21  C   UNL     1      41.156  58.045  44.029  1.00  0.00     0.261 C 
HETATM   22  C   UNL     1      41.302  59.527  43.660  1.00  0.00     0.195 C 
HETATM   23  O   UNL     1      40.031  60.102  43.339  1.00  0.00    -0.388 OA
HETATM   24  C   UNL     1      39.134  60.042  44.454  1.00  0.00     0.195 C 
HETATM   25  C   UNL     1      38.873  58.590  44.872  1.00  0.00     0.261 C 
ENDBRANCH  18  19
ENDBRANCH  17  18
ENDBRANCH  14  17
ENDBRANCH  10  13
ENDBRANCH   4   7
BRANCH   1  26
HETATM   26  N   UNL     1      31.115  50.455  40.444  1.00  0.00    -0.056 N 
HETATM   27  C   UNL     1      29.628  50.038  40.244  1.00  0.00     0.257 C 
HETATM   28  C   UNL     1      28.947  51.146  39.418  1.00  0.00     0.041 C 
HETATM   29  C   UNL     1      29.650  51.412  38.089  1.00  0.00     0.004 C 
HETATM   30  C   UNL     1      31.127  51.709  38.297  1.00  0.00     0.028 C 
HETATM   31  C   UNL     1      31.826  50.634  39.121  1.00  0.00     0.236 C 
HETATM   32  H   UNL     1      31.033  51.406  40.820  1.00  0.00     0.281 HD
BRANCH  27  33
HETATM   33  C   UNL     1      29.403  48.686  39.615  1.00  0.00     0.136 A 
HETATM   34  N   UNL     1      28.260  47.930  39.778  1.00  0.00    -0.346 N 
HETATM   35  C   UNL     1      27.085  48.262  40.551  1.00  0.00     0.157 C 
HETATM   36  C   UNL     1      28.409  46.784  39.048  1.00  0.00     0.111 A 
HETATM   37  C   UNL     1      29.638  46.889  38.448  1.00  0.00     0.136 A 
HETATM   38  N   UNL     1      30.244  48.064  38.805  1.00  0.00    -0.244 NA
ENDBRANCH  27  33
ENDBRANCH   1  26
TORSDOF 7
ENDMDL
MODEL 8
REMARK VINA RESULT:      -7.8     14.514     15.621
REMARK  7 active torsions:
REMARK  status: ('A' for Active; 'I' for Inactive)
REMARK    1  A    between atoms: C_3  and  C_4 
REMARK    2  A    between atoms: N_5  and  C_7 
REMARK    3  A    between atoms: N_10  and  C_11 
REMARK    4  A    between atoms: C_14  and  C_15 
REMARK       I    between atoms: C_15  and  N_16 
REMARK    5  A    between atoms: N_16  and  C_17 
REMARK    6  A    between atoms: C_17  and  C_18 
REMARK    7  A    between atoms: C_18  and  N_19 
ROOT
HETATM    1  C   UNL     1      31.810  50.364  39.911  1.00  0.00     0.192 C 
HETATM    2  C   UNL     1      33.024  51.105  39.381  1.00  0.00     0.053 C 
HETATM    3  C   UNL     1      33.923  51.682  40.457  1.00  0.00     0.125 C 
HETATM    4  N   UNL     1      34.303  50.658  41.451  1.00  0.00    -0.381 N 
HETATM    5  C   UNL     1      33.216  49.844  42.017  1.00  0.00     0.125 C 
HETATM    6  C   UNL     1      32.228  49.341  40.970  1.00  0.00     0.053 C 
ENDROOT
BRANCH   4   7
HETATM    7  C   UNL     1      35.297  51.103  42.365  1.00  0.00     0.030 A 
HETATM    8  C   UNL     1      35.039  52.026  43.396  1.00  0.00     0.030 A 
HETATM    9  C   UNL     1      36.056  52.523  44.228  1.00  0.00     0.019 A 
HETATM   10  C   UNL     1      37.368  52.086  44.062  1.00  0.00     0.032 A 
HETATM   11  C   UNL     1      37.648  51.124  43.095  1.00  0.00     0.019 A 
HETATM   12  C   UNL     1      36.620  50.625  42.284  1.00  0.00     0.030 A 
BRANCH  10  13
HETATM   13  C   UNL     1      38.489  52.687  44.821  1.00  0.00     0.251 C 
HETATM   14  N   UNL     1      38.943  53.915  44.401  1.00  0.00    -0.355 N 
HETATM   15  H   UNL     1      38.466  54.347  43.614  1.00  0.00     0.162 HD
HETATM   16  O   UNL     1      38.974  52.092  45.778  1.00  0.00    -0.268 OA
BRANCH  14  17
HETATM   17  C   UNL     1      40.209  54.519  44.810  1.00  0.00     0.150 C 
BRANCH  17  18
HETATM   18  C   UNL     1      40.151  55.620  45.894  1.00  0.00     0.254 C 
BRANCH  18  19
HETATM   19  N   UNL     1      40.457  56.999  45.364  1.00  0.00    -0.066 N 
HETATM   20  H   UNL     1      41.123  57.421  46.048  1.00  0.00     0.280 HD
HETATM   21  C   UNL     1      41.160  57.035  44.018  1.00  0.00     0.261 C 
HETATM   22  C   UNL     1      41.479  58.488  43.644  1.00  0.00     0.195 C 
HETATM   23  O   UNL     1      40.288  59.282  43.617  1.00  0.00    -0.388 OA
HETATM   24  C   UNL     1      39.653  59.317  44.900  1.00  0.00     0.195 C 
HETATM   25  C   UNL     1      39.240  57.910  45.347  1.00  0.00     0.261 C 
ENDBRANCH  18  19
ENDBRANCH  17  18
ENDBRANCH  14  17
ENDBRANCH  10  13
ENDBRANCH   4   7
BRANCH   1  26
HETATM   26  N   UNL     1      30.608  51.212  40.357  1.00  0.00    -0.056 N 
HETATM   27  C   UNL     1      29.381  50.370  40.816  1.00  0.00     0.257 C 
HETATM   28  C   UNL     1      28.452  51.307  41.610  1.00  0.00     0.041 C 
HETATM   29  C   UNL     1      28.033  52.541  40.816  1.00  0.00     0.004 C 
HETATM   30  C   UNL     1      29.244  53.289  40.281  1.00  0.00     0.028 C 
HETATM   31  C   UNL     1      30.188  52.385  39.498  1.00  0.00     0.236 C 
HETATM   32  H   UNL     1      30.928  51.639  41.233  1.00  0.00     0.281 HD
BRANCH  27  33
HETATM   33  C   UNL     1      28.622  49.664  39.721  1.00  0.00     0.136 A 
HETATM   34  N   UNL     1      28.631  48.298  39.522  1.00  0.00    -0.346 N 
HETATM   35  C   UNL     1      29.338  47.299  40.289  1.00  0.00     0.157 C 
HETATM   36  C   UNL     1      27.816  48.026  38.458  1.00  0.00     0.111 A 
HETATM   37  C   UNL     1      27.323  49.240  38.054  1.00  0.00     0.136 A 
HETATM   38  N   UNL     1      27.827  50.244  38.838  1.00  0.00    -0.244 NA
ENDBRANCH  27  33
ENDBRANCH   1  26
TORSDOF 7
ENDMDL
MODEL 9
REMARK VINA RESULT:      -7.8     13.936     14.969
REMARK  7 active torsions:
REMARK  status: ('A' for Active; 'I' for Inactive)
REMARK    1  A    between atoms: C_3  and  C_4 
REMARK    2  A    between atoms: N_5  and  C_7 
REMARK    3  A    between atoms: N_10  and  C_11 
REMARK    4  A    between atoms: C_14  and  C_15 
REMARK       I    between atoms: C_15  and  N_16 
REMARK    5  A    between atoms: N_16  and  C_17 
REMARK    6  A    between atoms: C_17  and  C_18 
REMARK    7  A    between atoms: C_18  and  N_19 
ROOT
HETATM    1  C   UNL     1      32.136  50.585  39.891  1.00  0.00     0.192 C 
HETATM    2  C   UNL     1      33.367  51.302  39.366  1.00  0.00     0.053 C 
HETATM    3  C   UNL     1      34.269  51.866  40.446  1.00  0.00     0.125 C 
HETATM    4  N   UNL     1      34.624  50.838  41.446  1.00  0.00    -0.381 N 
HETATM    5  C   UNL     1      33.519  50.046  42.008  1.00  0.00     0.125 C 
HETATM    6  C   UNL     1      32.528  49.558  40.956  1.00  0.00     0.053 C 
ENDROOT
BRANCH   4   7
HETATM    7  C   UNL     1      35.621  51.267  42.364  1.00  0.00     0.030 A 
HETATM    8  C   UNL     1      36.953  50.813  42.325  1.00  0.00     0.030 A 
HETATM    9  C   UNL     1      37.898  51.179  43.297  1.00  0.00     0.019 A 
HETATM   10  C   UNL     1      37.535  52.036  44.334  1.00  0.00     0.032 A 
HETATM   11  C   UNL     1      36.244  52.557  44.367  1.00  0.00     0.019 A 
HETATM   12  C   UNL     1      35.318  52.196  43.379  1.00  0.00     0.030 A 
BRANCH  10  13
HETATM   13  C   UNL     1      38.457  52.333  45.454  1.00  0.00     0.251 C 
HETATM   14  N   UNL     1      38.134  53.394  46.268  1.00  0.00    -0.355 N 
HETATM   15  H   UNL     1      37.271  53.893  46.067  1.00  0.00     0.162 HD
HETATM   16  O   UNL     1      39.460  51.647  45.625  1.00  0.00    -0.268 OA
BRANCH  14  17
HETATM   17  C   UNL     1      39.051  54.027  47.213  1.00  0.00     0.150 C 
BRANCH  17  18
HETATM   18  C   UNL     1      40.005  55.110  46.656  1.00  0.00     0.254 C 
BRANCH  18  19
HETATM   19  N   UNL     1      41.448  54.893  47.042  1.00  0.00    -0.066 N 
HETATM   20  H   UNL     1      41.892  54.431  46.218  1.00  0.00     0.280 HD
HETATM   21  C   UNL     1      42.248  56.159  47.295  1.00  0.00     0.261 C 
HETATM   22  C   UNL     1      43.707  55.791  47.596  1.00  0.00     0.195 C 
HETATM   23  O   UNL     1      43.790  54.905  48.718  1.00  0.00    -0.388 OA
HETATM   24  C   UNL     1      43.100  53.676  48.464  1.00  0.00     0.195 C 
HETATM   25  C   UNL     1      41.610  53.926  48.204  1.00  0.00     0.261 C 
ENDBRANCH  18  19
ENDBRANCH  17  18
ENDBRANCH  14  17
ENDBRANCH  10  13
ENDBRANCH   4   7
BRANCH   1  26
HETATM   26  N   UNL     1      30.947  51.458  40.327  1.00  0.00    -0.056 N 
HETATM   27  C   UNL     1      29.755  50.646  40.914  1.00  0.00     0.257 C 
HETATM   28  C   UNL     1      28.856  51.637  41.676  1.00  0.00     0.041 C 
HETATM   29  C   UNL     1      28.382  52.799  40.805  1.00  0.00     0.004 C 
HETATM   30  C   UNL     1      29.556  53.510  40.151  1.00  0.00     0.028 C 
HETATM   31  C   UNL     1      30.471  52.552  39.398  1.00  0.00     0.236 C 
HETATM   32  H   UNL     1      31.305  51.958  41.148  1.00  0.00     0.281 HD
BRANCH  27  33
HETATM   33  C   UNL     1      28.951  49.846  39.921  1.00  0.00     0.136 A 
HETATM   34  N   UNL     1      28.370  48.623  40.192  1.00  0.00    -0.346 N 
HETATM   35  C   UNL     1      28.407  47.884  41.432  1.00  0.00     0.157 C 
HETATM   36  C   UNL     1      27.710  48.216  39.066  1.00  0.00     0.111 A 
HETATM   37  C   UNL     1      27.898  49.218  38.148  1.00  0.00     0.136 A 
HETATM   38  N   UNL     1      28.666  50.217  38.684  1.00  0.00    -0.244 NA
ENDBRANCH  27  33
ENDBRANCH   1  26
TORSDOF 7
ENDMDL
MODEL 10
REMARK VINA RESULT:      -7.6      2.604      3.463
REMARK  7 active torsions:
REMARK  status: ('A' for Active; 'I' for Inactive)
REMARK    1  A    between atoms: C_3  and  C_4 
REMARK    2  A    between atoms: N_5  and  C_7 
REMARK    3  A    between atoms: N_10  and  C_11 
REMARK    4  A    between atoms: C_14  and  C_15 
REMARK       I    between atoms: C_15  and  N_16 
REMARK    5  A    between atoms: N_16  and  C_17 
REMARK    6  A    between atoms: C_17  and  C_18 
REMARK    7  A    between atoms: C_18  and  N_19 
ROOT
HETATM    1  C   UNL     1      21.032  50.065  47.464  1.00  0.00     0.192 C 
HETATM    2  C   UNL     1      22.439  50.559  47.753  1.00  0.00     0.053 C 
HETATM    3  C   UNL     1      23.195  49.727  48.770  1.00  0.00     0.125 C 
HETATM    4  N   UNL     1      23.184  48.294  48.412  1.00  0.00    -0.381 N 
HETATM    5  C   UNL     1      21.881  47.701  48.075  1.00  0.00     0.125 C 
HETATM    6  C   UNL     1      21.045  48.569  47.140  1.00  0.00     0.053 C 
ENDROOT
BRANCH   4   7
HETATM    7  C   UNL     1      24.042  47.505  49.227  1.00  0.00     0.030 A 
HETATM    8  C   UNL     1      25.265  47.976  49.741  1.00  0.00     0.030 A 
HETATM    9  C   UNL     1      26.141  47.151  50.466  1.00  0.00     0.019 A 
HETATM   10  C   UNL     1      25.799  45.823  50.717  1.00  0.00     0.032 A 
HETATM   11  C   UNL     1      24.567  45.342  50.281  1.00  0.00     0.019 A 
HETATM   12  C   UNL     1      23.697  46.183  49.574  1.00  0.00     0.030 A 
BRANCH  10  13
HETATM   13  C   UNL     1      26.752  44.883  51.352  1.00  0.00     0.251 C 
HETATM   14  N   UNL     1      26.504  44.526  52.656  1.00  0.00    -0.355 N 
HETATM   15  H   UNL     1      25.670  44.906  53.096  1.00  0.00     0.162 HD
HETATM   16  O   UNL     1      27.713  44.459  50.719  1.00  0.00    -0.268 OA
BRANCH  14  17
HETATM   17  C   UNL     1      27.470  43.873  53.538  1.00  0.00     0.150 C 
BRANCH  17  18
HETATM   18  C   UNL     1      27.432  42.329  53.609  1.00  0.00     0.254 C 
BRANCH  18  19
HETATM   19  N   UNL     1      27.802  41.660  52.308  1.00  0.00    -0.066 N 
HETATM   20  H   UNL     1      28.299  42.389  51.750  1.00  0.00     0.280 HD
HETATM   21  C   UNL     1      28.768  40.494  52.431  1.00  0.00     0.261 C 
HETATM   22  C   UNL     1      29.116  39.968  51.032  1.00  0.00     0.195 C 
HETATM   23  O   UNL     1      27.934  39.577  50.324  1.00  0.00    -0.388 OA
HETATM   24  C   UNL     1      27.046  40.685  50.138  1.00  0.00     0.195 C 
HETATM   25  C   UNL     1      26.590  41.256  51.486  1.00  0.00     0.261 C 
ENDBRANCH  18  19
ENDBRANCH  17  18
ENDBRANCH  14  17
ENDBRANCH  10  13
ENDBRANCH   4   7
BRANCH   1  26
HETATM   26  N   UNL     1      19.936  50.438  48.475  1.00  0.00    -0.056 N 
HETATM   27  C   UNL     1      18.651  49.566  48.358  1.00  0.00     0.257 C 
HETATM   28  C   UNL     1      17.848  49.753  49.658  1.00  0.00     0.041 C 
HETATM   29  C   UNL     1      17.521  51.215  49.949  1.00  0.00     0.004 C 
HETATM   30  C   UNL     1      18.778  52.071  49.949  1.00  0.00     0.028 C 
HETATM   31  C   UNL     1      19.599  51.899  48.677  1.00  0.00     0.236 C 
HETATM   32  H   UNL     1      20.328  50.139  49.375  1.00  0.00     0.281 HD
BRANCH  27  33
HETATM   33  C   UNL     1      17.786  49.828  47.151  1.00  0.00     0.136 A 
HETATM   34  N   UNL     1      16.995  48.878  46.536  1.00  0.00    -0.346 N 
HETATM   35  C   UNL     1      16.834  47.490  46.906  1.00  0.00     0.157 C 
HETATM   36  C   UNL     1      16.346  49.484  45.497  1.00  0.00     0.111 A 
HETATM   37  C   UNL     1      16.752  50.794  45.524  1.00  0.00     0.136 A 
HETATM   38  N   UNL     1      17.641  50.995  46.546  1.00  0.00    -0.244 NA
ENDBRANCH  27  33
ENDBRANCH   1  26
TORSDOF 7
ENDMDL
