MODEL 1
REMARK VINA RESULT:      -7.9      0.000      0.000
REMARK  9 active torsions:
REMARK  status: ('A' for Active; 'I' for Inactive)
REMARK    1  A    between atoms: O_2  and  C_3 
REMARK    2  A    between atoms: C_6  and  C_7 
REMARK    3  A    between atoms: C_13  and  C_14 
REMARK       I    between atoms: C_14  and  N_15 
REMARK    4  A    between atoms: N_15  and  N_16 
REMARK    5  A    between atoms: N_16  and  C_17 
REMARK    6  A    between atoms: C_17  and  N_18 
REMARK    7  A    between atoms: N_18  and  C_19 
REMARK    8  A    between atoms: C_19  and  C_20 
REMARK    9  A    between atoms: C_27  and  C_28 
ROOT
HETATM    1  C   UNL     1      29.186  50.718  38.068  1.00  0.00     0.118 C 
HETATM    2  N   UNL     1      30.573  51.104  38.299  1.00  0.00    -0.365 N 
HETATM    3  C   UNL     1      30.931  51.942  39.301  1.00  0.00     0.138 A 
HETATM    4  N   UNL     1      29.994  52.667  39.983  1.00  0.00    -0.240 N 
HETATM    5  N   UNL     1      30.520  53.544  40.855  1.00  0.00    -0.181 NA
HETATM    6  C   UNL     1      31.831  53.282  40.785  1.00  0.00     0.160 A 
HETATM    7  C   UNL     1      32.157  52.272  39.847  1.00  0.00     0.098 A 
HETATM    8  C   UNL     1      28.567  52.593  39.741  1.00  0.00     0.221 C 
HETATM    9  C   UNL     1      28.280  51.928  38.379  1.00  0.00     0.066 C 
HETATM   10  H   UNL     1      31.284  50.521  37.851  1.00  0.00     0.161 HD
ENDROOT
BRANCH   7  11
HETATM   11  C   UNL     1      33.439  51.722  39.446  1.00  0.00     0.275 C 
HETATM   12  N   UNL     1      33.978  50.654  40.150  1.00  0.00    -0.263 N 
HETATM   13  H   UNL     1      34.798  50.286  39.673  1.00  0.00     0.190 HD
HETATM   14  O   UNL     1      34.083  52.185  38.503  1.00  0.00    -0.266 OA
BRANCH  12  15
HETATM   15  N   UNL     1      33.175  49.664  40.751  1.00  0.00    -0.274 N 
HETATM   16  H   UNL     1      32.749  48.974  40.139  1.00  0.00     0.189 HD
BRANCH  15  17
HETATM   17  C   UNL     1      32.853  49.714  42.085  1.00  0.00     0.186 C 
HETATM   18  S   UNL     1      31.438  49.141  42.766  1.00  0.00    -0.040 SA
BRANCH  17  19
HETATM   19  N   UNL     1      33.787  50.249  42.920  1.00  0.00    -0.360 N 
HETATM   20  H   UNL     1      34.636  49.702  42.994  1.00  0.00     0.162 HD
BRANCH  19  21
HETATM   21  C   UNL     1      33.808  51.573  43.513  1.00  0.00     0.187 C 
BRANCH  21  22
HETATM   22  C   UNL     1      35.155  52.166  43.362  1.00  0.00     0.070 A 
HETATM   23  O   UNL     1      35.615  52.318  42.086  1.00  0.00    -0.325 OA
HETATM   24  C   UNL     1      36.848  52.885  42.177  1.00  0.00     0.142 A 
HETATM   25  C   UNL     1      37.190  53.082  43.493  1.00  0.00     0.027 A 
HETATM   26  C   UNL     1      36.098  52.617  44.263  1.00  0.00     0.036 A 
ENDBRANCH  21  22
ENDBRANCH  19  21
ENDBRANCH  17  19
ENDBRANCH  15  17
ENDBRANCH  12  15
ENDBRANCH   7  11
BRANCH   1  27
HETATM   27  C   UNL     1      28.808  49.418  38.759  1.00  0.00    -0.035 A 
HETATM   28  C   UNL     1      29.722  48.672  39.521  1.00  0.00     0.012 A 
HETATM   29  C   UNL     1      29.341  47.476  40.138  1.00  0.00     0.037 A 
HETATM   30  C   UNL     1      28.041  46.991  40.011  1.00  0.00     0.068 A 
HETATM   31  C   UNL     1      27.130  47.698  39.230  1.00  0.00     0.037 A 
HETATM   32  C   UNL     1      27.512  48.894  38.606  1.00  0.00     0.012 A 
BRANCH  30  33
HETATM   33  O   UNL     1      27.795  45.822  40.675  1.00  0.00    -0.356 OA
HETATM   34  C   UNL     1      26.465  45.622  41.137  1.00  0.00     0.210 C 
ENDBRANCH  30  33
ENDBRANCH   1  27
BRANCH   8  35
HETATM   35  C   UNL     1      27.873  51.923  40.906  1.00  0.00     0.409 C 
HETATM   36  F   UNL     1      26.820  51.162  40.561  1.00  0.00    -0.169 F 
HETATM   37  F   UNL     1      28.721  51.141  41.618  1.00  0.00    -0.169 F 
HETATM   38  F   UNL     1      27.417  52.863  41.778  1.00  0.00    -0.169 F 
ENDBRANCH   8  35
TORSDOF 9
ENDMDL
MODEL 2
REMARK VINA RESULT:      -7.7     11.060     14.018
REMARK  9 active torsions:
REMARK  status: ('A' for Active; 'I' for Inactive)
REMARK    1  A    between atoms: O_2  and  C_3 
REMARK    2  A    between atoms: C_6  and  C_7 
REMARK    3  A    between atoms: C_13  and  C_14 
REMARK       I    between atoms: C_14  and  N_15 
REMARK    4  A    between atoms: N_15  and  N_16 
REMARK    5  A    between atoms: N_16  and  C_17 
REMARK    6  A    between atoms: C_17  and  N_18 
REMARK    7  A    between atoms: N_18  and  C_19 
REMARK    8  A    between atoms: C_19  and  C_20 
REMARK    9  A    between atoms: C_27  and  C_28 
ROOT
HETATM    1  C   UNL     1      19.758  49.507  50.025  1.00  0.00     0.118 C 
HETATM    2  N   UNL     1      19.104  48.320  49.489  1.00  0.00    -0.365 N 
HETATM    3  C   UNL     1      18.196  48.387  48.486  1.00  0.00     0.138 A 
HETATM    4  N   UNL     1      17.658  49.584  48.102  1.00  0.00    -0.240 N 
HETATM    5  N   UNL     1      16.680  49.466  47.186  1.00  0.00    -0.181 NA
HETATM    6  C   UNL     1      16.680  48.155  46.918  1.00  0.00     0.160 A 
HETATM    7  C   UNL     1      17.622  47.421  47.681  1.00  0.00     0.098 A 
HETATM    8  C   UNL     1      18.014  50.865  48.677  1.00  0.00     0.221 C 
HETATM    9  C   UNL     1      18.745  50.671  50.022  1.00  0.00     0.066 C 
HETATM   10  H   UNL     1      19.543  47.423  49.711  1.00  0.00     0.161 HD
ENDROOT
BRANCH   7  11
HETATM   11  C   UNL     1      17.917  46.001  47.721  1.00  0.00     0.275 C 
HETATM   12  N   UNL     1      18.985  45.500  46.992  1.00  0.00    -0.263 N 
HETATM   13  H   UNL     1      19.158  44.525  47.228  1.00  0.00     0.190 HD
HETATM   14  O   UNL     1      17.233  45.210  48.374  1.00  0.00    -0.266 OA
BRANCH  12  15
HETATM   15  N   UNL     1      20.158  46.248  46.762  1.00  0.00    -0.274 N 
HETATM   16  H   UNL     1      20.077  47.260  46.779  1.00  0.00     0.189 HD
BRANCH  15  17
HETATM   17  C   UNL     1      21.331  45.644  46.381  1.00  0.00     0.186 C 
HETATM   18  S   UNL     1      21.573  44.799  44.959  1.00  0.00    -0.040 SA
BRANCH  17  19
HETATM   19  N   UNL     1      22.391  45.777  47.227  1.00  0.00    -0.360 N 
HETATM   20  H   UNL     1      23.027  46.525  46.977  1.00  0.00     0.162 HD
BRANCH  19  21
HETATM   21  C   UNL     1      22.591  45.154  48.522  1.00  0.00     0.187 C 
BRANCH  21  22
HETATM   22  C   UNL     1      23.827  45.678  49.142  1.00  0.00     0.070 A 
HETATM   23  O   UNL     1      24.946  44.907  49.019  1.00  0.00    -0.325 OA
HETATM   24  C   UNL     1      25.955  45.574  49.640  1.00  0.00     0.142 A 
HETATM   25  C   UNL     1      25.494  46.753  50.174  1.00  0.00     0.027 A 
HETATM   26  C   UNL     1      24.117  46.824  49.855  1.00  0.00     0.036 A 
ENDBRANCH  21  22
ENDBRANCH  19  21
ENDBRANCH  17  19
ENDBRANCH  15  17
ENDBRANCH  12  15
ENDBRANCH   7  11
BRANCH   1  27
HETATM   27  C   UNL     1      21.096  49.798  49.363  1.00  0.00    -0.035 A 
HETATM   28  C   UNL     1      21.578  49.057  48.272  1.00  0.00     0.012 A 
HETATM   29  C   UNL     1      22.817  49.349  47.692  1.00  0.00     0.037 A 
HETATM   30  C   UNL     1      23.608  50.384  48.184  1.00  0.00     0.068 A 
HETATM   31  C   UNL     1      23.163  51.108  49.288  1.00  0.00     0.037 A 
HETATM   32  C   UNL     1      21.925  50.813  49.875  1.00  0.00     0.012 A 
BRANCH  30  33
HETATM   33  O   UNL     1      24.786  50.574  47.519  1.00  0.00    -0.356 OA
HETATM   34  C   UNL     1      25.926  49.904  48.042  1.00  0.00     0.210 C 
ENDBRANCH  30  33
ENDBRANCH   1  27
BRANCH   8  35
HETATM   35  C   UNL     1      18.788  51.691  47.675  1.00  0.00     0.409 C 
HETATM   36  F   UNL     1      19.540  50.970  46.825  1.00  0.00    -0.169 F 
HETATM   37  F   UNL     1      17.974  52.475  46.929  1.00  0.00    -0.169 F 
HETATM   38  F   UNL     1      19.627  52.543  48.325  1.00  0.00    -0.169 F 
ENDBRANCH   8  35
TORSDOF 9
ENDMDL
MODEL 3
REMARK VINA RESULT:      -7.7     11.297     13.947
REMARK  9 active torsions:
REMARK  status: ('A' for Active; 'I' for Inactive)
REMARK    1  A    between atoms: O_2  and  C_3 
REMARK    2  A    between atoms: C_6  and  C_7 
REMARK    3  A    between atoms: C_13  and  C_14 
REMARK       I    between atoms: C_14  and  N_15 
REMARK    4  A    between atoms: N_15  and  N_16 
REMARK    5  A    between atoms: N_16  and  C_17 
REMARK    6  A    between atoms: C_17  and  N_18 
REMARK    7  A    between atoms: N_18  and  C_19 
REMARK    8  A    between atoms: C_19  and  C_20 
REMARK    9  A    between atoms: C_27  and  C_28 
ROOT
HETATM    1  C   UNL     1      25.763  43.033  50.831  1.00  0.00     0.118 C 
HETATM    2  N   UNL     1      26.538  42.244  49.882  1.00  0.00    -0.365 N 
HETATM    3  C   UNL     1      26.006  41.779  48.726  1.00  0.00     0.138 A 
HETATM    4  N   UNL     1      24.656  41.806  48.510  1.00  0.00    -0.240 N 
HETATM    5  N   UNL     1      24.279  41.192  47.375  1.00  0.00    -0.181 NA
HETATM    6  C   UNL     1      25.448  40.860  46.815  1.00  0.00     0.160 A 
HETATM    7  C   UNL     1      26.573  41.219  47.597  1.00  0.00     0.098 A 
HETATM    8  C   UNL     1      23.688  42.348  49.443  1.00  0.00     0.221 C 
HETATM    9  C   UNL     1      24.314  42.504  50.844  1.00  0.00     0.066 C 
HETATM   10  H   UNL     1      27.554  42.277  49.991  1.00  0.00     0.161 HD
ENDROOT
BRANCH   7  11
HETATM   11  C   UNL     1      27.993  41.014  47.375  1.00  0.00     0.275 C 
HETATM   12  N   UNL     1      28.755  40.378  48.345  1.00  0.00    -0.263 N 
HETATM   13  H   UNL     1      29.689  40.177  47.995  1.00  0.00     0.190 HD
HETATM   14  O   UNL     1      28.558  41.405  46.352  1.00  0.00    -0.266 OA
BRANCH  12  15
HETATM   15  N   UNL     1      28.228  39.369  49.177  1.00  0.00    -0.274 N 
HETATM   16  H   UNL     1      27.390  38.891  48.857  1.00  0.00     0.189 HD
BRANCH  15  17
HETATM   17  C   UNL     1      28.730  39.141  50.434  1.00  0.00     0.186 C 
HETATM   18  S   UNL     1      29.791  37.918  50.851  1.00  0.00    -0.040 SA
BRANCH  17  19
HETATM   19  N   UNL     1      28.348  40.009  51.412  1.00  0.00    -0.360 N 
HETATM   20  H   UNL     1      27.366  40.256  51.384  1.00  0.00     0.162 HD
BRANCH  19  21
HETATM   21  C   UNL     1      29.095  40.427  52.584  1.00  0.00     0.187 C 
BRANCH  21  22
HETATM   22  C   UNL     1      28.719  41.810  52.949  1.00  0.00     0.070 A 
HETATM   23  O   UNL     1      27.697  41.950  53.842  1.00  0.00    -0.325 OA
HETATM   24  C   UNL     1      27.529  43.284  54.043  1.00  0.00     0.142 A 
HETATM   25  C   UNL     1      28.417  44.001  53.277  1.00  0.00     0.027 A 
HETATM   26  C   UNL     1      29.188  43.050  52.567  1.00  0.00     0.036 A 
ENDBRANCH  21  22
ENDBRANCH  19  21
ENDBRANCH  17  19
ENDBRANCH  15  17
ENDBRANCH  12  15
ENDBRANCH   7  11
BRANCH   1  27
HETATM   27  C   UNL     1      25.913  44.532  50.619  1.00  0.00    -0.035 A 
HETATM   28  C   UNL     1      26.855  45.081  49.734  1.00  0.00     0.012 A 
HETATM   29  C   UNL     1      26.970  46.465  49.569  1.00  0.00     0.037 A 
HETATM   30  C   UNL     1      26.152  47.338  50.283  1.00  0.00     0.068 A 
HETATM   31  C   UNL     1      25.236  46.814  51.193  1.00  0.00     0.037 A 
HETATM   32  C   UNL     1      25.124  45.427  51.364  1.00  0.00     0.012 A 
BRANCH  30  33
HETATM   33  O   UNL     1      26.356  48.663  50.019  1.00  0.00    -0.356 OA
HETATM   34  C   UNL     1      27.215  48.969  48.927  1.00  0.00     0.210 C 
ENDBRANCH  30  33
ENDBRANCH   1  27
BRANCH   8  35
HETATM   35  C   UNL     1      23.092  43.625  48.895  1.00  0.00     0.409 C 
HETATM   36  F   UNL     1      23.959  44.393  48.213  1.00  0.00    -0.169 F 
HETATM   37  F   UNL     1      22.038  43.382  48.078  1.00  0.00    -0.169 F 
HETATM   38  F   UNL     1      22.603  44.383  49.914  1.00  0.00    -0.169 F 
ENDBRANCH   8  35
TORSDOF 9
ENDMDL
MODEL 4
REMARK VINA RESULT:      -7.7     11.838     13.935
REMARK  9 active torsions:
REMARK  status: ('A' for Active; 'I' for Inactive)
REMARK    1  A    between atoms: O_2  and  C_3 
REMARK    2  A    between atoms: C_6  and  C_7 
REMARK    3  A    between atoms: C_13  and  C_14 
REMARK       I    between atoms: C_14  and  N_15 
REMARK    4  A    between atoms: N_15  and  N_16 
REMARK    5  A    between atoms: N_16  and  C_17 
REMARK    6  A    between atoms: C_17  and  N_18 
REMARK    7  A    between atoms: N_18  and  C_19 
REMARK    8  A    between atoms: C_19  and  C_20 
REMARK    9  A    between atoms: C_27  and  C_28 
ROOT
HETATM    1  C   UNL     1      19.309  50.174  50.092  1.00  0.00     0.118 C 
HETATM    2  N   UNL     1      20.687  49.980  49.659  1.00  0.00    -0.365 N 
HETATM    3  C   UNL     1      21.103  48.836  49.065  1.00  0.00     0.138 A 
HETATM    4  N   UNL     1      20.321  47.714  49.073  1.00  0.00    -0.240 N 
HETATM    5  N   UNL     1      20.928  46.630  48.559  1.00  0.00    -0.181 NA
HETATM    6  C   UNL     1      22.094  47.122  48.122  1.00  0.00     0.160 A 
HETATM    7  C   UNL     1      22.260  48.503  48.387  1.00  0.00     0.098 A 
HETATM    8  C   UNL     1      19.000  47.640  49.663  1.00  0.00     0.221 C 
HETATM    9  C   UNL     1      18.764  48.830  50.617  1.00  0.00     0.066 C 
HETATM   10  H   UNL     1      21.259  50.825  49.579  1.00  0.00     0.161 HD
ENDROOT
BRANCH   7  11
HETATM   11  C   UNL     1      23.369  49.399  48.115  1.00  0.00     0.275 C 
HETATM   12  N   UNL     1      24.476  49.396  48.952  1.00  0.00    -0.263 N 
HETATM   13  H   UNL     1      25.225  49.963  48.561  1.00  0.00     0.190 HD
HETATM   14  O   UNL     1      23.356  50.186  47.166  1.00  0.00    -0.266 OA
BRANCH  12  15
HETATM   15  N   UNL     1      24.923  48.230  49.607  1.00  0.00    -0.274 N 
HETATM   16  H   UNL     1      24.253  47.735  50.187  1.00  0.00     0.189 HD
BRANCH  15  17
HETATM   17  C   UNL     1      26.245  47.860  49.587  1.00  0.00     0.186 C 
HETATM   18  S   UNL     1      27.526  48.845  49.162  1.00  0.00    -0.040 SA
BRANCH  17  19
HETATM   19  N   UNL     1      26.529  46.586  49.980  1.00  0.00    -0.360 N 
HETATM   20  H   UNL     1      27.452  46.268  49.710  1.00  0.00     0.162 HD
BRANCH  19  21
HETATM   21  C   UNL     1      25.791  45.744  50.904  1.00  0.00     0.187 C 
BRANCH  21  22
HETATM   22  C   UNL     1      26.069  46.166  52.294  1.00  0.00     0.070 A 
HETATM   23  O   UNL     1      25.519  47.349  52.695  1.00  0.00    -0.325 OA
HETATM   24  C   UNL     1      25.884  47.535  53.991  1.00  0.00     0.142 A 
HETATM   25  C   UNL     1      26.675  46.496  54.421  1.00  0.00     0.027 A 
HETATM   26  C   UNL     1      26.797  45.609  53.325  1.00  0.00     0.036 A 
ENDBRANCH  21  22
ENDBRANCH  19  21
ENDBRANCH  17  19
ENDBRANCH  15  17
ENDBRANCH  12  15
ENDBRANCH   7  11
BRANCH   1  27
HETATM   27  C   UNL     1      18.450  50.869  49.047  1.00  0.00    -0.035 A 
HETATM   28  C   UNL     1      18.949  51.258  47.794  1.00  0.00     0.012 A 
HETATM   29  C   UNL     1      18.131  51.901  46.859  1.00  0.00     0.037 A 
HETATM   30  C   UNL     1      16.797  52.175  47.148  1.00  0.00     0.068 A 
HETATM   31  C   UNL     1      16.293  51.829  48.400  1.00  0.00     0.037 A 
HETATM   32  C   UNL     1      17.113  51.191  49.340  1.00  0.00     0.012 A 
BRANCH  30  33
HETATM   33  O   UNL     1      16.105  52.793  46.145  1.00  0.00    -0.356 OA
HETATM   34  C   UNL     1      14.756  52.383  45.958  1.00  0.00     0.210 C 
ENDBRANCH  30  33
ENDBRANCH   1  27
BRANCH   8  35
HETATM   35  C   UNL     1      17.951  47.509  48.581  1.00  0.00     0.409 C 
HETATM   36  F   UNL     1      18.280  48.097  47.417  1.00  0.00    -0.169 F 
HETATM   37  F   UNL     1      17.662  46.213  48.312  1.00  0.00    -0.169 F 
HETATM   38  F   UNL     1      16.783  48.070  48.996  1.00  0.00    -0.169 F 
ENDBRANCH   8  35
TORSDOF 9
ENDMDL
MODEL 5
REMARK VINA RESULT:      -7.6      2.966      7.135
REMARK  9 active torsions:
REMARK  status: ('A' for Active; 'I' for Inactive)
REMARK    1  A    between atoms: O_2  and  C_3 
REMARK    2  A    between atoms: C_6  and  C_7 
REMARK    3  A    between atoms: C_13  and  C_14 
REMARK       I    between atoms: C_14  and  N_15 
REMARK    4  A    between atoms: N_15  and  N_16 
REMARK    5  A    between atoms: N_16  and  C_17 
REMARK    6  A    between atoms: C_17  and  N_18 
REMARK    7  A    between atoms: N_18  and  C_19 
REMARK    8  A    between atoms: C_19  and  C_20 
REMARK    9  A    between atoms: C_27  and  C_28 
ROOT
HETATM    1  C   UNL     1      32.085  49.456  40.869  1.00  0.00     0.118 C 
HETATM    2  N   UNL     1      30.966  49.915  40.055  1.00  0.00    -0.365 N 
HETATM    3  C   UNL     1      30.100  50.862  40.487  1.00  0.00     0.138 A 
HETATM    4  N   UNL     1      30.076  51.251  41.798  1.00  0.00    -0.240 N 
HETATM    5  N   UNL     1      29.077  52.101  42.090  1.00  0.00    -0.181 NA
HETATM    6  C   UNL     1      28.520  52.328  40.895  1.00  0.00     0.160 A 
HETATM    7  C   UNL     1      29.127  51.601  39.841  1.00  0.00     0.098 A 
HETATM    8  C   UNL     1      30.965  50.737  42.820  1.00  0.00     0.221 C 
HETATM    9  C   UNL     1      31.642  49.434  42.347  1.00  0.00     0.066 C 
HETATM   10  H   UNL     1      31.012  49.692  39.058  1.00  0.00     0.161 HD
ENDROOT
BRANCH   7  11
HETATM   11  C   UNL     1      28.814  51.535  38.425  1.00  0.00     0.275 C 
HETATM   12  N   UNL     1      27.704  50.819  38.000  1.00  0.00    -0.263 N 
HETATM   13  H   UNL     1      27.528  50.979  37.010  1.00  0.00     0.190 HD
HETATM   14  O   UNL     1      29.517  52.082  37.574  1.00  0.00    -0.266 OA
BRANCH  12  15
HETATM   15  N   UNL     1      26.532  50.713  38.777  1.00  0.00    -0.274 N 
HETATM   16  H   UNL     1      26.231  51.540  39.283  1.00  0.00     0.189 HD
BRANCH  15  17
HETATM   17  C   UNL     1      25.904  49.506  38.968  1.00  0.00     0.186 C 
HETATM   18  S   UNL     1      25.018  48.679  37.818  1.00  0.00    -0.040 SA
BRANCH  17  19
HETATM   19  N   UNL     1      26.049  48.928  40.193  1.00  0.00    -0.360 N 
HETATM   20  H   UNL     1      25.196  48.524  40.561  1.00  0.00     0.162 HD
BRANCH  19  21
HETATM   21  C   UNL     1      27.276  48.625  40.905  1.00  0.00     0.187 C 
BRANCH  21  22
HETATM   22  C   UNL     1      28.080  47.658  40.125  1.00  0.00     0.070 A 
HETATM   23  O   UNL     1      28.663  48.129  38.985  1.00  0.00    -0.325 OA
HETATM   24  C   UNL     1      29.355  47.093  38.440  1.00  0.00     0.142 A 
HETATM   25  C   UNL     1      29.208  45.961  39.205  1.00  0.00     0.027 A 
HETATM   26  C   UNL     1      28.383  46.323  40.296  1.00  0.00     0.036 A 
ENDBRANCH  21  22
ENDBRANCH  19  21
ENDBRANCH  17  19
ENDBRANCH  15  17
ENDBRANCH  12  15
ENDBRANCH   7  11
BRANCH   1  27
HETATM   27  C   UNL     1      33.376  50.206  40.581  1.00  0.00    -0.035 A 
HETATM   28  C   UNL     1      33.449  51.261  39.657  1.00  0.00     0.012 A 
HETATM   29  C   UNL     1      34.655  51.925  39.412  1.00  0.00     0.037 A 
HETATM   30  C   UNL     1      35.820  51.555  40.080  1.00  0.00     0.068 A 
HETATM   31  C   UNL     1      35.776  50.488  40.975  1.00  0.00     0.037 A 
HETATM   32  C   UNL     1      34.569  49.818  41.216  1.00  0.00     0.012 A 
BRANCH  30  33
HETATM   33  O   UNL     1      36.925  52.292  39.761  1.00  0.00    -0.356 OA
HETATM   34  C   UNL     1      36.697  53.511  39.064  1.00  0.00     0.210 C 
ENDBRANCH  30  33
ENDBRANCH   1  27
BRANCH   8  35
HETATM   35  C   UNL     1      31.941  51.810  43.251  1.00  0.00     0.409 C 
HETATM   36  F   UNL     1      33.139  51.343  43.644  1.00  0.00    -0.169 F 
HETATM   37  F   UNL     1      32.162  52.717  42.270  1.00  0.00    -0.169 F 
HETATM   38  F   UNL     1      31.425  52.513  44.296  1.00  0.00    -0.169 F 
ENDBRANCH   8  35
TORSDOF 9
ENDMDL
MODEL 6
REMARK VINA RESULT:      -7.5      4.531      8.795
REMARK  9 active torsions:
REMARK  status: ('A' for Active; 'I' for Inactive)
REMARK    1  A    between atoms: O_2  and  C_3 
REMARK    2  A    between atoms: C_6  and  C_7 
REMARK    3  A    between atoms: C_13  and  C_14 
REMARK       I    between atoms: C_14  and  N_15 
REMARK    4  A    between atoms: N_15  and  N_16 
REMARK    5  A    between atoms: N_16  and  C_17 
REMARK    6  A    between atoms: C_17  and  N_18 
REMARK    7  A    between atoms: N_18  and  C_19 
REMARK    8  A    between atoms: C_19  and  C_20 
REMARK    9  A    between atoms: C_27  and  C_28 
ROOT
HETATM    1  C   UNL     1      28.778  51.429  41.655  1.00  0.00     0.118 C 
HETATM    2  N   UNL     1      27.898  50.300  41.379  1.00  0.00    -0.365 N 
HETATM    3  C   UNL     1      27.531  49.963  40.120  1.00  0.00     0.138 A 
HETATM    4  N   UNL     1      27.754  50.811  39.070  1.00  0.00    -0.240 N 
HETATM    5  N   UNL     1      27.216  50.389  37.913  1.00  0.00    -0.181 NA
HETATM    6  C   UNL     1      26.727  49.185  38.234  1.00  0.00     0.160 A 
HETATM    7  C   UNL     1      26.910  48.845  39.596  1.00  0.00     0.098 A 
HETATM    8  C   UNL     1      28.416  52.095  39.180  1.00  0.00     0.221 C 
HETATM    9  C   UNL     1      28.462  52.557  40.651  1.00  0.00     0.066 C 
HETATM   10  H   UNL     1      27.784  49.621  42.136  1.00  0.00     0.161 HD
ENDROOT
BRANCH   7  11
HETATM   11  C   UNL     1      26.506  47.671  40.348  1.00  0.00     0.275 C 
HETATM   12  N   UNL     1      25.285  47.664  41.007  1.00  0.00    -0.263 N 
HETATM   13  H   UNL     1      25.074  46.734  41.366  1.00  0.00     0.190 HD
HETATM   14  O   UNL     1      27.225  46.674  40.440  1.00  0.00    -0.266 OA
BRANCH  12  15
HETATM   15  N   UNL     1      24.158  48.354  40.515  1.00  0.00    -0.274 N 
HETATM   16  H   UNL     1      23.813  49.135  41.066  1.00  0.00     0.189 HD
BRANCH  15  17
HETATM   17  C   UNL     1      23.462  47.904  39.422  1.00  0.00     0.186 C 
HETATM   18  S   UNL     1      23.026  46.316  39.132  1.00  0.00    -0.040 SA
BRANCH  17  19
HETATM   19  N   UNL     1      23.070  48.843  38.516  1.00  0.00    -0.360 N 
HETATM   20  H   UNL     1      22.538  48.469  37.738  1.00  0.00     0.162 HD
BRANCH  19  21
HETATM   21  C   UNL     1      23.117  50.288  38.642  1.00  0.00     0.187 C 
BRANCH  21  22
HETATM   22  C   UNL     1      21.845  50.780  39.216  1.00  0.00     0.070 A 
HETATM   23  O   UNL     1      20.784  50.869  38.362  1.00  0.00    -0.325 OA
HETATM   24  C   UNL     1      19.730  51.324  39.090  1.00  0.00     0.142 A 
HETATM   25  C   UNL     1      20.105  51.544  40.394  1.00  0.00     0.027 A 
HETATM   26  C   UNL     1      21.473  51.194  40.478  1.00  0.00     0.036 A 
ENDBRANCH  21  22
ENDBRANCH  19  21
ENDBRANCH  17  19
ENDBRANCH  15  17
ENDBRANCH  12  15
ENDBRANCH   7  11
BRANCH   1  27
HETATM   27  C   UNL     1      30.242  51.030  41.757  1.00  0.00    -0.035 A 
HETATM   28  C   UNL     1      30.692  49.726  41.494  1.00  0.00     0.012 A 
HETATM   29  C   UNL     1      32.046  49.393  41.603  1.00  0.00     0.037 A 
HETATM   30  C   UNL     1      32.986  50.348  41.979  1.00  0.00     0.068 A 
HETATM   31  C   UNL     1      32.556  51.639  42.278  1.00  0.00     0.037 A 
HETATM   32  C   UNL     1      31.198  51.972  42.176  1.00  0.00     0.012 A 
BRANCH  30  33
HETATM   33  O   UNL     1      34.275  49.897  42.033  1.00  0.00    -0.356 OA
HETATM   34  C   UNL     1      35.297  50.880  41.917  1.00  0.00     0.210 C 
ENDBRANCH  30  33
ENDBRANCH   1  27
BRANCH   8  35
HETATM   35  C   UNL     1      29.773  52.042  38.514  1.00  0.00     0.409 C 
HETATM   36  F   UNL     1      30.715  52.788  39.117  1.00  0.00    -0.169 F 
HETATM   37  F   UNL     1      30.249  50.776  38.434  1.00  0.00    -0.169 F 
HETATM   38  F   UNL     1      29.677  52.484  37.231  1.00  0.00    -0.169 F 
ENDBRANCH   8  35
TORSDOF 9
ENDMDL
MODEL 7
REMARK VINA RESULT:      -7.4      2.467      3.871
REMARK  9 active torsions:
REMARK  status: ('A' for Active; 'I' for Inactive)
REMARK    1  A    between atoms: O_2  and  C_3 
REMARK    2  A    between atoms: C_6  and  C_7 
REMARK    3  A    between atoms: C_13  and  C_14 
REMARK       I    between atoms: C_14  and  N_15 
REMARK    4  A    between atoms: N_15  and  N_16 
REMARK    5  A    between atoms: N_16  and  C_17 
REMARK    6  A    between atoms: C_17  and  N_18 
REMARK    7  A    between atoms: N_18  and  C_19 
REMARK    8  A    between atoms: C_19  and  C_20 
REMARK    9  A    between atoms: C_27  and  C_28 
ROOT
HETATM    1  C   UNL     1      29.635  48.242  38.457  1.00  0.00     0.118 C 
HETATM    2  N   UNL     1      30.863  48.305  39.241  1.00  0.00    -0.365 N 
HETATM    3  C   UNL     1      30.903  48.862  40.475  1.00  0.00     0.138 A 
HETATM    4  N   UNL     1      29.863  49.617  40.942  1.00  0.00    -0.240 N 
HETATM    5  N   UNL     1      30.111  50.203  42.126  1.00  0.00    -0.181 NA
HETATM    6  C   UNL     1      31.312  49.712  42.455  1.00  0.00     0.160 A 
HETATM    7  C   UNL     1      31.857  48.846  41.475  1.00  0.00     0.098 A 
HETATM    8  C   UNL     1      28.637  49.863  40.210  1.00  0.00     0.221 C 
HETATM    9  C   UNL     1      28.819  49.525  38.716  1.00  0.00     0.066 C 
HETATM   10  H   UNL     1      31.622  47.688  38.942  1.00  0.00     0.161 HD
ENDROOT
BRANCH   7  11
HETATM   11  C   UNL     1      33.125  48.143  41.424  1.00  0.00     0.275 C 
HETATM   12  N   UNL     1      34.311  48.862  41.457  1.00  0.00    -0.263 N 
HETATM   13  H   UNL     1      35.109  48.238  41.560  1.00  0.00     0.190 HD
HETATM   14  O   UNL     1      33.189  46.915  41.333  1.00  0.00    -0.266 OA
BRANCH  12  15
HETATM   15  N   UNL     1      34.439  50.073  42.167  1.00  0.00    -0.274 N 
HETATM   16  H   UNL     1      33.910  50.168  43.028  1.00  0.00     0.189 HD
BRANCH  15  17
HETATM   17  C   UNL     1      35.127  51.141  41.645  1.00  0.00     0.186 C 
HETATM   18  S   UNL     1      36.770  51.408  41.799  1.00  0.00    -0.040 SA
BRANCH  17  19
HETATM   19  N   UNL     1      34.406  52.037  40.916  1.00  0.00    -0.360 N 
HETATM   20  H   UNL     1      34.630  53.005  41.114  1.00  0.00     0.162 HD
BRANCH  19  21
HETATM   21  C   UNL     1      33.555  51.784  39.768  1.00  0.00     0.187 C 
BRANCH  21  22
HETATM   22  C   UNL     1      32.226  52.394  39.988  1.00  0.00     0.070 A 
HETATM   23  O   UNL     1      32.054  53.078  41.157  1.00  0.00    -0.325 OA
HETATM   24  C   UNL     1      30.783  53.561  41.147  1.00  0.00     0.142 A 
HETATM   25  C   UNL     1      30.133  53.181  39.997  1.00  0.00     0.027 A 
HETATM   26  C   UNL     1      31.063  52.426  39.246  1.00  0.00     0.036 A 
ENDBRANCH  21  22
ENDBRANCH  19  21
ENDBRANCH  17  19
ENDBRANCH  15  17
ENDBRANCH  12  15
ENDBRANCH   7  11
BRANCH   1  27
HETATM   27  C   UNL     1      28.881  46.934  38.640  1.00  0.00    -0.035 A 
HETATM   28  C   UNL     1      29.425  45.835  39.324  1.00  0.00     0.012 A 
HETATM   29  C   UNL     1      28.705  44.645  39.468  1.00  0.00     0.037 A 
HETATM   30  C   UNL     1      27.425  44.518  38.934  1.00  0.00     0.068 A 
HETATM   31  C   UNL     1      26.881  45.584  38.221  1.00  0.00     0.037 A 
HETATM   32  C   UNL     1      27.605  46.775  38.070  1.00  0.00     0.012 A 
BRANCH  30  33
HETATM   33  O   UNL     1      26.825  43.310  39.157  1.00  0.00    -0.356 OA
HETATM   34  C   UNL     1      27.276  42.577  40.289  1.00  0.00     0.210 C 
ENDBRANCH  30  33
ENDBRANCH   1  27
BRANCH   8  35
HETATM   35  C   UNL     1      27.482  49.137  40.865  1.00  0.00     0.409 C 
HETATM   36  F   UNL     1      27.780  47.900  41.297  1.00  0.00    -0.169 F 
HETATM   37  F   UNL     1      26.985  49.826  41.920  1.00  0.00    -0.169 F 
HETATM   38  F   UNL     1      26.452  49.015  39.984  1.00  0.00    -0.169 F 
ENDBRANCH   8  35
TORSDOF 9
ENDMDL
MODEL 8
REMARK VINA RESULT:      -7.4     12.307     14.584
REMARK  9 active torsions:
REMARK  status: ('A' for Active; 'I' for Inactive)
REMARK    1  A    between atoms: O_2  and  C_3 
REMARK    2  A    between atoms: C_6  and  C_7 
REMARK    3  A    between atoms: C_13  and  C_14 
REMARK       I    between atoms: C_14  and  N_15 
REMARK    4  A    between atoms: N_15  and  N_16 
REMARK    5  A    between atoms: N_16  and  C_17 
REMARK    6  A    between atoms: C_17  and  N_18 
REMARK    7  A    between atoms: N_18  and  C_19 
REMARK    8  A    between atoms: C_19  and  C_20 
REMARK    9  A    between atoms: C_27  and  C_28 
ROOT
HETATM    1  C   UNL     1      24.107  43.733  50.982  1.00  0.00     0.118 C 
HETATM    2  N   UNL     1      23.079  44.238  50.081  1.00  0.00    -0.365 N 
HETATM    3  C   UNL     1      23.145  45.474  49.532  1.00  0.00     0.138 A 
HETATM    4  N   UNL     1      24.038  46.403  49.991  1.00  0.00    -0.240 N 
HETATM    5  N   UNL     1      23.889  47.616  49.432  1.00  0.00    -0.181 NA
HETATM    6  C   UNL     1      22.934  47.407  48.518  1.00  0.00     0.160 A 
HETATM    7  C   UNL     1      22.439  46.080  48.510  1.00  0.00     0.098 A 
HETATM    8  C   UNL     1      24.998  46.162  51.049  1.00  0.00     0.221 C 
HETATM    9  C   UNL     1      24.617  44.901  51.852  1.00  0.00     0.066 C 
HETATM   10  H   UNL     1      22.452  43.539  49.675  1.00  0.00     0.161 HD
ENDROOT
BRANCH   7  11
HETATM   11  C   UNL     1      21.398  45.456  47.714  1.00  0.00     0.275 C 
HETATM   12  N   UNL     1      20.179  45.146  48.299  1.00  0.00    -0.263 N 
HETATM   13  H   UNL     1      19.505  44.851  47.595  1.00  0.00     0.190 HD
HETATM   14  O   UNL     1      21.566  45.171  46.527  1.00  0.00    -0.266 OA
BRANCH  12  15
HETATM   15  N   UNL     1      19.619  45.924  49.334  1.00  0.00    -0.274 N 
HETATM   16  H   UNL     1      19.498  45.479  50.239  1.00  0.00     0.189 HD
BRANCH  15  17
HETATM   17  C   UNL     1      19.117  47.179  49.096  1.00  0.00     0.186 C 
HETATM   18  S   UNL     1      17.916  47.554  47.995  1.00  0.00    -0.040 SA
BRANCH  17  19
HETATM   19  N   UNL     1      19.625  48.194  49.848  1.00  0.00    -0.360 N 
HETATM   20  H   UNL     1      20.602  48.394  49.666  1.00  0.00     0.162 HD
BRANCH  19  21
HETATM   21  C   UNL     1      18.908  49.144  50.679  1.00  0.00     0.187 C 
BRANCH  21  22
HETATM   22  C   UNL     1      18.848  50.456  49.999  1.00  0.00     0.070 A 
HETATM   23  O   UNL     1      17.782  51.253  50.303  1.00  0.00    -0.325 OA
HETATM   24  C   UNL     1      17.931  52.400  49.588  1.00  0.00     0.142 A 
HETATM   25  C   UNL     1      19.067  52.341  48.817  1.00  0.00     0.027 A 
HETATM   26  C   UNL     1      19.662  51.084  49.080  1.00  0.00     0.036 A 
ENDBRANCH  21  22
ENDBRANCH  19  21
ENDBRANCH  17  19
ENDBRANCH  15  17
ENDBRANCH  12  15
ENDBRANCH   7  11
BRANCH   1  27
HETATM   27  C   UNL     1      25.181  42.928  50.268  1.00  0.00    -0.035 A 
HETATM   28  C   UNL     1      25.110  42.618  48.900  1.00  0.00     0.012 A 
HETATM   29  C   UNL     1      26.114  41.869  48.277  1.00  0.00     0.037 A 
HETATM   30  C   UNL     1      27.212  41.409  48.998  1.00  0.00     0.068 A 
HETATM   31  C   UNL     1      27.284  41.676  50.364  1.00  0.00     0.037 A 
HETATM   32  C   UNL     1      26.275  42.420  50.992  1.00  0.00     0.012 A 
BRANCH  30  33
HETATM   33  O   UNL     1      28.127  40.704  48.268  1.00  0.00    -0.356 OA
HETATM   34  C   UNL     1      28.835  39.680  48.955  1.00  0.00     0.210 C 
ENDBRANCH  30  33
ENDBRANCH   1  27
BRANCH   8  35
HETATM   35  C   UNL     1      26.401  46.125  50.484  1.00  0.00     0.409 C 
HETATM   36  F   UNL     1      27.266  45.385  51.198  1.00  0.00    -0.169 F 
HETATM   37  F   UNL     1      26.422  45.658  49.213  1.00  0.00    -0.169 F 
HETATM   38  F   UNL     1      26.909  47.386  50.424  1.00  0.00    -0.169 F 
ENDBRANCH   8  35
TORSDOF 9
ENDMDL
MODEL 9
REMARK VINA RESULT:      -7.3      1.771      2.641
REMARK  9 active torsions:
REMARK  status: ('A' for Active; 'I' for Inactive)
REMARK    1  A    between atoms: O_2  and  C_3 
REMARK    2  A    between atoms: C_6  and  C_7 
REMARK    3  A    between atoms: C_13  and  C_14 
REMARK       I    between atoms: C_14  and  N_15 
REMARK    4  A    between atoms: N_15  and  N_16 
REMARK    5  A    between atoms: N_16  and  C_17 
REMARK    6  A    between atoms: C_17  and  N_18 
REMARK    7  A    between atoms: N_18  and  C_19 
REMARK    8  A    between atoms: C_19  and  C_20 
REMARK    9  A    between atoms: C_27  and  C_28 
ROOT
HETATM    1  C   UNL     1      28.934  50.821  38.025  1.00  0.00     0.118 C 
HETATM    2  N   UNL     1      30.334  51.217  38.112  1.00  0.00    -0.365 N 
HETATM    3  C   UNL     1      30.796  52.023  39.098  1.00  0.00     0.138 A 
HETATM    4  N   UNL     1      29.935  52.710  39.908  1.00  0.00    -0.240 N 
HETATM    5  N   UNL     1      30.549  53.562  40.747  1.00  0.00    -0.181 NA
HETATM    6  C   UNL     1      31.846  53.322  40.519  1.00  0.00     0.160 A 
HETATM    7  C   UNL     1      32.073  52.351  39.513  1.00  0.00     0.098 A 
HETATM    8  C   UNL     1      28.491  52.625  39.828  1.00  0.00     0.221 C 
HETATM    9  C   UNL     1      28.058  52.005  38.483  1.00  0.00     0.066 C 
HETATM   10  H   UNL     1      30.995  50.661  37.565  1.00  0.00     0.161 HD
ENDROOT
BRANCH   7  11
HETATM   11  C   UNL     1      33.306  51.833  38.949  1.00  0.00     0.275 C 
HETATM   12  N   UNL     1      34.524  52.224  39.486  1.00  0.00    -0.263 N 
HETATM   13  H   UNL     1      35.285  51.677  39.090  1.00  0.00     0.190 HD
HETATM   14  O   UNL     1      33.312  51.064  37.986  1.00  0.00    -0.266 OA
BRANCH  12  15
HETATM   15  N   UNL     1      34.685  52.518  40.856  1.00  0.00    -0.274 N 
HETATM   16  H   UNL     1      34.097  53.246  41.249  1.00  0.00     0.189 HD
BRANCH  15  17
HETATM   17  C   UNL     1      35.696  51.956  41.596  1.00  0.00     0.186 C 
HETATM   18  S   UNL     1      37.135  52.702  42.002  1.00  0.00    -0.040 SA
BRANCH  17  19
HETATM   19  N   UNL     1      35.484  50.693  42.060  1.00  0.00    -0.360 N 
HETATM   20  H   UNL     1      35.726  50.566  43.036  1.00  0.00     0.162 HD
BRANCH  19  21
HETATM   21  C   UNL     1      34.765  49.608  41.419  1.00  0.00     0.187 C 
BRANCH  21  22
HETATM   22  C   UNL     1      33.396  49.522  41.971  1.00  0.00     0.070 A 
HETATM   23  O   UNL     1      32.963  50.592  42.699  1.00  0.00    -0.325 OA
HETATM   24  C   UNL     1      31.692  50.312  43.094  1.00  0.00     0.142 A 
HETATM   25  C   UNL     1      31.312  49.070  42.644  1.00  0.00     0.027 A 
HETATM   26  C   UNL     1      32.412  48.556  41.918  1.00  0.00     0.036 A 
ENDBRANCH  21  22
ENDBRANCH  19  21
ENDBRANCH  17  19
ENDBRANCH  15  17
ENDBRANCH  12  15
ENDBRANCH   7  11
BRANCH   1  27
HETATM   27  C   UNL     1      28.650  49.491  38.706  1.00  0.00    -0.035 A 
HETATM   28  C   UNL     1      29.639  48.760  39.383  1.00  0.00     0.012 A 
HETATM   29  C   UNL     1      29.343  47.537  39.992  1.00  0.00     0.037 A 
HETATM   30  C   UNL     1      28.056  47.009  39.942  1.00  0.00     0.068 A 
HETATM   31  C   UNL     1      27.068  47.701  39.245  1.00  0.00     0.037 A 
HETATM   32  C   UNL     1      27.365  48.925  38.628  1.00  0.00     0.012 A 
BRANCH  30  33
HETATM   33  O   UNL     1      27.897  45.816  40.589  1.00  0.00    -0.356 OA
HETATM   34  C   UNL     1      27.846  44.652  39.773  1.00  0.00     0.210 C 
ENDBRANCH  30  33
ENDBRANCH   1  27
BRANCH   8  35
HETATM   35  C   UNL     1      27.941  51.903  41.038  1.00  0.00     0.409 C 
HETATM   36  F   UNL     1      26.857  51.149  40.788  1.00  0.00    -0.169 F 
HETATM   37  F   UNL     1      28.869  51.100  41.613  1.00  0.00    -0.169 F 
HETATM   38  F   UNL     1      27.588  52.804  41.995  1.00  0.00    -0.169 F 
ENDBRANCH   8  35
TORSDOF 9
ENDMDL
MODEL 10
REMARK VINA RESULT:      -7.3     12.840     15.394
REMARK  9 active torsions:
REMARK  status: ('A' for Active; 'I' for Inactive)
REMARK    1  A    between atoms: O_2  and  C_3 
REMARK    2  A    between atoms: C_6  and  C_7 
REMARK    3  A    between atoms: C_13  and  C_14 
REMARK       I    between atoms: C_14  and  N_15 
REMARK    4  A    between atoms: N_15  and  N_16 
REMARK    5  A    between atoms: N_16  and  C_17 
REMARK    6  A    between atoms: C_17  and  N_18 
REMARK    7  A    between atoms: N_18  and  C_19 
REMARK    8  A    between atoms: C_19  and  C_20 
REMARK    9  A    between atoms: C_27  and  C_28 
ROOT
HETATM    1  C   UNL     1      25.392  44.162  53.230  1.00  0.00     0.118 C 
HETATM    2  N   UNL     1      25.699  42.946  52.488  1.00  0.00    -0.365 N 
HETATM    3  C   UNL     1      26.005  42.963  51.168  1.00  0.00     0.138 A 
HETATM    4  N   UNL     1      25.791  44.081  50.410  1.00  0.00    -0.240 N 
HETATM    5  N   UNL     1      26.023  43.896  49.100  1.00  0.00    -0.181 NA
HETATM    6  C   UNL     1      26.495  42.644  49.055  1.00  0.00     0.160 A 
HETATM    7  C   UNL     1      26.532  42.008  50.320  1.00  0.00     0.098 A 
HETATM    8  C   UNL     1      25.270  45.332  50.924  1.00  0.00     0.221 C 
HETATM    9  C   UNL     1      24.614  45.120  52.304  1.00  0.00     0.066 C 
HETATM   10  H   UNL     1      25.932  42.122  53.048  1.00  0.00     0.161 HD
ENDROOT
BRANCH   7  11
HETATM   11  C   UNL     1      26.935  40.667  50.701  1.00  0.00     0.275 C 
HETATM   12  N   UNL     1      26.210  39.576  50.245  1.00  0.00    -0.263 N 
HETATM   13  H   UNL     1      26.688  38.706  50.469  1.00  0.00     0.190 HD
HETATM   14  O   UNL     1      27.900  40.460  51.440  1.00  0.00    -0.266 OA
BRANCH  12  15
HETATM   15  N   UNL     1      25.570  39.568  48.989  1.00  0.00    -0.274 N 
HETATM   16  H   UNL     1      24.624  39.936  48.945  1.00  0.00     0.189 HD
BRANCH  15  17
HETATM   17  C   UNL     1      26.134  38.952  47.900  1.00  0.00     0.186 C 
HETATM   18  S   UNL     1      25.348  37.913  46.853  1.00  0.00    -0.040 SA
BRANCH  17  19
HETATM   19  N   UNL     1      27.440  39.242  47.641  1.00  0.00    -0.360 N 
HETATM   20  H   UNL     1      27.670  40.225  47.732  1.00  0.00     0.162 HD
BRANCH  19  21
HETATM   21  C   UNL     1      28.552  38.322  47.485  1.00  0.00     0.187 C 
BRANCH  21  22
HETATM   22  C   UNL     1      29.153  38.037  48.806  1.00  0.00     0.070 A 
HETATM   23  O   UNL     1      28.378  37.346  49.692  1.00  0.00    -0.325 OA
HETATM   24  C   UNL     1      29.120  37.184  50.820  1.00  0.00     0.142 A 
HETATM   25  C   UNL     1      30.352  37.776  50.675  1.00  0.00     0.027 A 
HETATM   26  C   UNL     1      30.376  38.330  49.373  1.00  0.00     0.036 A 
ENDBRANCH  21  22
ENDBRANCH  19  21
ENDBRANCH  17  19
ENDBRANCH  15  17
ENDBRANCH  12  15
ENDBRANCH   7  11
BRANCH   1  27
HETATM   27  C   UNL     1      26.607  44.758  53.922  1.00  0.00    -0.035 A 
HETATM   28  C   UNL     1      27.811  44.053  54.080  1.00  0.00     0.012 A 
HETATM   29  C   UNL     1      28.907  44.632  54.728  1.00  0.00     0.037 A 
HETATM   30  C   UNL     1      28.832  45.925  55.238  1.00  0.00     0.068 A 
HETATM   31  C   UNL     1      27.636  46.629  55.123  1.00  0.00     0.037 A 
HETATM   32  C   UNL     1      26.534  46.048  54.479  1.00  0.00     0.012 A 
BRANCH  30  33
HETATM   33  O   UNL     1      29.977  46.377  55.833  1.00  0.00    -0.356 OA
HETATM   34  C   UNL     1      30.604  45.494  56.755  1.00  0.00     0.210 C 
ENDBRANCH  30  33
ENDBRANCH   1  27
BRANCH   8  35
HETATM   35  C   UNL     1      26.350  46.391  50.918  1.00  0.00     0.409 C 
HETATM   36  F   UNL     1      26.150  47.392  51.792  1.00  0.00    -0.169 F 
HETATM   37  F   UNL     1      27.573  45.867  51.174  1.00  0.00    -0.169 F 
HETATM   38  F   UNL     1      26.440  46.953  49.682  1.00  0.00    -0.169 F 
ENDBRANCH   8  35
TORSDOF 9
ENDMDL
