MODEL 1
REMARK VINA RESULT:      -8.6      0.000      0.000
REMARK  6 active torsions:
REMARK  status: ('A' for Active; 'I' for Inactive)
REMARK    1  A    between atoms: O_1  and  C_2 
REMARK    2  A    between atoms: C_2  and  CA_3 
REMARK    3  A    between atoms: CA_3  and  N_4 
REMARK    4  A    between atoms: CA_3  and  C_20 
REMARK       I    between atoms: N_4  and  C_5 
REMARK       I    between atoms: C_5  and  N_7 
REMARK    5  A    between atoms: N_7  and  C_8 
REMARK    6  A    between atoms: C_11  and  C_14 
ROOT
HETATM    1  N   UNL     1      27.084  43.531  53.108  1.00  0.00    -0.332 N 
HETATM    2  C   UNL     1      26.665  44.166  51.990  1.00  0.00     0.322 C 
HETATM    3  O   UNL     1      27.253  44.424  50.959  1.00  0.00    -0.247 OA
HETATM    4  N   UNL     1      25.343  44.593  52.151  1.00  0.00    -0.289 N 
HETATM    5  H   UNL     1      26.462  43.348  53.879  1.00  0.00     0.165 HD
HETATM    6  H   UNL     1      24.829  44.534  53.010  1.00  0.00     0.172 HD
ENDROOT
BRANCH   1   7
HETATM    7  CA  UNL     1      28.426  42.964  53.216  1.00  0.00     0.143 C 
BRANCH   7   8
HETATM    8  C   UNL     1      28.407  41.426  53.396  1.00  0.00     0.194 C 
BRANCH   8   9
HETATM    9  O   UNL     1      27.239  40.860  52.805  1.00  0.00    -0.398 OA
HETATM   10  H   UNL     1      27.465  40.637  51.882  1.00  0.00     0.209 HD
ENDBRANCH   8   9
ENDBRANCH   7   8
BRANCH   7  11
HETATM   11  C   UNL     1      29.149  43.676  54.347  1.00  0.00    -0.033 A 
HETATM   12  C   UNL     1      30.281  43.086  54.930  1.00  0.00     0.009 A 
HETATM   13  C   UNL     1      30.993  43.747  55.933  1.00  0.00     0.001 A 
HETATM   14  C   UNL     1      30.588  45.009  56.363  1.00  0.00     0.000 A 
HETATM   15  C   UNL     1      29.473  45.612  55.791  1.00  0.00     0.001 A 
HETATM   16  C   UNL     1      28.759  44.955  54.786  1.00  0.00     0.009 A 
ENDBRANCH   7  11
ENDBRANCH   1   7
BRANCH   4  17
HETATM   17  C   UNL     1      24.674  45.149  51.155  1.00  0.00     0.153 A 
HETATM   18  N   UNL     1      24.721  46.430  50.783  1.00  0.00    -0.335 N 
HETATM   19  H   UNL     1      25.287  47.072  51.343  1.00  0.00     0.168 HD
HETATM   20  C   UNL     1      23.996  46.722  49.639  1.00  0.00     0.051 A 
HETATM   21  C   UNL     1      23.315  45.613  49.181  1.00  0.00     0.083 A 
HETATM   22  S   UNL     1      23.635  44.218  50.141  1.00  0.00    -0.063 SA
BRANCH  20  23
HETATM   23  C   UNL     1      23.981  48.042  49.004  1.00  0.00    -0.006 A 
HETATM   24  C   UNL     1      22.821  48.559  48.411  1.00  0.00     0.033 A 
HETATM   25  C   UNL     1      22.877  49.799  47.795  1.00  0.00     0.117 A 
HETATM   26  N   UNL     1      23.993  50.547  47.729  1.00  0.00    -0.273 NA
HETATM   27  C   UNL     1      25.102  50.046  48.302  1.00  0.00     0.117 A 
HETATM   28  C   UNL     1      25.146  48.816  48.945  1.00  0.00     0.033 A 
ENDBRANCH  20  23
ENDBRANCH   4  17
TORSDOF 6
ENDMDL
MODEL 2
REMARK VINA RESULT:      -8.4      2.644      3.640
REMARK  6 active torsions:
REMARK  status: ('A' for Active; 'I' for Inactive)
REMARK    1  A    between atoms: O_1  and  C_2 
REMARK    2  A    between atoms: C_2  and  CA_3 
REMARK    3  A    between atoms: CA_3  and  N_4 
REMARK    4  A    between atoms: CA_3  and  C_20 
REMARK       I    between atoms: N_4  and  C_5 
REMARK       I    between atoms: C_5  and  N_7 
REMARK    5  A    between atoms: N_7  and  C_8 
REMARK    6  A    between atoms: C_11  and  C_14 
ROOT
HETATM    1  N   UNL     1      26.850  46.041  53.099  1.00  0.00    -0.332 N 
HETATM    2  C   UNL     1      26.003  46.917  52.513  1.00  0.00     0.322 C 
HETATM    3  O   UNL     1      25.294  47.776  52.997  1.00  0.00    -0.247 OA
HETATM    4  N   UNL     1      25.974  46.702  51.131  1.00  0.00    -0.289 N 
HETATM    5  H   UNL     1      27.415  45.405  52.557  1.00  0.00     0.165 HD
HETATM    6  H   UNL     1      26.429  45.937  50.667  1.00  0.00     0.172 HD
ENDROOT
BRANCH   1   7
HETATM    7  CA  UNL     1      27.090  46.046  54.540  1.00  0.00     0.143 C 
BRANCH   7   8
HETATM    8  C   UNL     1      27.346  47.470  55.093  1.00  0.00     0.194 C 
BRANCH   8   9
HETATM    9  O   UNL     1      26.181  47.980  55.739  1.00  0.00    -0.398 OA
HETATM   10  H   UNL     1      26.047  47.448  56.546  1.00  0.00     0.209 HD
ENDBRANCH   8   9
ENDBRANCH   7   8
BRANCH   7  11
HETATM   11  C   UNL     1      28.237  45.092  54.830  1.00  0.00    -0.033 A 
HETATM   12  C   UNL     1      28.302  43.860  54.162  1.00  0.00     0.009 A 
HETATM   13  C   UNL     1      29.375  42.991  54.370  1.00  0.00     0.001 A 
HETATM   14  C   UNL     1      30.401  43.344  55.244  1.00  0.00     0.000 A 
HETATM   15  C   UNL     1      30.357  44.565  55.909  1.00  0.00     0.001 A 
HETATM   16  C   UNL     1      29.286  45.437  55.701  1.00  0.00     0.009 A 
ENDBRANCH   7  11
ENDBRANCH   1   7
BRANCH   4  17
HETATM   17  C   UNL     1      25.297  47.502  50.325  1.00  0.00     0.153 A 
HETATM   18  N   UNL     1      23.970  47.621  50.253  1.00  0.00    -0.335 N 
HETATM   19  H   UNL     1      23.401  47.005  50.838  1.00  0.00     0.168 HD
HETATM   20  C   UNL     1      23.528  48.612  49.391  1.00  0.00     0.051 A 
HETATM   21  C   UNL     1      24.583  49.208  48.732  1.00  0.00     0.083 A 
HETATM   22  S   UNL     1      26.103  48.572  49.238  1.00  0.00    -0.063 SA
BRANCH  20  23
HETATM   23  C   UNL     1      22.119  48.974  49.227  1.00  0.00    -0.006 A 
HETATM   24  C   UNL     1      21.652  50.262  49.524  1.00  0.00     0.033 A 
HETATM   25  C   UNL     1      20.301  50.535  49.382  1.00  0.00     0.117 A 
HETATM   26  N   UNL     1      19.397  49.627  48.973  1.00  0.00    -0.273 NA
HETATM   27  C   UNL     1      19.853  48.394  48.688  1.00  0.00     0.117 A 
HETATM   28  C   UNL     1      21.186  48.024  48.795  1.00  0.00     0.033 A 
ENDBRANCH  20  23
ENDBRANCH   4  17
TORSDOF 6
ENDMDL
MODEL 3
REMARK VINA RESULT:      -8.1      2.262      9.036
REMARK  6 active torsions:
REMARK  status: ('A' for Active; 'I' for Inactive)
REMARK    1  A    between atoms: O_1  and  C_2 
REMARK    2  A    between atoms: C_2  and  CA_3 
REMARK    3  A    between atoms: CA_3  and  N_4 
REMARK    4  A    between atoms: CA_3  and  C_20 
REMARK       I    between atoms: N_4  and  C_5 
REMARK       I    between atoms: C_5  and  N_7 
REMARK    5  A    between atoms: N_7  and  C_8 
REMARK    6  A    between atoms: C_11  and  C_14 
ROOT
HETATM    1  N   UNL     1      24.091  48.014  49.857  1.00  0.00    -0.332 N 
HETATM    2  C   UNL     1      24.993  47.054  50.166  1.00  0.00     0.322 C 
HETATM    3  O   UNL     1      25.947  46.637  49.542  1.00  0.00    -0.247 OA
HETATM    4  N   UNL     1      24.674  46.478  51.400  1.00  0.00    -0.289 N 
HETATM    5  H   UNL     1      23.367  48.288  50.502  1.00  0.00     0.165 HD
HETATM    6  H   UNL     1      23.838  46.675  51.918  1.00  0.00     0.172 HD
ENDROOT
BRANCH   1   7
HETATM    7  CA  UNL     1      24.185  48.795  48.627  1.00  0.00     0.143 C 
BRANCH   7   8
HETATM    8  C   UNL     1      25.345  49.822  48.664  1.00  0.00     0.194 C 
BRANCH   8   9
HETATM    9  O   UNL     1      25.766  50.161  47.345  1.00  0.00    -0.398 OA
HETATM   10  H   UNL     1      25.381  51.034  47.139  1.00  0.00     0.209 HD
ENDBRANCH   8   9
ENDBRANCH   7   8
BRANCH   7  11
HETATM   11  C   UNL     1      22.835  49.446  48.377  1.00  0.00    -0.033 A 
HETATM   12  C   UNL     1      21.796  48.694  47.808  1.00  0.00     0.009 A 
HETATM   13  C   UNL     1      20.530  49.254  47.621  1.00  0.00     0.001 A 
HETATM   14  C   UNL     1      20.285  50.571  48.004  1.00  0.00     0.000 A 
HETATM   15  C   UNL     1      21.301  51.328  48.577  1.00  0.00     0.001 A 
HETATM   16  C   UNL     1      22.568  50.770  48.768  1.00  0.00     0.009 A 
ENDBRANCH   7  11
ENDBRANCH   1   7
BRANCH   4  17
HETATM   17  C   UNL     1      25.468  45.586  51.967  1.00  0.00     0.153 A 
HETATM   18  N   UNL     1      26.519  45.840  52.748  1.00  0.00    -0.335 N 
HETATM   19  H   UNL     1      26.784  46.817  52.895  1.00  0.00     0.168 HD
HETATM   20  C   UNL     1      27.115  44.714  53.294  1.00  0.00     0.051 A 
HETATM   21  C   UNL     1      26.517  43.559  52.832  1.00  0.00     0.083 A 
HETATM   22  S   UNL     1      25.194  43.893  51.780  1.00  0.00    -0.063 SA
BRANCH  20  23
HETATM   23  C   UNL     1      28.223  44.766  54.249  1.00  0.00    -0.006 A 
HETATM   24  C   UNL     1      28.427  45.876  55.080  1.00  0.00     0.033 A 
HETATM   25  C   UNL     1      29.514  45.881  55.940  1.00  0.00     0.117 A 
HETATM   26  N   UNL     1      30.401  44.873  56.023  1.00  0.00    -0.273 NA
HETATM   27  C   UNL     1      30.198  43.811  55.224  1.00  0.00     0.117 A 
HETATM   28  C   UNL     1      29.138  43.709  54.334  1.00  0.00     0.033 A 
ENDBRANCH  20  23
ENDBRANCH   4  17
TORSDOF 6
ENDMDL
MODEL 4
REMARK VINA RESULT:      -8.1      2.267      3.277
REMARK  6 active torsions:
REMARK  status: ('A' for Active; 'I' for Inactive)
REMARK    1  A    between atoms: O_1  and  C_2 
REMARK    2  A    between atoms: C_2  and  CA_3 
REMARK    3  A    between atoms: CA_3  and  N_4 
REMARK    4  A    between atoms: CA_3  and  C_20 
REMARK       I    between atoms: N_4  and  C_5 
REMARK       I    between atoms: C_5  and  N_7 
REMARK    5  A    between atoms: N_7  and  C_8 
REMARK    6  A    between atoms: C_11  and  C_14 
ROOT
HETATM    1  N   UNL     1      26.912  45.605  51.521  1.00  0.00    -0.332 N 
HETATM    2  C   UNL     1      26.097  46.157  50.592  1.00  0.00     0.322 C 
HETATM    3  O   UNL     1      25.190  45.670  49.947  1.00  0.00    -0.247 OA
HETATM    4  N   UNL     1      26.453  47.492  50.378  1.00  0.00    -0.289 N 
HETATM    5  H   UNL     1      27.601  46.151  52.013  1.00  0.00     0.165 HD
HETATM    6  H   UNL     1      27.262  47.933  50.773  1.00  0.00     0.172 HD
ENDROOT
BRANCH   1   7
HETATM    7  CA  UNL     1      26.760  44.218  51.954  1.00  0.00     0.143 C 
BRANCH   7   8
HETATM    8  C   UNL     1      25.413  43.968  52.678  1.00  0.00     0.194 C 
BRANCH   8   9
HETATM    9  O   UNL     1      24.532  43.201  51.859  1.00  0.00    -0.398 OA
HETATM   10  H   UNL     1      24.673  43.493  50.939  1.00  0.00     0.209 HD
ENDBRANCH   8   9
ENDBRANCH   7   8
BRANCH   7  11
HETATM   11  C   UNL     1      27.961  43.859  52.813  1.00  0.00    -0.033 A 
HETATM   12  C   UNL     1      28.938  42.985  52.312  1.00  0.00     0.009 A 
HETATM   13  C   UNL     1      30.077  42.685  53.060  1.00  0.00     0.001 A 
HETATM   14  C   UNL     1      30.260  43.258  54.317  1.00  0.00     0.000 A 
HETATM   15  C   UNL     1      29.306  44.133  54.826  1.00  0.00     0.001 A 
HETATM   16  C   UNL     1      28.166  44.438  54.079  1.00  0.00     0.009 A 
ENDBRANCH   7  11
ENDBRANCH   1   7
BRANCH   4  17
HETATM   17  C   UNL     1      25.737  48.276  49.590  1.00  0.00     0.153 A 
HETATM   18  N   UNL     1      24.406  48.320  49.510  1.00  0.00    -0.335 N 
HETATM   19  H   UNL     1      23.869  47.655  50.070  1.00  0.00     0.168 HD
HETATM   20  C   UNL     1      23.913  49.309  48.674  1.00  0.00     0.051 A 
HETATM   21  C   UNL     1      24.936  49.986  48.042  1.00  0.00     0.083 A 
HETATM   22  S   UNL     1      26.487  49.423  48.543  1.00  0.00    -0.063 SA
BRANCH  20  23
HETATM   23  C   UNL     1      22.487  49.594  48.508  1.00  0.00    -0.006 A 
HETATM   24  C   UNL     1      21.544  48.567  48.361  1.00  0.00     0.033 A 
HETATM   25  C   UNL     1      20.212  48.900  48.172  1.00  0.00     0.117 A 
HETATM   26  N   UNL     1      19.762  50.167  48.118  1.00  0.00    -0.273 NA
HETATM   27  C   UNL     1      20.672  51.147  48.262  1.00  0.00     0.117 A 
HETATM   28  C   UNL     1      22.026  50.915  48.458  1.00  0.00     0.033 A 
ENDBRANCH  20  23
ENDBRANCH   4  17
TORSDOF 6
ENDMDL
MODEL 5
REMARK VINA RESULT:      -7.9      1.841      2.785
REMARK  6 active torsions:
REMARK  status: ('A' for Active; 'I' for Inactive)
REMARK    1  A    between atoms: O_1  and  C_2 
REMARK    2  A    between atoms: C_2  and  CA_3 
REMARK    3  A    between atoms: CA_3  and  N_4 
REMARK    4  A    between atoms: CA_3  and  C_20 
REMARK       I    between atoms: N_4  and  C_5 
REMARK       I    between atoms: C_5  and  N_7 
REMARK    5  A    between atoms: N_7  and  C_8 
REMARK    6  A    between atoms: C_11  and  C_14 
ROOT
HETATM    1  N   UNL     1      27.485  45.418  53.547  1.00  0.00    -0.332 N 
HETATM    2  C   UNL     1      26.331  45.816  52.964  1.00  0.00     0.322 C 
HETATM    3  O   UNL     1      25.398  46.451  53.410  1.00  0.00    -0.247 OA
HETATM    4  N   UNL     1      26.273  45.343  51.649  1.00  0.00    -0.289 N 
HETATM    5  H   UNL     1      28.198  44.927  53.032  1.00  0.00     0.165 HD
HETATM    6  H   UNL     1      26.938  44.710  51.245  1.00  0.00     0.172 HD
ENDROOT
BRANCH   1   7
HETATM    7  CA  UNL     1      27.820  45.783  54.921  1.00  0.00     0.143 C 
BRANCH   7   8
HETATM    8  C   UNL     1      28.027  47.309  55.096  1.00  0.00     0.194 C 
BRANCH   8   9
HETATM    9  O   UNL     1      26.853  47.923  55.625  1.00  0.00    -0.398 OA
HETATM   10  H   UNL     1      27.022  48.883  55.654  1.00  0.00     0.209 HD
ENDBRANCH   8   9
ENDBRANCH   7   8
BRANCH   7  11
HETATM   11  C   UNL     1      29.038  44.976  55.339  1.00  0.00    -0.033 A 
HETATM   12  C   UNL     1      29.817  45.404  56.425  1.00  0.00     0.009 A 
HETATM   13  C   UNL     1      30.908  44.650  56.862  1.00  0.00     0.001 A 
HETATM   14  C   UNL     1      31.233  43.455  56.223  1.00  0.00     0.000 A 
HETATM   15  C   UNL     1      30.467  43.011  55.150  1.00  0.00     0.001 A 
HETATM   16  C   UNL     1      29.373  43.763  54.712  1.00  0.00     0.009 A 
ENDBRANCH   7  11
ENDBRANCH   1   7
BRANCH   4  17
HETATM   17  C   UNL     1      25.288  45.688  50.838  1.00  0.00     0.153 A 
HETATM   18  N   UNL     1      24.906  46.929  50.534  1.00  0.00    -0.335 N 
HETATM   19  H   UNL     1      25.378  47.705  51.004  1.00  0.00     0.168 HD
HETATM   20  C   UNL     1      23.910  47.006  49.574  1.00  0.00     0.051 A 
HETATM   21  C   UNL     1      23.478  45.749  49.201  1.00  0.00     0.083 A 
HETATM   22  S   UNL     1      24.357  44.501  50.001  1.00  0.00    -0.063 SA
BRANCH  20  23
HETATM   23  C   UNL     1      23.405  48.267  49.028  1.00  0.00    -0.006 A 
HETATM   24  C   UNL     1      24.265  49.324  48.704  1.00  0.00     0.033 A 
HETATM   25  C   UNL     1      23.725  50.507  48.223  1.00  0.00     0.117 A 
HETATM   26  N   UNL     1      22.406  50.705  48.048  1.00  0.00    -0.273 NA
HETATM   27  C   UNL     1      21.587  49.685  48.359  1.00  0.00     0.117 A 
HETATM   28  C   UNL     1      22.031  48.463  48.844  1.00  0.00     0.033 A 
ENDBRANCH  20  23
ENDBRANCH   4  17
TORSDOF 6
ENDMDL
MODEL 6
REMARK VINA RESULT:      -7.8      2.329      8.479
REMARK  6 active torsions:
REMARK  status: ('A' for Active; 'I' for Inactive)
REMARK    1  A    between atoms: O_1  and  C_2 
REMARK    2  A    between atoms: C_2  and  CA_3 
REMARK    3  A    between atoms: CA_3  and  N_4 
REMARK    4  A    between atoms: CA_3  and  C_20 
REMARK       I    between atoms: N_4  and  C_5 
REMARK       I    between atoms: C_5  and  N_7 
REMARK    5  A    between atoms: N_7  and  C_8 
REMARK    6  A    between atoms: C_11  and  C_14 
ROOT
HETATM    1  N   UNL     1      25.616  45.034  50.332  1.00  0.00    -0.332 N 
HETATM    2  C   UNL     1      26.221  44.662  51.483  1.00  0.00     0.322 C 
HETATM    3  O   UNL     1      25.835  44.723  52.633  1.00  0.00    -0.247 OA
HETATM    4  N   UNL     1      27.504  44.178  51.213  1.00  0.00    -0.289 N 
HETATM    5  H   UNL     1      26.046  44.881  49.433  1.00  0.00     0.165 HD
HETATM    6  H   UNL     1      27.945  44.211  50.312  1.00  0.00     0.172 HD
ENDROOT
BRANCH   1   7
HETATM    7  CA  UNL     1      24.255  45.566  50.311  1.00  0.00     0.143 C 
BRANCH   7   8
HETATM    8  C   UNL     1      23.247  44.588  49.656  1.00  0.00     0.194 C 
BRANCH   8   9
HETATM    9  O   UNL     1      22.300  44.119  50.614  1.00  0.00    -0.398 OA
HETATM   10  H   UNL     1      22.271  44.778  51.333  1.00  0.00     0.209 HD
ENDBRANCH   8   9
ENDBRANCH   7   8
BRANCH   7  11
HETATM   11  C   UNL     1      24.289  46.920  49.623  1.00  0.00    -0.033 A 
HETATM   12  C   UNL     1      23.136  47.405  48.987  1.00  0.00     0.009 A 
HETATM   13  C   UNL     1      23.126  48.670  48.396  1.00  0.00     0.001 A 
HETATM   14  C   UNL     1      24.266  49.470  48.437  1.00  0.00     0.000 A 
HETATM   15  C   UNL     1      25.416  49.008  49.070  1.00  0.00     0.001 A 
HETATM   16  C   UNL     1      25.428  47.744  49.664  1.00  0.00     0.009 A 
ENDBRANCH   7  11
ENDBRANCH   1   7
BRANCH   4  17
HETATM   17  C   UNL     1      28.256  43.656  52.167  1.00  0.00     0.153 A 
HETATM   18  N   UNL     1      28.765  44.299  53.220  1.00  0.00    -0.335 N 
HETATM   19  H   UNL     1      28.610  45.307  53.287  1.00  0.00     0.168 HD
HETATM   20  C   UNL     1      29.432  43.486  54.122  1.00  0.00     0.051 A 
HETATM   21  C   UNL     1      29.485  42.181  53.675  1.00  0.00     0.083 A 
HETATM   22  S   UNL     1      28.655  41.978  52.178  1.00  0.00    -0.063 SA
BRANCH  20  23
HETATM   23  C   UNL     1      29.989  43.966  55.388  1.00  0.00    -0.006 A 
HETATM   24  C   UNL     1      29.613  45.200  55.936  1.00  0.00     0.033 A 
HETATM   25  C   UNL     1      30.200  45.617  57.120  1.00  0.00     0.117 A 
HETATM   26  N   UNL     1      31.124  44.900  57.784  1.00  0.00    -0.273 NA
HETATM   27  C   UNL     1      31.479  43.716  57.254  1.00  0.00     0.117 A 
HETATM   28  C   UNL     1      30.946  43.211  56.076  1.00  0.00     0.033 A 
ENDBRANCH  20  23
ENDBRANCH   4  17
TORSDOF 6
ENDMDL
MODEL 7
REMARK VINA RESULT:      -7.8      3.173      9.190
REMARK  6 active torsions:
REMARK  status: ('A' for Active; 'I' for Inactive)
REMARK    1  A    between atoms: O_1  and  C_2 
REMARK    2  A    between atoms: C_2  and  CA_3 
REMARK    3  A    between atoms: CA_3  and  N_4 
REMARK    4  A    between atoms: CA_3  and  C_20 
REMARK       I    between atoms: N_4  and  C_5 
REMARK       I    between atoms: C_5  and  N_7 
REMARK    5  A    between atoms: N_7  and  C_8 
REMARK    6  A    between atoms: C_11  and  C_14 
ROOT
HETATM    1  N   UNL     1      22.505  48.319  48.885  1.00  0.00    -0.332 N 
HETATM    2  C   UNL     1      23.688  47.981  49.446  1.00  0.00     0.322 C 
HETATM    3  O   UNL     1      24.731  48.599  49.522  1.00  0.00    -0.247 OA
HETATM    4  N   UNL     1      23.619  46.684  49.963  1.00  0.00    -0.289 N 
HETATM    5  H   UNL     1      21.700  47.714  48.938  1.00  0.00     0.165 HD
HETATM    6  H   UNL     1      22.842  46.063  49.833  1.00  0.00     0.172 HD
ENDROOT
BRANCH   1   7
HETATM    7  CA  UNL     1      22.284  49.629  48.277  1.00  0.00     0.143 C 
BRANCH   7   8
HETATM    8  C   UNL     1      23.508  50.567  48.430  1.00  0.00     0.194 C 
BRANCH   8   9
HETATM    9  O   UNL     1      24.374  50.460  47.302  1.00  0.00    -0.398 OA
HETATM   10  H   UNL     1      25.247  50.797  47.580  1.00  0.00     0.209 HD
ENDBRANCH   8   9
ENDBRANCH   7   8
BRANCH   7  11
HETATM   11  C   UNL     1      21.018  50.218  48.874  1.00  0.00    -0.033 A 
HETATM   12  C   UNL     1      20.586  51.491  48.472  1.00  0.00     0.009 A 
HETATM   13  C   UNL     1      19.396  52.030  48.965  1.00  0.00     0.001 A 
HETATM   14  C   UNL     1      18.617  51.302  49.862  1.00  0.00     0.000 A 
HETATM   15  C   UNL     1      19.025  50.034  50.265  1.00  0.00     0.001 A 
HETATM   16  C   UNL     1      20.214  49.491  49.772  1.00  0.00     0.009 A 
ENDBRANCH   7  11
ENDBRANCH   1   7
BRANCH   4  17
HETATM   17  C   UNL     1      24.619  46.166  50.654  1.00  0.00     0.153 A 
HETATM   18  N   UNL     1      25.145  46.653  51.780  1.00  0.00    -0.335 N 
HETATM   19  H   UNL     1      24.784  47.543  52.132  1.00  0.00     0.168 HD
HETATM   20  C   UNL     1      26.120  45.853  52.352  1.00  0.00     0.051 A 
HETATM   21  C   UNL     1      26.384  44.748  51.569  1.00  0.00     0.083 A 
HETATM   22  S   UNL     1      25.376  44.693  50.171  1.00  0.00    -0.063 SA
BRANCH  20  23
HETATM   23  C   UNL     1      26.764  46.150  53.633  1.00  0.00    -0.006 A 
HETATM   24  C   UNL     1      26.526  47.352  54.314  1.00  0.00     0.033 A 
HETATM   25  C   UNL     1      27.192  47.592  55.506  1.00  0.00     0.117 A 
HETATM   26  N   UNL     1      28.067  46.731  56.056  1.00  0.00    -0.273 NA
HETATM   27  C   UNL     1      28.288  45.579  55.398  1.00  0.00     0.117 A 
HETATM   28  C   UNL     1      27.669  45.246  54.202  1.00  0.00     0.033 A 
ENDBRANCH  20  23
ENDBRANCH   4  17
TORSDOF 6
ENDMDL
MODEL 8
REMARK VINA RESULT:      -7.5      2.879      3.974
REMARK  6 active torsions:
REMARK  status: ('A' for Active; 'I' for Inactive)
REMARK    1  A    between atoms: O_1  and  C_2 
REMARK    2  A    between atoms: C_2  and  CA_3 
REMARK    3  A    between atoms: CA_3  and  N_4 
REMARK    4  A    between atoms: CA_3  and  C_20 
REMARK       I    between atoms: N_4  and  C_5 
REMARK       I    between atoms: C_5  and  N_7 
REMARK    5  A    between atoms: N_7  and  C_8 
REMARK    6  A    between atoms: C_11  and  C_14 
ROOT
HETATM    1  N   UNL     1      26.319  44.789  52.194  1.00  0.00    -0.332 N 
HETATM    2  C   UNL     1      25.134  44.971  51.568  1.00  0.00     0.322 C 
HETATM    3  O   UNL     1      24.041  44.491  51.790  1.00  0.00    -0.247 OA
HETATM    4  N   UNL     1      25.297  45.836  50.481  1.00  0.00    -0.289 N 
HETATM    5  H   UNL     1      27.147  45.296  51.923  1.00  0.00     0.165 HD
HETATM    6  H   UNL     1      26.183  46.175  50.154  1.00  0.00     0.172 HD
ENDROOT
BRANCH   1   7
HETATM    7  CA  UNL     1      26.444  43.941  53.377  1.00  0.00     0.143 C 
BRANCH   7   8
HETATM    8  C   UNL     1      25.732  44.542  54.615  1.00  0.00     0.194 C 
BRANCH   8   9
HETATM    9  O   UNL     1      24.466  43.920  54.824  1.00  0.00    -0.398 OA
HETATM   10  H   UNL     1      24.495  43.055  54.372  1.00  0.00     0.209 HD
ENDBRANCH   8   9
ENDBRANCH   7   8
BRANCH   7  11
HETATM   11  C   UNL     1      27.922  43.686  53.620  1.00  0.00    -0.033 A 
HETATM   12  C   UNL     1      28.532  44.180  54.783  1.00  0.00     0.009 A 
HETATM   13  C   UNL     1      29.875  43.910  55.055  1.00  0.00     0.001 A 
HETATM   14  C   UNL     1      30.626  43.139  54.171  1.00  0.00     0.000 A 
HETATM   15  C   UNL     1      30.036  42.635  53.016  1.00  0.00     0.001 A 
HETATM   16  C   UNL     1      28.692  42.900  52.743  1.00  0.00     0.009 A 
ENDBRANCH   7  11
ENDBRANCH   1   7
BRANCH   4  17
HETATM   17  C   UNL     1      24.261  46.252  49.773  1.00  0.00     0.153 A 
HETATM   18  N   UNL     1      23.289  45.492  49.265  1.00  0.00    -0.335 N 
HETATM   19  H   UNL     1      23.361  44.479  49.382  1.00  0.00     0.168 HD
HETATM   20  C   UNL     1      22.268  46.199  48.651  1.00  0.00     0.051 A 
HETATM   21  C   UNL     1      22.536  47.553  48.638  1.00  0.00     0.083 A 
HETATM   22  S   UNL     1      24.016  47.926  49.439  1.00  0.00    -0.063 SA
BRANCH  20  23
HETATM   23  C   UNL     1      21.062  45.574  48.107  1.00  0.00    -0.006 A 
HETATM   24  C   UNL     1      19.785  45.898  48.586  1.00  0.00     0.033 A 
HETATM   25  C   UNL     1      18.682  45.247  48.055  1.00  0.00     0.117 A 
HETATM   26  N   UNL     1      18.764  44.307  47.096  1.00  0.00    -0.273 NA
HETATM   27  C   UNL     1      19.992  44.003  46.640  1.00  0.00     0.117 A 
HETATM   28  C   UNL     1      21.155  44.601  47.104  1.00  0.00     0.033 A 
ENDBRANCH  20  23
ENDBRANCH   4  17
TORSDOF 6
ENDMDL
MODEL 9
REMARK VINA RESULT:      -7.3      2.400      8.499
REMARK  6 active torsions:
REMARK  status: ('A' for Active; 'I' for Inactive)
REMARK    1  A    between atoms: O_1  and  C_2 
REMARK    2  A    between atoms: C_2  and  CA_3 
REMARK    3  A    between atoms: CA_3  and  N_4 
REMARK    4  A    between atoms: CA_3  and  C_20 
REMARK       I    between atoms: N_4  and  C_5 
REMARK       I    between atoms: C_5  and  N_7 
REMARK    5  A    between atoms: N_7  and  C_8 
REMARK    6  A    between atoms: C_11  and  C_14 
ROOT
HETATM    1  N   UNL     1      23.956  46.076  48.680  1.00  0.00    -0.332 N 
HETATM    2  C   UNL     1      24.591  45.412  49.673  1.00  0.00     0.322 C 
HETATM    3  O   UNL     1      24.271  45.225  50.829  1.00  0.00    -0.247 OA
HETATM    4  N   UNL     1      25.821  44.931  49.215  1.00  0.00    -0.289 N 
HETATM    5  H   UNL     1      24.327  46.112  47.743  1.00  0.00     0.165 HD
HETATM    6  H   UNL     1      26.216  45.147  48.318  1.00  0.00     0.172 HD
ENDROOT
BRANCH   1   7
HETATM    7  CA  UNL     1      22.637  46.675  48.872  1.00  0.00     0.143 C 
BRANCH   7   8
HETATM    8  C   UNL     1      21.592  46.145  47.859  1.00  0.00     0.194 C 
BRANCH   8   9
HETATM    9  O   UNL     1      21.975  46.462  46.522  1.00  0.00    -0.398 OA
HETATM   10  H   UNL     1      22.907  46.192  46.421  1.00  0.00     0.209 HD
ENDBRANCH   8   9
ENDBRANCH   7   8
BRANCH   7  11
HETATM   11  C   UNL     1      22.793  48.185  48.815  1.00  0.00    -0.033 A 
HETATM   12  C   UNL     1      21.668  49.008  48.982  1.00  0.00     0.009 A 
HETATM   13  C   UNL     1      21.796  50.398  48.989  1.00  0.00     0.001 A 
HETATM   14  C   UNL     1      23.049  50.986  48.835  1.00  0.00     0.000 A 
HETATM   15  C   UNL     1      24.177  50.187  48.677  1.00  0.00     0.001 A 
HETATM   16  C   UNL     1      24.053  48.795  48.672  1.00  0.00     0.009 A 
ENDBRANCH   7  11
ENDBRANCH   1   7
BRANCH   4  17
HETATM   17  C   UNL     1      26.582  44.159  49.971  1.00  0.00     0.153 A 
HETATM   18  N   UNL     1      27.269  44.534  51.052  1.00  0.00    -0.335 N 
HETATM   19  H   UNL     1      27.257  45.523  51.309  1.00  0.00     0.168 HD
HETATM   20  C   UNL     1      27.902  43.497  51.718  1.00  0.00     0.051 A 
HETATM   21  C   UNL     1      27.737  42.300  51.052  1.00  0.00     0.083 A 
HETATM   22  S   UNL     1      26.752  42.473  49.649  1.00  0.00    -0.063 SA
BRANCH  20  23
HETATM   23  C   UNL     1      28.634  43.668  52.975  1.00  0.00    -0.006 A 
HETATM   24  C   UNL     1      28.227  44.597  53.942  1.00  0.00     0.033 A 
HETATM   25  C   UNL     1      28.980  44.739  55.097  1.00  0.00     0.117 A 
HETATM   26  N   UNL     1      30.095  44.030  55.349  1.00  0.00    -0.273 NA
HETATM   27  C   UNL     1      30.478  43.138  54.418  1.00  0.00     0.117 A 
HETATM   28  C   UNL     1      29.790  42.922  53.232  1.00  0.00     0.033 A 
ENDBRANCH  20  23
ENDBRANCH   4  17
TORSDOF 6
ENDMDL
MODEL 10
REMARK VINA RESULT:      -7.1     17.593     19.334
REMARK  6 active torsions:
REMARK  status: ('A' for Active; 'I' for Inactive)
REMARK    1  A    between atoms: O_1  and  C_2 
REMARK    2  A    between atoms: C_2  and  CA_3 
REMARK    3  A    between atoms: CA_3  and  N_4 
REMARK    4  A    between atoms: CA_3  and  C_20 
REMARK       I    between atoms: N_4  and  C_5 
REMARK       I    between atoms: C_5  and  N_7 
REMARK    5  A    between atoms: N_7  and  C_8 
REMARK    6  A    between atoms: C_11  and  C_14 
ROOT
HETATM    1  N   UNL     1      37.878  48.106  66.207  1.00  0.00    -0.332 N 
HETATM    2  C   UNL     1      37.468  47.043  65.477  1.00  0.00     0.322 C 
HETATM    3  O   UNL     1      37.182  46.957  64.300  1.00  0.00    -0.247 OA
HETATM    4  N   UNL     1      37.346  45.918  66.298  1.00  0.00    -0.289 N 
HETATM    5  H   UNL     1      38.126  48.017  67.180  1.00  0.00     0.165 HD
HETATM    6  H   UNL     1      37.440  45.932  67.297  1.00  0.00     0.172 HD
ENDROOT
BRANCH   1   7
HETATM    7  CA  UNL     1      38.105  49.416  65.603  1.00  0.00     0.143 C 
BRANCH   7   8
HETATM    8  C   UNL     1      39.542  49.571  65.045  1.00  0.00     0.194 C 
BRANCH   8   9
HETATM    9  O   UNL     1      39.639  49.022  63.733  1.00  0.00    -0.398 OA
HETATM   10  H   UNL     1      38.968  49.473  63.185  1.00  0.00     0.209 HD
ENDBRANCH   8   9
ENDBRANCH   7   8
BRANCH   7  11
HETATM   11  C   UNL     1      37.761  50.477  66.636  1.00  0.00    -0.033 A 
HETATM   12  C   UNL     1      37.937  51.833  66.324  1.00  0.00     0.009 A 
HETATM   13  C   UNL     1      37.575  52.827  67.236  1.00  0.00     0.001 A 
HETATM   14  C   UNL     1      37.029  52.480  68.469  1.00  0.00     0.000 A 
HETATM   15  C   UNL     1      36.840  51.140  68.792  1.00  0.00     0.001 A 
HETATM   16  C   UNL     1      37.198  50.143  67.881  1.00  0.00     0.009 A 
ENDBRANCH   7  11
ENDBRANCH   1   7
BRANCH   4  17
HETATM   17  C   UNL     1      37.059  44.729  65.796  1.00  0.00     0.153 A 
HETATM   18  N   UNL     1      37.903  43.903  65.176  1.00  0.00    -0.335 N 
HETATM   19  H   UNL     1      38.861  44.224  65.021  1.00  0.00     0.168 HD
HETATM   20  C   UNL     1      37.361  42.673  64.840  1.00  0.00     0.051 A 
HETATM   21  C   UNL     1      36.021  42.613  65.162  1.00  0.00     0.083 A 
HETATM   22  S   UNL     1      35.475  44.058  65.928  1.00  0.00    -0.063 SA
BRANCH  20  23
HETATM   23  C   UNL     1      38.132  41.585  64.237  1.00  0.00    -0.006 A 
HETATM   24  C   UNL     1      38.546  41.631  62.899  1.00  0.00     0.033 A 
HETATM   25  C   UNL     1      39.244  40.554  62.373  1.00  0.00     0.117 A 
HETATM   26  N   UNL     1      39.551  39.451  63.079  1.00  0.00    -0.273 NA
HETATM   27  C   UNL     1      39.152  39.415  64.363  1.00  0.00     0.117 A 
HETATM   28  C   UNL     1      38.452  40.442  64.980  1.00  0.00     0.033 A 
ENDBRANCH  20  23
ENDBRANCH   4  17
TORSDOF 6
ENDMDL
