MODEL 1
REMARK VINA RESULT:      -9.8      0.000      0.000
REMARK  8 active torsions:
REMARK  status: ('A' for Active; 'I' for Inactive)
REMARK    1  A    between atoms: N_9  and  N_10 
REMARK    2  A    between atoms: C_11  and  C_12 
REMARK    3  A    between atoms: C_14  and  O_15 
REMARK    4  A    between atoms: C_19  and  N_20 
REMARK    5  A    between atoms: C_21  and  C_22 
REMARK       I    between atoms: C_22  and  N_23 
REMARK    6  A    between atoms: N_23  and  C_24 
REMARK    7  A    between atoms: C_24  and  C_25 
REMARK    8  A    between atoms: C_25  and  C_26 
ROOT
HETATM    1  C   UNL     1      27.593  47.270  55.167  1.00  0.00     0.002 A 
HETATM    2  C   UNL     1      26.777  47.641  54.096  1.00  0.00     0.034 A 
HETATM    3  C   UNL     1      26.332  46.711  53.161  1.00  0.00     0.086 A 
HETATM    4  C   UNL     1      26.727  45.353  53.301  1.00  0.00     0.088 A 
HETATM    5  N   UNL     1      26.344  44.392  52.446  1.00  0.00    -0.225 NA
HETATM    6  C   UNL     1      25.520  44.845  51.470  1.00  0.00     0.183 A 
HETATM    7  C   UNL     1      25.110  46.166  51.324  1.00  0.00     0.125 A 
HETATM    8  N   UNL     1      25.542  47.142  52.164  1.00  0.00    -0.242 NA
HETATM    9  N   UNL     1      24.959  44.111  50.440  1.00  0.00    -0.197 N 
HETATM   10  C   UNL     1      24.139  44.960  49.692  1.00  0.00     0.143 A 
HETATM   11  C   UNL     1      24.265  46.244  50.195  1.00  0.00     0.110 A 
HETATM   12  C   UNL     1      27.542  45.001  54.371  1.00  0.00     0.034 A 
HETATM   13  C   UNL     1      27.977  45.944  55.304  1.00  0.00     0.002 A 
ENDROOT
BRANCH  11  14
HETATM   14  C   UNL     1      23.723  47.407  49.527  1.00  0.00     0.257 C 
HETATM   15  N   UNL     1      24.621  48.456  49.468  1.00  0.00    -0.356 N 
HETATM   16  H   UNL     1      25.504  48.338  49.949  1.00  0.00     0.162 HD
HETATM   17  O   UNL     1      22.672  47.381  48.897  1.00  0.00    -0.267 OA
BRANCH  15  18
HETATM   18  C   UNL     1      24.582  49.365  48.337  1.00  0.00     0.127 C 
BRANCH  18  19
HETATM   19  C   UNL     1      23.916  50.713  48.709  1.00  0.00     0.053 C 
BRANCH  19  20
HETATM   20  C   UNL     1      22.401  50.825  48.771  1.00  0.00    -0.082 C 
HETATM   21  C   UNL     1      21.853  51.093  50.161  1.00  0.00     0.034 C 
HETATM   22  C   UNL     1      20.345  50.866  50.295  1.00  0.00     0.005 C 
HETATM   23  C   UNL     1      19.592  51.475  49.121  1.00  0.00     0.004 C 
HETATM   24  C   UNL     1      20.076  50.886  47.798  1.00  0.00     0.027 C 
HETATM   25  C   UNL     1      21.568  50.735  47.716  1.00  0.00    -0.024 C 
ENDBRANCH  19  20
ENDBRANCH  18  19
ENDBRANCH  15  18
ENDBRANCH  11  14
BRANCH  10  26
HETATM   26  N   UNL     1      23.463  44.539  48.585  1.00  0.00    -0.383 N 
HETATM   27  H   UNL     1      23.121  45.214  47.905  1.00  0.00     0.157 HD
HETATM   28  H   UNL     1      22.867  43.709  48.652  1.00  0.00     0.157 HD
ENDBRANCH  10  26
BRANCH   9  29
HETATM   29  N   UNL     1      25.353  42.857  50.046  1.00  0.00    -0.176 NA
HETATM   30  C   UNL     1      26.494  42.835  49.435  1.00  0.00     0.150 C 
BRANCH  30  31
HETATM   31  C   UNL     1      27.237  41.571  49.265  1.00  0.00    -0.014 A 
HETATM   32  C   UNL     1      27.785  40.934  50.385  1.00  0.00     0.049 A 
HETATM   33  C   UNL     1      28.623  39.842  50.198  1.00  0.00     0.066 A 
HETATM   34  C   UNL     1      28.903  39.369  48.922  1.00  0.00     0.036 A 
HETATM   35  C   UNL     1      28.341  39.997  47.808  1.00  0.00     0.004 A 
HETATM   36  C   UNL     1      27.512  41.108  47.977  1.00  0.00     0.013 A 
BRANCH  33  37
HETATM   37  O   UNL     1      29.219  39.218  51.254  1.00  0.00    -0.361 OA
HETATM   38  H   UNL     1      29.625  39.892  51.826  1.00  0.00     0.217 HD
ENDBRANCH  33  37
ENDBRANCH  30  31
ENDBRANCH   9  29
TORSDOF 8
ENDMDL
MODEL 2
REMARK VINA RESULT:      -9.5      2.813      9.431
REMARK  8 active torsions:
REMARK  status: ('A' for Active; 'I' for Inactive)
REMARK    1  A    between atoms: N_9  and  N_10 
REMARK    2  A    between atoms: C_11  and  C_12 
REMARK    3  A    between atoms: C_14  and  O_15 
REMARK    4  A    between atoms: C_19  and  N_20 
REMARK    5  A    between atoms: C_21  and  C_22 
REMARK       I    between atoms: C_22  and  N_23 
REMARK    6  A    between atoms: N_23  and  C_24 
REMARK    7  A    between atoms: C_24  and  C_25 
REMARK    8  A    between atoms: C_25  and  C_26 
ROOT
HETATM    1  C   UNL     1      27.971  49.100  49.221  1.00  0.00     0.002 A 
HETATM    2  C   UNL     1      27.277  47.920  49.496  1.00  0.00     0.034 A 
HETATM    3  C   UNL     1      25.908  47.810  49.274  1.00  0.00     0.086 A 
HETATM    4  C   UNL     1      25.203  48.932  48.762  1.00  0.00     0.088 A 
HETATM    5  N   UNL     1      23.883  48.913  48.518  1.00  0.00    -0.225 NA
HETATM    6  C   UNL     1      23.312  47.711  48.775  1.00  0.00     0.183 A 
HETATM    7  C   UNL     1      23.986  46.597  49.262  1.00  0.00     0.125 A 
HETATM    8  N   UNL     1      25.311  46.639  49.554  1.00  0.00    -0.242 NA
HETATM    9  N   UNL     1      21.978  47.370  48.631  1.00  0.00    -0.197 N 
HETATM   10  C   UNL     1      21.832  46.020  48.961  1.00  0.00     0.143 A 
HETATM   11  C   UNL     1      23.055  45.544  49.404  1.00  0.00     0.110 A 
HETATM   12  C   UNL     1      25.908  50.100  48.496  1.00  0.00     0.034 A 
HETATM   13  C   UNL     1      27.282  50.195  48.719  1.00  0.00     0.002 A 
ENDROOT
BRANCH  11  14
HETATM   14  C   UNL     1      23.216  44.248  50.025  1.00  0.00     0.257 C 
HETATM   15  N   UNL     1      24.512  43.775  49.949  1.00  0.00    -0.356 N 
HETATM   16  H   UNL     1      25.176  44.326  49.419  1.00  0.00     0.162 HD
HETATM   17  O   UNL     1      22.350  43.736  50.726  1.00  0.00    -0.267 OA
BRANCH  15  18
HETATM   18  C   UNL     1      25.028  42.936  51.015  1.00  0.00     0.127 C 
BRANCH  18  19
HETATM   19  C   UNL     1      25.689  43.776  52.136  1.00  0.00     0.053 C 
BRANCH  19  20
HETATM   20  C   UNL     1      27.087  43.429  52.626  1.00  0.00    -0.082 C 
HETATM   21  C   UNL     1      27.726  42.258  51.903  1.00  0.00     0.034 C 
HETATM   22  C   UNL     1      28.963  41.689  52.604  1.00  0.00     0.005 C 
HETATM   23  C   UNL     1      29.886  42.802  53.078  1.00  0.00     0.004 C 
HETATM   24  C   UNL     1      29.156  43.746  54.030  1.00  0.00     0.027 C 
HETATM   25  C   UNL     1      27.761  44.086  53.589  1.00  0.00    -0.024 C 
ENDBRANCH  19  20
ENDBRANCH  18  19
ENDBRANCH  15  18
ENDBRANCH  11  14
BRANCH  10  26
HETATM   26  N   UNL     1      20.625  45.388  48.945  1.00  0.00    -0.383 N 
HETATM   27  H   UNL     1      20.363  44.763  49.705  1.00  0.00     0.157 HD
HETATM   28  H   UNL     1      20.221  45.108  48.047  1.00  0.00     0.157 HD
ENDBRANCH  10  26
BRANCH   9  29
HETATM   29  N   UNL     1      20.940  48.254  48.476  1.00  0.00    -0.176 NA
HETATM   30  C   UNL     1      20.769  49.043  49.488  1.00  0.00     0.150 C 
BRANCH  30  31
HETATM   31  C   UNL     1      19.960  50.271  49.361  1.00  0.00    -0.014 A 
HETATM   32  C   UNL     1      18.698  50.334  49.963  1.00  0.00     0.049 A 
HETATM   33  C   UNL     1      17.878  51.423  49.698  1.00  0.00     0.066 A 
HETATM   34  C   UNL     1      18.304  52.450  48.864  1.00  0.00     0.036 A 
HETATM   35  C   UNL     1      19.570  52.391  48.279  1.00  0.00     0.004 A 
HETATM   36  C   UNL     1      20.400  51.294  48.519  1.00  0.00     0.013 A 
BRANCH  33  37
HETATM   37  O   UNL     1      16.621  51.507  50.222  1.00  0.00    -0.361 OA
HETATM   38  H   UNL     1      16.383  52.446  50.313  1.00  0.00     0.217 HD
ENDBRANCH  33  37
ENDBRANCH  30  31
ENDBRANCH   9  29
TORSDOF 8
ENDMDL
MODEL 3
REMARK VINA RESULT:      -9.5      2.516      6.021
REMARK  8 active torsions:
REMARK  status: ('A' for Active; 'I' for Inactive)
REMARK    1  A    between atoms: N_9  and  N_10 
REMARK    2  A    between atoms: C_11  and  C_12 
REMARK    3  A    between atoms: C_14  and  O_15 
REMARK    4  A    between atoms: C_19  and  N_20 
REMARK    5  A    between atoms: C_21  and  C_22 
REMARK       I    between atoms: C_22  and  N_23 
REMARK    6  A    between atoms: N_23  and  C_24 
REMARK    7  A    between atoms: C_24  and  C_25 
REMARK    8  A    between atoms: C_25  and  C_26 
ROOT
HETATM    1  C   UNL     1      27.299  39.049  48.683  1.00  0.00     0.002 A 
HETATM    2  C   UNL     1      26.497  40.170  48.908  1.00  0.00     0.034 A 
HETATM    3  C   UNL     1      26.733  41.035  49.972  1.00  0.00     0.086 A 
HETATM    4  C   UNL     1      27.814  40.761  50.853  1.00  0.00     0.088 A 
HETATM    5  N   UNL     1      28.112  41.543  51.904  1.00  0.00    -0.225 NA
HETATM    6  C   UNL     1      27.304  42.626  52.008  1.00  0.00     0.183 A 
HETATM    7  C   UNL     1      26.252  42.920  51.147  1.00  0.00     0.125 A 
HETATM    8  N   UNL     1      25.925  42.098  50.117  1.00  0.00    -0.242 NA
HETATM    9  N   UNL     1      27.349  43.614  52.976  1.00  0.00    -0.197 N 
HETATM   10  C   UNL     1      26.369  44.564  52.679  1.00  0.00     0.143 A 
HETATM   11  C   UNL     1      25.648  44.121  51.582  1.00  0.00     0.110 A 
HETATM   12  C   UNL     1      28.600  39.640  50.618  1.00  0.00     0.034 A 
HETATM   13  C   UNL     1      28.355  38.783  49.544  1.00  0.00     0.002 A 
ENDROOT
BRANCH  11  14
HETATM   14  C   UNL     1      24.426  44.752  51.137  1.00  0.00     0.257 C 
HETATM   15  N   UNL     1      24.638  46.008  50.600  1.00  0.00    -0.356 N 
HETATM   16  H   UNL     1      25.580  46.377  50.642  1.00  0.00     0.162 HD
HETATM   17  O   UNL     1      23.361  44.152  51.049  1.00  0.00    -0.267 OA
BRANCH  15  18
HETATM   18  C   UNL     1      23.771  46.484  49.537  1.00  0.00     0.127 C 
BRANCH  18  19
HETATM   19  C   UNL     1      23.836  48.025  49.394  1.00  0.00     0.053 C 
BRANCH  19  20
HETATM   20  C   UNL     1      22.609  48.802  48.942  1.00  0.00    -0.082 C 
HETATM   21  C   UNL     1      22.867  50.275  48.683  1.00  0.00     0.034 C 
HETATM   22  C   UNL     1      21.596  51.123  48.567  1.00  0.00     0.005 C 
HETATM   23  C   UNL     1      20.556  50.434  47.697  1.00  0.00     0.004 C 
HETATM   24  C   UNL     1      20.196  49.061  48.258  1.00  0.00     0.027 C 
HETATM   25  C   UNL     1      21.385  48.279  48.740  1.00  0.00    -0.024 C 
ENDBRANCH  19  20
ENDBRANCH  18  19
ENDBRANCH  15  18
ENDBRANCH  11  14
BRANCH  10  26
HETATM   26  N   UNL     1      26.142  45.654  53.466  1.00  0.00    -0.383 N 
HETATM   27  H   UNL     1      25.192  45.986  53.619  1.00  0.00     0.157 HD
HETATM   28  H   UNL     1      26.832  46.409  53.480  1.00  0.00     0.157 HD
ENDBRANCH  10  26
BRANCH   9  29
HETATM   29  N   UNL     1      28.027  43.536  54.166  1.00  0.00    -0.176 NA
HETATM   30  C   UNL     1      29.149  44.181  54.172  1.00  0.00     0.150 C 
BRANCH  30  31
HETATM   31  C   UNL     1      29.826  44.511  55.441  1.00  0.00    -0.014 A 
HETATM   32  C   UNL     1      30.849  43.682  55.916  1.00  0.00     0.049 A 
HETATM   33  C   UNL     1      31.361  43.904  57.188  1.00  0.00     0.066 A 
HETATM   34  C   UNL     1      30.885  44.944  57.977  1.00  0.00     0.036 A 
HETATM   35  C   UNL     1      29.877  45.780  57.492  1.00  0.00     0.004 A 
HETATM   36  C   UNL     1      29.337  45.559  56.223  1.00  0.00     0.013 A 
BRANCH  33  37
HETATM   37  O   UNL     1      32.324  43.093  57.715  1.00  0.00    -0.361 OA
HETATM   38  H   UNL     1      33.009  42.944  57.041  1.00  0.00     0.217 HD
ENDBRANCH  33  37
ENDBRANCH  30  31
ENDBRANCH   9  29
TORSDOF 8
ENDMDL
MODEL 4
REMARK VINA RESULT:      -9.5      3.529      8.971
REMARK  8 active torsions:
REMARK  status: ('A' for Active; 'I' for Inactive)
REMARK    1  A    between atoms: N_9  and  N_10 
REMARK    2  A    between atoms: C_11  and  C_12 
REMARK    3  A    between atoms: C_14  and  O_15 
REMARK    4  A    between atoms: C_19  and  N_20 
REMARK    5  A    between atoms: C_21  and  C_22 
REMARK       I    between atoms: C_22  and  N_23 
REMARK    6  A    between atoms: N_23  and  C_24 
REMARK    7  A    between atoms: C_24  and  C_25 
REMARK    8  A    between atoms: C_25  and  C_26 
ROOT
HETATM    1  C   UNL     1      24.552  46.565  49.582  1.00  0.00     0.002 A 
HETATM    2  C   UNL     1      25.103  45.317  49.283  1.00  0.00     0.034 A 
HETATM    3  C   UNL     1      25.795  44.577  50.237  1.00  0.00     0.086 A 
HETATM    4  C   UNL     1      25.947  45.113  51.544  1.00  0.00     0.088 A 
HETATM    5  N   UNL     1      26.599  44.467  52.524  1.00  0.00    -0.225 NA
HETATM    6  C   UNL     1      27.056  43.248  52.146  1.00  0.00     0.183 A 
HETATM    7  C   UNL     1      26.904  42.700  50.877  1.00  0.00     0.125 A 
HETATM    8  N   UNL     1      26.288  43.380  49.877  1.00  0.00    -0.242 NA
HETATM    9  N   UNL     1      27.765  42.344  52.917  1.00  0.00    -0.197 N 
HETATM   10  C   UNL     1      27.994  41.199  52.150  1.00  0.00     0.143 A 
HETATM   11  C   UNL     1      27.515  41.426  50.870  1.00  0.00     0.110 A 
HETATM   12  C   UNL     1      25.395  46.357  51.825  1.00  0.00     0.034 A 
HETATM   13  C   UNL     1      24.700  47.087  50.859  1.00  0.00     0.002 A 
ENDROOT
BRANCH  11  14
HETATM   14  C   UNL     1      27.778  40.535  49.763  1.00  0.00     0.257 C 
HETATM   15  N   UNL     1      27.670  41.161  48.535  1.00  0.00    -0.356 N 
HETATM   16  H   UNL     1      27.354  42.123  48.532  1.00  0.00     0.162 HD
HETATM   17  O   UNL     1      28.253  39.414  49.909  1.00  0.00    -0.267 OA
BRANCH  15  18
HETATM   18  C   UNL     1      28.507  40.719  47.434  1.00  0.00     0.127 C 
BRANCH  18  19
HETATM   19  C   UNL     1      27.748  40.767  46.085  1.00  0.00     0.053 C 
BRANCH  19  20
HETATM   20  C   UNL     1      28.395  40.208  44.826  1.00  0.00    -0.082 C 
HETATM   21  C   UNL     1      28.333  38.696  44.715  1.00  0.00     0.034 C 
HETATM   22  C   UNL     1      29.264  38.108  43.651  1.00  0.00     0.005 C 
HETATM   23  C   UNL     1      29.191  38.905  42.357  1.00  0.00     0.004 C 
HETATM   24  C   UNL     1      29.557  40.367  42.595  1.00  0.00     0.027 C 
HETATM   25  C   UNL     1      28.957  40.941  43.847  1.00  0.00    -0.024 C 
ENDBRANCH  19  20
ENDBRANCH  18  19
ENDBRANCH  15  18
ENDBRANCH  11  14
BRANCH  10  26
HETATM   26  N   UNL     1      28.697  40.130  52.621  1.00  0.00    -0.383 N 
HETATM   27  H   UNL     1      28.745  39.948  53.622  1.00  0.00     0.157 HD
HETATM   28  H   UNL     1      29.541  39.832  52.124  1.00  0.00     0.157 HD
ENDBRANCH  10  26
BRANCH   9  29
HETATM   29  N   UNL     1      28.383  42.623  54.110  1.00  0.00    -0.176 NA
HETATM   30  C   UNL     1      29.327  43.503  54.016  1.00  0.00     0.150 C 
BRANCH  30  31
HETATM   31  C   UNL     1      29.847  44.186  55.217  1.00  0.00    -0.014 A 
HETATM   32  C   UNL     1      30.894  43.607  55.944  1.00  0.00     0.049 A 
HETATM   33  C   UNL     1      31.261  44.167  57.161  1.00  0.00     0.066 A 
HETATM   34  C   UNL     1      30.616  45.297  57.649  1.00  0.00     0.036 A 
HETATM   35  C   UNL     1      29.584  45.881  56.913  1.00  0.00     0.004 A 
HETATM   36  C   UNL     1      29.190  45.320  55.696  1.00  0.00     0.013 A 
BRANCH  33  37
HETATM   37  O   UNL     1      32.242  43.611  57.930  1.00  0.00    -0.361 OA
HETATM   38  H   UNL     1      31.838  43.250  58.737  1.00  0.00     0.217 HD
ENDBRANCH  33  37
ENDBRANCH  30  31
ENDBRANCH   9  29
TORSDOF 8
ENDMDL
MODEL 5
REMARK VINA RESULT:      -9.3      2.912      4.799
REMARK  8 active torsions:
REMARK  status: ('A' for Active; 'I' for Inactive)
REMARK    1  A    between atoms: N_9  and  N_10 
REMARK    2  A    between atoms: C_11  and  C_12 
REMARK    3  A    between atoms: C_14  and  O_15 
REMARK    4  A    between atoms: C_19  and  N_20 
REMARK    5  A    between atoms: C_21  and  C_22 
REMARK       I    between atoms: C_22  and  N_23 
REMARK    6  A    between atoms: N_23  and  C_24 
REMARK    7  A    between atoms: C_24  and  C_25 
REMARK    8  A    between atoms: C_25  and  C_26 
ROOT
HETATM    1  C   UNL     1      25.157  50.246  48.052  1.00  0.00     0.002 A 
HETATM    2  C   UNL     1      24.317  49.140  48.193  1.00  0.00     0.034 A 
HETATM    3  C   UNL     1      24.708  48.011  48.906  1.00  0.00     0.086 A 
HETATM    4  C   UNL     1      26.000  47.987  49.498  1.00  0.00     0.088 A 
HETATM    5  N   UNL     1      26.457  46.940  50.202  1.00  0.00    -0.225 NA
HETATM    6  C   UNL     1      25.551  45.939  50.318  1.00  0.00     0.183 A 
HETATM    7  C   UNL     1      24.278  45.949  49.760  1.00  0.00     0.125 A 
HETATM    8  N   UNL     1      23.841  46.991  49.006  1.00  0.00    -0.242 NA
HETATM    9  N   UNL     1      25.717  44.731  50.974  1.00  0.00    -0.197 N 
HETATM   10  C   UNL     1      24.519  44.017  50.887  1.00  0.00     0.143 A 
HETATM   11  C   UNL     1      23.639  44.735  50.093  1.00  0.00     0.110 A 
HETATM   12  C   UNL     1      26.826  49.094  49.346  1.00  0.00     0.034 A 
HETATM   13  C   UNL     1      26.418  50.222  48.631  1.00  0.00     0.002 A 
ENDROOT
BRANCH  11  14
HETATM   14  C   UNL     1      22.386  44.191  49.619  1.00  0.00     0.257 C 
HETATM   15  N   UNL     1      21.430  45.164  49.398  1.00  0.00    -0.356 N 
HETATM   16  H   UNL     1      21.668  46.114  49.654  1.00  0.00     0.162 HD
HETATM   17  O   UNL     1      22.263  43.028  49.250  1.00  0.00    -0.267 OA
BRANCH  15  18
HETATM   18  C   UNL     1      20.448  44.973  48.345  1.00  0.00     0.127 C 
BRANCH  18  19
HETATM   19  C   UNL     1      19.324  46.036  48.412  1.00  0.00     0.053 C 
BRANCH  19  20
HETATM   20  C   UNL     1      19.675  47.507  48.584  1.00  0.00    -0.082 C 
HETATM   21  C   UNL     1      19.110  48.136  49.845  1.00  0.00     0.034 C 
HETATM   22  C   UNL     1      19.160  49.667  49.857  1.00  0.00     0.005 C 
HETATM   23  C   UNL     1      20.507  50.176  49.367  1.00  0.00     0.004 C 
HETATM   24  C   UNL     1      20.801  49.673  47.956  1.00  0.00     0.027 C 
HETATM   25  C   UNL     1      20.439  48.230  47.745  1.00  0.00    -0.024 C 
ENDBRANCH  19  20
ENDBRANCH  18  19
ENDBRANCH  15  18
ENDBRANCH  11  14
BRANCH  10  26
HETATM   26  N   UNL     1      24.369  42.769  51.414  1.00  0.00    -0.383 N 
HETATM   27  H   UNL     1      24.134  41.983  50.812  1.00  0.00     0.157 HD
HETATM   28  H   UNL     1      23.988  42.671  52.359  1.00  0.00     0.157 HD
ENDBRANCH  10  26
BRANCH   9  29
HETATM   29  N   UNL     1      26.914  44.203  51.385  1.00  0.00    -0.176 NA
HETATM   30  C   UNL     1      27.382  44.746  52.463  1.00  0.00     0.150 C 
BRANCH  30  31
HETATM   31  C   UNL     1      28.445  44.083  53.244  1.00  0.00    -0.014 A 
HETATM   32  C   UNL     1      28.779  44.571  54.513  1.00  0.00     0.049 A 
HETATM   33  C   UNL     1      29.889  44.051  55.166  1.00  0.00     0.066 A 
HETATM   34  C   UNL     1      30.652  43.046  54.584  1.00  0.00     0.036 A 
HETATM   35  C   UNL     1      30.306  42.550  53.325  1.00  0.00     0.004 A 
HETATM   36  C   UNL     1      29.204  43.075  52.646  1.00  0.00     0.013 A 
BRANCH  33  37
HETATM   37  O   UNL     1      30.283  44.527  56.382  1.00  0.00    -0.361 OA
HETATM   38  H   UNL     1      29.857  45.387  56.533  1.00  0.00     0.217 HD
ENDBRANCH  33  37
ENDBRANCH  30  31
ENDBRANCH   9  29
TORSDOF 8
ENDMDL
MODEL 6
REMARK VINA RESULT:      -9.2      3.658      9.030
REMARK  8 active torsions:
REMARK  status: ('A' for Active; 'I' for Inactive)
REMARK    1  A    between atoms: N_9  and  N_10 
REMARK    2  A    between atoms: C_11  and  C_12 
REMARK    3  A    between atoms: C_14  and  O_15 
REMARK    4  A    between atoms: C_19  and  N_20 
REMARK    5  A    between atoms: C_21  and  C_22 
REMARK       I    between atoms: C_22  and  N_23 
REMARK    6  A    between atoms: N_23  and  C_24 
REMARK    7  A    between atoms: C_24  and  C_25 
REMARK    8  A    between atoms: C_25  and  C_26 
ROOT
HETATM    1  C   UNL     1      24.479  46.290  49.627  1.00  0.00     0.002 A 
HETATM    2  C   UNL     1      25.082  45.092  49.239  1.00  0.00     0.034 A 
HETATM    3  C   UNL     1      25.855  44.345  50.122  1.00  0.00     0.086 A 
HETATM    4  C   UNL     1      26.039  44.823  51.448  1.00  0.00     0.088 A 
HETATM    5  N   UNL     1      26.769  44.166  52.363  1.00  0.00    -0.225 NA
HETATM    6  C   UNL     1      27.273  42.995  51.902  1.00  0.00     0.183 A 
HETATM    7  C   UNL     1      27.092  42.503  50.614  1.00  0.00     0.125 A 
HETATM    8  N   UNL     1      26.395  43.197  49.679  1.00  0.00    -0.242 NA
HETATM    9  N   UNL     1      28.065  42.095  52.593  1.00  0.00    -0.197 N 
HETATM   10  C   UNL     1      28.319  41.004  51.758  1.00  0.00     0.143 A 
HETATM   11  C   UNL     1      27.769  41.267  50.514  1.00  0.00     0.110 A 
HETATM   12  C   UNL     1      25.435  46.018  51.817  1.00  0.00     0.034 A 
HETATM   13  C   UNL     1      24.657  46.756  50.923  1.00  0.00     0.002 A 
ENDROOT
BRANCH  11  14
HETATM   14  C   UNL     1      28.028  40.449  49.351  1.00  0.00     0.257 C 
HETATM   15  N   UNL     1      27.611  41.043  48.175  1.00  0.00    -0.356 N 
HETATM   16  H   UNL     1      27.116  41.923  48.251  1.00  0.00     0.162 HD
HETATM   17  O   UNL     1      28.731  39.445  49.387  1.00  0.00    -0.267 OA
BRANCH  15  18
HETATM   18  C   UNL     1      28.338  40.780  46.946  1.00  0.00     0.127 C 
BRANCH  18  19
HETATM   19  C   UNL     1      27.498  39.937  45.955  1.00  0.00     0.053 C 
BRANCH  19  20
HETATM   20  C   UNL     1      27.014  38.551  46.351  1.00  0.00    -0.082 C 
HETATM   21  C   UNL     1      28.114  37.509  46.437  1.00  0.00     0.034 C 
HETATM   22  C   UNL     1      27.607  36.065  46.493  1.00  0.00     0.005 C 
HETATM   23  C   UNL     1      26.443  35.930  47.463  1.00  0.00     0.004 C 
HETATM   24  C   UNL     1      25.294  36.853  47.069  1.00  0.00     0.027 C 
HETATM   25  C   UNL     1      25.741  38.223  46.644  1.00  0.00    -0.024 C 
ENDBRANCH  19  20
ENDBRANCH  18  19
ENDBRANCH  15  18
ENDBRANCH  11  14
BRANCH  10  26
HETATM   26  N   UNL     1      29.099  39.953  52.141  1.00  0.00    -0.383 N 
HETATM   27  H   UNL     1      30.109  40.064  52.214  1.00  0.00     0.157 HD
HETATM   28  H   UNL     1      28.824  39.005  51.871  1.00  0.00     0.157 HD
ENDBRANCH  10  26
BRANCH   9  29
HETATM   29  N   UNL     1      28.721  42.348  53.771  1.00  0.00    -0.176 NA
HETATM   30  C   UNL     1      29.479  43.397  53.733  1.00  0.00     0.150 C 
BRANCH  30  31
HETATM   31  C   UNL     1      29.966  44.024  54.977  1.00  0.00    -0.014 A 
HETATM   32  C   UNL     1      30.955  43.384  55.733  1.00  0.00     0.049 A 
HETATM   33  C   UNL     1      31.285  43.893  56.983  1.00  0.00     0.066 A 
HETATM   34  C   UNL     1      30.661  45.034  57.474  1.00  0.00     0.036 A 
HETATM   35  C   UNL     1      29.688  45.679  56.709  1.00  0.00     0.004 A 
HETATM   36  C   UNL     1      29.331  45.169  55.459  1.00  0.00     0.013 A 
BRANCH  33  37
HETATM   37  O   UNL     1      32.206  43.278  57.778  1.00  0.00    -0.361 OA
HETATM   38  H   UNL     1      33.096  43.497  57.452  1.00  0.00     0.217 HD
ENDBRANCH  33  37
ENDBRANCH  30  31
ENDBRANCH   9  29
TORSDOF 8
ENDMDL
MODEL 7
REMARK VINA RESULT:      -9.1      2.351      9.002
REMARK  8 active torsions:
REMARK  status: ('A' for Active; 'I' for Inactive)
REMARK    1  A    between atoms: N_9  and  N_10 
REMARK    2  A    between atoms: C_11  and  C_12 
REMARK    3  A    between atoms: C_14  and  O_15 
REMARK    4  A    between atoms: C_19  and  N_20 
REMARK    5  A    between atoms: C_21  and  C_22 
REMARK       I    between atoms: C_22  and  N_23 
REMARK    6  A    between atoms: N_23  and  C_24 
REMARK    7  A    between atoms: C_24  and  C_25 
REMARK    8  A    between atoms: C_25  and  C_26 
ROOT
HETATM    1  C   UNL     1      30.399  43.474  55.771  1.00  0.00     0.002 A 
HETATM    2  C   UNL     1      30.007  42.635  54.725  1.00  0.00     0.034 A 
HETATM    3  C   UNL     1      29.136  43.067  53.730  1.00  0.00     0.086 A 
HETATM    4  C   UNL     1      28.630  44.394  53.789  1.00  0.00     0.088 A 
HETATM    5  N   UNL     1      27.785  44.891  52.871  1.00  0.00    -0.225 NA
HETATM    6  C   UNL     1      27.502  44.015  51.877  1.00  0.00     0.183 A 
HETATM    7  C   UNL     1      27.999  42.719  51.794  1.00  0.00     0.125 A 
HETATM    8  N   UNL     1      28.812  42.206  52.752  1.00  0.00    -0.242 NA
HETATM    9  N   UNL     1      26.668  44.221  50.792  1.00  0.00    -0.197 N 
HETATM   10  C   UNL     1      26.701  43.076  49.991  1.00  0.00     0.143 A 
HETATM   11  C   UNL     1      27.476  42.120  50.626  1.00  0.00     0.110 A 
HETATM   12  C   UNL     1      29.027  45.215  54.837  1.00  0.00     0.034 A 
HETATM   13  C   UNL     1      29.906  44.770  55.826  1.00  0.00     0.002 A 
ENDROOT
BRANCH  11  14
HETATM   14  C   UNL     1      27.549  40.746  50.182  1.00  0.00     0.257 C 
HETATM   15  N   UNL     1      28.841  40.254  50.173  1.00  0.00    -0.356 N 
HETATM   16  H   UNL     1      29.586  40.904  50.394  1.00  0.00     0.162 HD
HETATM   17  O   UNL     1      26.557  40.039  50.042  1.00  0.00    -0.267 OA
BRANCH  15  18
HETATM   18  C   UNL     1      29.070  38.846  50.440  1.00  0.00     0.127 C 
BRANCH  18  19
HETATM   19  C   UNL     1      29.354  38.056  49.139  1.00  0.00     0.053 C 
BRANCH  19  20
HETATM   20  C   UNL     1      28.214  37.706  48.194  1.00  0.00    -0.082 C 
HETATM   21  C   UNL     1      27.130  36.847  48.819  1.00  0.00     0.034 C 
HETATM   22  C   UNL     1      26.173  36.211  47.806  1.00  0.00     0.005 C 
HETATM   23  C   UNL     1      25.741  37.220  46.752  1.00  0.00     0.004 C 
HETATM   24  C   UNL     1      26.950  37.791  46.015  1.00  0.00     0.027 C 
HETATM   25  C   UNL     1      28.105  38.120  46.918  1.00  0.00    -0.024 C 
ENDBRANCH  19  20
ENDBRANCH  18  19
ENDBRANCH  15  18
ENDBRANCH  11  14
BRANCH  10  26
HETATM   26  N   UNL     1      25.958  42.956  48.854  1.00  0.00    -0.383 N 
HETATM   27  H   UNL     1      26.271  43.391  47.989  1.00  0.00     0.157 HD
HETATM   28  H   UNL     1      24.938  42.914  48.929  1.00  0.00     0.157 HD
ENDBRANCH  10  26
BRANCH   9  29
HETATM   29  N   UNL     1      25.755  45.237  50.667  1.00  0.00    -0.176 NA
HETATM   30  C   UNL     1      26.289  46.396  50.450  1.00  0.00     0.150 C 
BRANCH  30  31
HETATM   31  C   UNL     1      25.480  47.518  49.937  1.00  0.00    -0.014 A 
HETATM   32  C   UNL     1      24.084  47.467  50.035  1.00  0.00     0.049 A 
HETATM   33  C   UNL     1      23.327  48.443  49.400  1.00  0.00     0.066 A 
HETATM   34  C   UNL     1      23.938  49.471  48.693  1.00  0.00     0.036 A 
HETATM   35  C   UNL     1      25.331  49.528  48.612  1.00  0.00     0.004 A 
HETATM   36  C   UNL     1      26.107  48.544  49.228  1.00  0.00     0.013 A 
BRANCH  33  37
HETATM   37  O   UNL     1      21.964  48.409  49.425  1.00  0.00    -0.361 OA
HETATM   38  H   UNL     1      21.665  48.560  50.338  1.00  0.00     0.217 HD
ENDBRANCH  33  37
ENDBRANCH  30  31
ENDBRANCH   9  29
TORSDOF 8
ENDMDL
MODEL 8
REMARK VINA RESULT:      -9.1      2.709      6.427
REMARK  8 active torsions:
REMARK  status: ('A' for Active; 'I' for Inactive)
REMARK    1  A    between atoms: N_9  and  N_10 
REMARK    2  A    between atoms: C_11  and  C_12 
REMARK    3  A    between atoms: C_14  and  O_15 
REMARK    4  A    between atoms: C_19  and  N_20 
REMARK    5  A    between atoms: C_21  and  C_22 
REMARK       I    between atoms: C_22  and  N_23 
REMARK    6  A    between atoms: N_23  and  C_24 
REMARK    7  A    between atoms: C_24  and  C_25 
REMARK    8  A    between atoms: C_25  and  C_26 
ROOT
HETATM    1  C   UNL     1      27.785  38.402  48.517  1.00  0.00     0.002 A 
HETATM    2  C   UNL     1      26.913  39.482  48.671  1.00  0.00     0.034 A 
HETATM    3  C   UNL     1      27.061  40.399  49.707  1.00  0.00     0.086 A 
HETATM    4  C   UNL     1      28.124  40.222  50.634  1.00  0.00     0.088 A 
HETATM    5  N   UNL     1      28.339  41.058  51.662  1.00  0.00    -0.225 NA
HETATM    6  C   UNL     1      27.469  42.095  51.696  1.00  0.00     0.183 A 
HETATM    7  C   UNL     1      26.432  42.295  50.791  1.00  0.00     0.125 A 
HETATM    8  N   UNL     1      26.189  41.418  49.784  1.00  0.00    -0.242 NA
HETATM    9  N   UNL     1      27.422  43.119  52.626  1.00  0.00    -0.197 N 
HETATM   10  C   UNL     1      26.401  43.999  52.259  1.00  0.00     0.143 A 
HETATM   11  C   UNL     1      25.745  43.473  51.158  1.00  0.00     0.110 A 
HETATM   12  C   UNL     1      28.981  39.140  50.469  1.00  0.00     0.034 A 
HETATM   13  C   UNL     1      28.823  38.231  49.422  1.00  0.00     0.002 A 
ENDROOT
BRANCH  11  14
HETATM   14  C   UNL     1      24.506  44.016  50.648  1.00  0.00     0.257 C 
HETATM   15  N   UNL     1      24.384  43.875  49.279  1.00  0.00    -0.356 N 
HETATM   16  H   UNL     1      25.177  43.493  48.779  1.00  0.00     0.162 HD
HETATM   17  O   UNL     1      23.582  44.360  51.376  1.00  0.00    -0.267 OA
BRANCH  15  18
HETATM   18  C   UNL     1      23.067  43.696  48.695  1.00  0.00     0.127 C 
BRANCH  18  19
HETATM   19  C   UNL     1      22.778  44.753  47.600  1.00  0.00     0.053 C 
BRANCH  19  20
HETATM   20  C   UNL     1      22.249  46.126  47.985  1.00  0.00    -0.082 C 
HETATM   21  C   UNL     1      20.825  46.392  47.531  1.00  0.00     0.034 C 
HETATM   22  C   UNL     1      20.409  47.864  47.605  1.00  0.00     0.005 C 
HETATM   23  C   UNL     1      20.851  48.494  48.917  1.00  0.00     0.004 C 
HETATM   24  C   UNL     1      22.364  48.388  49.091  1.00  0.00     0.027 C 
HETATM   25  C   UNL     1      22.923  47.052  48.692  1.00  0.00    -0.024 C 
ENDBRANCH  19  20
ENDBRANCH  18  19
ENDBRANCH  15  18
ENDBRANCH  11  14
BRANCH  10  26
HETATM   26  N   UNL     1      26.084  45.102  52.995  1.00  0.00    -0.383 N 
HETATM   27  H   UNL     1      26.792  45.806  53.195  1.00  0.00     0.157 HD
HETATM   28  H   UNL     1      25.388  45.019  53.741  1.00  0.00     0.157 HD
ENDBRANCH  10  26
BRANCH   9  29
HETATM   29  N   UNL     1      28.062  43.126  53.840  1.00  0.00    -0.176 NA
HETATM   30  C   UNL     1      29.221  43.701  53.817  1.00  0.00     0.150 C 
BRANCH  30  31
HETATM   31  C   UNL     1      29.882  44.121  55.068  1.00  0.00    -0.014 A 
HETATM   32  C   UNL     1      30.842  43.290  55.657  1.00  0.00     0.049 A 
HETATM   33  C   UNL     1      31.333  43.611  56.916  1.00  0.00     0.066 A 
HETATM   34  C   UNL     1      30.897  44.751  57.581  1.00  0.00     0.036 A 
HETATM   35  C   UNL     1      29.951  45.586  56.983  1.00  0.00     0.004 A 
HETATM   36  C   UNL     1      29.433  45.268  55.727  1.00  0.00     0.013 A 
BRANCH  33  37
HETATM   37  O   UNL     1      32.233  42.807  57.552  1.00  0.00    -0.361 OA
HETATM   38  H   UNL     1      32.838  42.432  56.889  1.00  0.00     0.217 HD
ENDBRANCH  33  37
ENDBRANCH  30  31
ENDBRANCH   9  29
TORSDOF 8
ENDMDL
MODEL 9
REMARK VINA RESULT:      -9.1      2.326      4.228
REMARK  8 active torsions:
REMARK  status: ('A' for Active; 'I' for Inactive)
REMARK    1  A    between atoms: N_9  and  N_10 
REMARK    2  A    between atoms: C_11  and  C_12 
REMARK    3  A    between atoms: C_14  and  O_15 
REMARK    4  A    between atoms: C_19  and  N_20 
REMARK    5  A    between atoms: C_21  and  C_22 
REMARK       I    between atoms: C_22  and  N_23 
REMARK    6  A    between atoms: N_23  and  C_24 
REMARK    7  A    between atoms: C_24  and  C_25 
REMARK    8  A    between atoms: C_25  and  C_26 
ROOT
HETATM    1  C   UNL     1      25.214  50.512  48.191  1.00  0.00     0.002 A 
HETATM    2  C   UNL     1      24.162  49.593  48.180  1.00  0.00     0.034 A 
HETATM    3  C   UNL     1      24.315  48.302  48.675  1.00  0.00     0.086 A 
HETATM    4  C   UNL     1      25.577  47.912  49.198  1.00  0.00     0.088 A 
HETATM    5  N   UNL     1      25.812  46.687  49.695  1.00  0.00    -0.225 NA
HETATM    6  C   UNL     1      24.718  45.888  49.680  1.00  0.00     0.183 A 
HETATM    7  C   UNL     1      23.470  46.255  49.187  1.00  0.00     0.125 A 
HETATM    8  N   UNL     1      23.254  47.479  48.639  1.00  0.00    -0.242 NA
HETATM    9  N   UNL     1      24.633  44.577  50.115  1.00  0.00    -0.197 N 
HETATM   10  C   UNL     1      23.312  44.148  49.960  1.00  0.00     0.143 A 
HETATM   11  C   UNL     1      22.595  45.157  49.338  1.00  0.00     0.110 A 
HETATM   12  C   UNL     1      26.615  48.837  49.199  1.00  0.00     0.034 A 
HETATM   13  C   UNL     1      26.446  50.131  48.703  1.00  0.00     0.002 A 
ENDROOT
BRANCH  11  14
HETATM   14  C   UNL     1      21.253  44.972  48.833  1.00  0.00     0.257 C 
HETATM   15  N   UNL     1      20.397  45.994  49.199  1.00  0.00    -0.356 N 
HETATM   16  H   UNL     1      20.762  46.702  49.824  1.00  0.00     0.162 HD
HETATM   17  O   UNL     1      20.969  44.120  47.998  1.00  0.00    -0.267 OA
BRANCH  15  18
HETATM   18  C   UNL     1      19.314  46.370  48.309  1.00  0.00     0.127 C 
BRANCH  18  19
HETATM   19  C   UNL     1      19.644  47.663  47.522  1.00  0.00     0.053 C 
BRANCH  19  20
HETATM   20  C   UNL     1      19.635  49.009  48.230  1.00  0.00    -0.082 C 
HETATM   21  C   UNL     1      20.565  50.040  47.616  1.00  0.00     0.034 C 
HETATM   22  C   UNL     1      20.822  51.260  48.505  1.00  0.00     0.005 C 
HETATM   23  C   UNL     1      19.529  51.770  49.124  1.00  0.00     0.004 C 
HETATM   24  C   UNL     1      18.852  50.679  49.949  1.00  0.00     0.027 C 
HETATM   25  C   UNL     1      18.869  49.328  49.290  1.00  0.00    -0.024 C 
ENDBRANCH  19  20
ENDBRANCH  18  19
ENDBRANCH  15  18
ENDBRANCH  11  14
BRANCH  10  26
HETATM   26  N   UNL     1      22.909  42.885  50.276  1.00  0.00    -0.383 N 
HETATM   27  H   UNL     1      21.946  42.598  50.115  1.00  0.00     0.157 HD
HETATM   28  H   UNL     1      23.332  42.415  51.081  1.00  0.00     0.157 HD
ENDBRANCH  10  26
BRANCH   9  29
HETATM   29  N   UNL     1      25.697  43.752  50.379  1.00  0.00    -0.176 NA
HETATM   30  C   UNL     1      26.345  44.063  51.455  1.00  0.00     0.150 C 
BRANCH  30  31
HETATM   31  C   UNL     1      27.270  43.102  52.086  1.00  0.00    -0.014 A 
HETATM   32  C   UNL     1      27.679  41.967  51.376  1.00  0.00     0.049 A 
HETATM   33  C   UNL     1      28.410  40.986  52.035  1.00  0.00     0.066 A 
HETATM   34  C   UNL     1      28.752  41.131  53.374  1.00  0.00     0.036 A 
HETATM   35  C   UNL     1      28.356  42.272  54.074  1.00  0.00     0.004 A 
HETATM   36  C   UNL     1      27.605  43.259  53.432  1.00  0.00     0.013 A 
BRANCH  33  37
HETATM   37  O   UNL     1      28.790  39.840  51.400  1.00  0.00    -0.361 OA
HETATM   38  H   UNL     1      28.507  39.079  51.935  1.00  0.00     0.217 HD
ENDBRANCH  33  37
ENDBRANCH  30  31
ENDBRANCH   9  29
TORSDOF 8
ENDMDL
MODEL 10
REMARK VINA RESULT:      -9.1      1.279      1.559
REMARK  8 active torsions:
REMARK  status: ('A' for Active; 'I' for Inactive)
REMARK    1  A    between atoms: N_9  and  N_10 
REMARK    2  A    between atoms: C_11  and  C_12 
REMARK    3  A    between atoms: C_14  and  O_15 
REMARK    4  A    between atoms: C_19  and  N_20 
REMARK    5  A    between atoms: C_21  and  C_22 
REMARK       I    between atoms: C_22  and  N_23 
REMARK    6  A    between atoms: N_23  and  C_24 
REMARK    7  A    between atoms: C_24  and  C_25 
REMARK    8  A    between atoms: C_25  and  C_26 
ROOT
HETATM    1  C   UNL     1      26.915  47.200  54.962  1.00  0.00     0.002 A 
HETATM    2  C   UNL     1      26.040  47.190  53.874  1.00  0.00     0.034 A 
HETATM    3  C   UNL     1      26.108  46.207  52.892  1.00  0.00     0.086 A 
HETATM    4  C   UNL     1      27.100  45.195  53.000  1.00  0.00     0.088 A 
HETATM    5  N   UNL     1      27.237  44.210  52.098  1.00  0.00    -0.225 NA
HETATM    6  C   UNL     1      26.314  44.264  51.108  1.00  0.00     0.183 A 
HETATM    7  C   UNL     1      25.326  45.236  50.991  1.00  0.00     0.125 A 
HETATM    8  N   UNL     1      25.226  46.258  51.880  1.00  0.00    -0.242 NA
HETATM    9  N   UNL     1      26.189  43.402  50.032  1.00  0.00    -0.197 N 
HETATM   10  C   UNL     1      25.077  43.794  49.282  1.00  0.00     0.143 A 
HETATM   11  C   UNL     1      24.566  44.958  49.834  1.00  0.00     0.110 A 
HETATM   12  C   UNL     1      27.965  45.221  54.087  1.00  0.00     0.034 A 
HETATM   13  C   UNL     1      27.883  46.211  55.068  1.00  0.00     0.002 A 
ENDROOT
BRANCH  11  14
HETATM   14  C   UNL     1      23.548  45.754  49.186  1.00  0.00     0.257 C 
HETATM   15  N   UNL     1      23.552  47.071  49.604  1.00  0.00    -0.356 N 
HETATM   16  H   UNL     1      24.190  47.319  50.349  1.00  0.00     0.162 HD
HETATM   17  O   UNL     1      22.905  45.354  48.221  1.00  0.00    -0.267 OA
BRANCH  15  18
HETATM   18  C   UNL     1      23.159  48.115  48.675  1.00  0.00     0.127 C 
BRANCH  18  19
HETATM   19  C   UNL     1      22.681  49.389  49.415  1.00  0.00     0.053 C 
BRANCH  19  20
HETATM   20  C   UNL     1      21.267  49.910  49.203  1.00  0.00    -0.082 C 
HETATM   21  C   UNL     1      21.200  51.270  48.534  1.00  0.00     0.034 C 
HETATM   22  C   UNL     1      19.830  51.947  48.628  1.00  0.00     0.005 C 
HETATM   23  C   UNL     1      18.710  50.964  48.321  1.00  0.00     0.004 C 
HETATM   24  C   UNL     1      18.751  49.774  49.276  1.00  0.00     0.027 C 
HETATM   25  C   UNL     1      20.138  49.254  49.529  1.00  0.00    -0.024 C 
ENDBRANCH  19  20
ENDBRANCH  18  19
ENDBRANCH  15  18
ENDBRANCH  11  14
BRANCH  10  26
HETATM   26  N   UNL     1      24.703  43.157  48.137  1.00  0.00    -0.383 N 
HETATM   27  H   UNL     1      24.096  42.340  48.179  1.00  0.00     0.157 HD
HETATM   28  H   UNL     1      25.357  43.123  47.351  1.00  0.00     0.157 HD
ENDBRANCH  10  26
BRANCH   9  29
HETATM   29  N   UNL     1      27.139  42.506  49.611  1.00  0.00    -0.176 NA
HETATM   30  C   UNL     1      27.036  41.339  50.160  1.00  0.00     0.150 C 
BRANCH  30  31
HETATM   31  C   UNL     1      27.720  40.167  49.579  1.00  0.00    -0.014 A 
HETATM   32  C   UNL     1      28.767  39.558  50.282  1.00  0.00     0.049 A 
HETATM   33  C   UNL     1      29.513  38.567  49.657  1.00  0.00     0.066 A 
HETATM   34  C   UNL     1      29.219  38.166  48.358  1.00  0.00     0.036 A 
HETATM   35  C   UNL     1      28.164  38.765  47.667  1.00  0.00     0.004 A 
HETATM   36  C   UNL     1      27.416  39.775  48.274  1.00  0.00     0.013 A 
BRANCH  33  37
HETATM   37  O   UNL     1      30.573  37.978  50.281  1.00  0.00    -0.361 OA
HETATM   38  H   UNL     1      31.323  37.951  49.664  1.00  0.00     0.217 HD
ENDBRANCH  33  37
ENDBRANCH  30  31
ENDBRANCH   9  29
TORSDOF 8
ENDMDL
