MODEL 1
REMARK VINA RESULT:     -10.2      0.000      0.000
REMARK  7 active torsions:
REMARK  status: ('A' for Active; 'I' for Inactive)
REMARK    1  A    between atoms: C_4  and  N_5 
REMARK    2  A    between atoms: C_11  and  C_12 
REMARK    3  A    between atoms: C_12  and  C_13 
REMARK    4  A    between atoms: C_13  and  C_14 
REMARK       I    between atoms: C_14  and  N_15 
REMARK    5  A    between atoms: N_15  and  C_16 
REMARK    6  A    between atoms: N_19  and  C_21 
REMARK    7  A    between atoms: C_21  and  C_22 
ROOT
HETATM    1  C   UNL     1      22.255  43.916  49.126  1.00  0.00     0.110 C 
ENDROOT
BRANCH   1   2
HETATM    2  C   UNL     1      21.433  44.696  48.117  1.00  0.00     0.088 C 
BRANCH   2   3
HETATM    3  C   UNL     1      21.328  46.153  48.487  1.00  0.00     0.109 A 
HETATM    4  N   UNL     1      22.402  46.891  48.453  1.00  0.00    -0.215 NA
HETATM    5  C   UNL     1      22.183  48.186  48.827  1.00  0.00     0.170 A 
HETATM    6  N   UNL     1      23.119  49.205  49.021  1.00  0.00    -0.215 N 
HETATM    7  C   UNL     1      20.959  48.740  49.136  1.00  0.00     0.099 A 
HETATM    8  N   UNL     1      22.490  50.389  49.304  1.00  0.00    -0.177 NA
HETATM    9  C   UNL     1      21.196  50.082  49.409  1.00  0.00     0.160 A 
HETATM   10  C   UNL     1      19.786  47.921  49.124  1.00  0.00     0.262 A 
HETATM   11  N   UNL     1      20.065  46.607  48.805  1.00  0.00    -0.311 N 
HETATM   12  O   UNL     1      18.656  48.317  49.367  1.00  0.00    -0.267 OA
HETATM   13  H   UNL     1      19.262  45.993  48.814  1.00  0.00     0.170 HD
BRANCH   6  14
HETATM   14  C   UNL     1      24.546  49.158  48.979  1.00  0.00     0.060 A 
HETATM   15  C   UNL     1      25.235  50.093  48.187  1.00  0.00     0.031 A 
HETATM   16  C   UNL     1      26.631  50.100  48.146  1.00  0.00     0.002 A 
HETATM   17  C   UNL     1      27.354  49.178  48.896  1.00  0.00     0.000 A 
HETATM   18  C   UNL     1      26.683  48.248  49.688  1.00  0.00     0.002 A 
HETATM   19  C   UNL     1      25.284  48.236  49.733  1.00  0.00     0.031 A 
ENDBRANCH   6  14
ENDBRANCH   2   3
ENDBRANCH   1   2
BRANCH   1  20
HETATM   20  C   UNL     1      23.675  43.518  48.748  1.00  0.00     0.218 C 
HETATM   21  N   UNL     1      24.655  43.668  49.707  1.00  0.00    -0.356 N 
HETATM   22  H   UNL     1      24.507  44.459  50.334  1.00  0.00     0.162 HD
HETATM   23  O   UNL     1      23.873  42.937  47.685  1.00  0.00    -0.274 OA
BRANCH  21  24
HETATM   24  C   UNL     1      26.080  43.342  49.515  1.00  0.00     0.087 C 
HETATM   25  C   UNL     1      26.679  42.257  50.416  1.00  0.00     0.053 C 
HETATM   26  C   UNL     1      26.599  42.637  51.884  1.00  0.00     0.237 C 
HETATM   27  N   UNL     1      27.326  43.949  52.122  1.00  0.00    -0.067 N 
HETATM   28  H   UNL     1      28.325  43.765  51.969  1.00  0.00     0.280 HD
HETATM   29  C   UNL     1      26.890  45.053  51.183  1.00  0.00     0.237 C 
HETATM   30  C   UNL     1      26.916  44.607  49.724  1.00  0.00     0.053 C 
BRANCH  27  31
HETATM   31  C   UNL     1      27.190  44.425  53.562  1.00  0.00     0.273 C 
BRANCH  31  32
HETATM   32  C   UNL     1      28.417  44.239  54.413  1.00  0.00    -0.033 A 
HETATM   33  C   UNL     1      28.826  45.232  55.316  1.00  0.00     0.010 A 
HETATM   34  C   UNL     1      29.970  45.045  56.099  1.00  0.00     0.024 A 
HETATM   35  C   UNL     1      30.715  43.873  55.980  1.00  0.00     0.034 A 
HETATM   36 CL   UNL     1      32.120  43.650  56.943  1.00  0.00    -0.084 Cl
HETATM   37  C   UNL     1      30.323  42.881  55.085  1.00  0.00     0.024 A 
HETATM   38  C   UNL     1      29.178  43.061  54.306  1.00  0.00     0.010 A 
ENDBRANCH  31  32
ENDBRANCH  27  31
ENDBRANCH  21  24
ENDBRANCH   1  20
TORSDOF 7
ENDMDL
MODEL 2
REMARK VINA RESULT:     -10.2      4.291     10.456
REMARK  7 active torsions:
REMARK  status: ('A' for Active; 'I' for Inactive)
REMARK    1  A    between atoms: C_4  and  N_5 
REMARK    2  A    between atoms: C_11  and  C_12 
REMARK    3  A    between atoms: C_12  and  C_13 
REMARK    4  A    between atoms: C_13  and  C_14 
REMARK       I    between atoms: C_14  and  N_15 
REMARK    5  A    between atoms: N_15  and  C_16 
REMARK    6  A    between atoms: N_19  and  C_21 
REMARK    7  A    between atoms: C_21  and  C_22 
ROOT
HETATM    1  C   UNL     1      26.114  47.300  51.363  1.00  0.00     0.110 C 
ENDROOT
BRANCH   1   2
HETATM    2  C   UNL     1      25.378  46.074  51.871  1.00  0.00     0.088 C 
BRANCH   2   3
HETATM    3  C   UNL     1      26.259  44.852  51.870  1.00  0.00     0.109 A 
HETATM    4  N   UNL     1      27.061  44.650  52.878  1.00  0.00    -0.215 NA
HETATM    5  C   UNL     1      27.819  43.522  52.752  1.00  0.00     0.170 A 
HETATM    6  N   UNL     1      28.856  43.075  53.576  1.00  0.00    -0.215 N 
HETATM    7  C   UNL     1      27.732  42.601  51.731  1.00  0.00     0.099 A 
HETATM    8  N   UNL     1      29.304  41.849  53.162  1.00  0.00    -0.177 NA
HETATM    9  C   UNL     1      28.647  41.598  52.029  1.00  0.00     0.160 A 
HETATM   10  C   UNL     1      26.813  42.820  50.656  1.00  0.00     0.262 A 
HETATM   11  N   UNL     1      26.115  44.004  50.791  1.00  0.00    -0.311 N 
HETATM   12  O   UNL     1      26.648  42.059  49.713  1.00  0.00    -0.267 OA
HETATM   13  H   UNL     1      25.476  44.203  50.035  1.00  0.00     0.170 HD
BRANCH   6  14
HETATM   14  C   UNL     1      29.468  43.706  54.702  1.00  0.00     0.060 A 
HETATM   15  C   UNL     1      30.571  43.086  55.313  1.00  0.00     0.031 A 
HETATM   16  C   UNL     1      31.217  43.688  56.395  1.00  0.00     0.002 A 
HETATM   17  C   UNL     1      30.771  44.914  56.877  1.00  0.00     0.000 A 
HETATM   18  C   UNL     1      29.680  45.540  56.279  1.00  0.00     0.002 A 
HETATM   19  C   UNL     1      29.029  44.943  55.194  1.00  0.00     0.031 A 
ENDBRANCH   6  14
ENDBRANCH   2   3
ENDBRANCH   1   2
BRANCH   1  20
HETATM   20  C   UNL     1      25.824  47.782  49.949  1.00  0.00     0.218 C 
HETATM   21  N   UNL     1      24.548  48.228  49.678  1.00  0.00    -0.356 N 
HETATM   22  H   UNL     1      23.818  47.746  50.201  1.00  0.00     0.162 HD
HETATM   23  O   UNL     1      26.753  47.910  49.156  1.00  0.00    -0.274 OA
BRANCH  21  24
HETATM   24  C   UNL     1      24.088  48.723  48.367  1.00  0.00     0.087 C 
HETATM   25  C   UNL     1      24.075  50.240  48.155  1.00  0.00     0.053 C 
HETATM   26  C   UNL     1      23.154  50.939  49.138  1.00  0.00     0.237 C 
HETATM   27  N   UNL     1      21.741  50.399  49.002  1.00  0.00    -0.067 N 
HETATM   28  H   UNL     1      21.397  50.703  48.083  1.00  0.00     0.280 HD
HETATM   29  C   UNL     1      21.669  48.889  49.068  1.00  0.00     0.237 C 
HETATM   30  C   UNL     1      22.661  48.227  48.117  1.00  0.00     0.053 C 
BRANCH  27  31
HETATM   31  C   UNL     1      20.798  50.998  50.035  1.00  0.00     0.273 C 
BRANCH  31  32
HETATM   32  C   UNL     1      19.452  51.412  49.507  1.00  0.00    -0.033 A 
HETATM   33  C   UNL     1      19.343  52.280  48.409  1.00  0.00     0.010 A 
HETATM   34  C   UNL     1      18.084  52.658  47.931  1.00  0.00     0.024 A 
HETATM   35  C   UNL     1      16.929  52.179  48.549  1.00  0.00     0.034 A 
HETATM   36 CL   UNL     1      15.385  52.648  47.957  1.00  0.00    -0.084 Cl
HETATM   37  C   UNL     1      17.022  51.322  49.641  1.00  0.00     0.024 A 
HETATM   38  C   UNL     1      18.277  50.937  50.117  1.00  0.00     0.010 A 
ENDBRANCH  31  32
ENDBRANCH  27  31
ENDBRANCH  21  24
ENDBRANCH   1  20
TORSDOF 7
ENDMDL
MODEL 3
REMARK VINA RESULT:     -10.0      1.320      2.155
REMARK  7 active torsions:
REMARK  status: ('A' for Active; 'I' for Inactive)
REMARK    1  A    between atoms: C_4  and  N_5 
REMARK    2  A    between atoms: C_11  and  C_12 
REMARK    3  A    between atoms: C_12  and  C_13 
REMARK    4  A    between atoms: C_13  and  C_14 
REMARK       I    between atoms: C_14  and  N_15 
REMARK    5  A    between atoms: N_15  and  C_16 
REMARK    6  A    between atoms: N_19  and  C_21 
REMARK    7  A    between atoms: C_21  and  C_22 
ROOT
HETATM    1  C   UNL     1      22.484  45.054  46.474  1.00  0.00     0.110 C 
ENDROOT
BRANCH   1   2
HETATM    2  C   UNL     1      21.235  45.901  46.306  1.00  0.00     0.088 C 
BRANCH   2   3
HETATM    3  C   UNL     1      21.238  47.090  47.232  1.00  0.00     0.109 A 
HETATM    4  N   UNL     1      22.375  47.644  47.545  1.00  0.00    -0.215 NA
HETATM    5  C   UNL     1      22.248  48.698  48.403  1.00  0.00     0.170 A 
HETATM    6  N   UNL     1      23.257  49.434  49.031  1.00  0.00    -0.215 N 
HETATM    7  C   UNL     1      21.061  49.227  48.861  1.00  0.00     0.099 A 
HETATM    8  N   UNL     1      22.720  50.473  49.745  1.00  0.00    -0.177 NA
HETATM    9  C   UNL     1      21.399  50.309  49.665  1.00  0.00     0.160 A 
HETATM   10  C   UNL     1      19.821  48.629  48.470  1.00  0.00     0.262 A 
HETATM   11  N   UNL     1      20.000  47.528  47.656  1.00  0.00    -0.311 N 
HETATM   12  O   UNL     1      18.716  49.029  48.808  1.00  0.00    -0.267 OA
HETATM   13  H   UNL     1      19.145  47.064  47.383  1.00  0.00     0.170 HD
BRANCH   6  14
HETATM   14  C   UNL     1      24.671  49.235  49.031  1.00  0.00     0.060 A 
HETATM   15  C   UNL     1      25.200  48.113  49.692  1.00  0.00     0.031 A 
HETATM   16  C   UNL     1      26.575  47.866  49.686  1.00  0.00     0.002 A 
HETATM   17  C   UNL     1      27.435  48.734  49.019  1.00  0.00     0.000 A 
HETATM   18  C   UNL     1      26.922  49.848  48.358  1.00  0.00     0.002 A 
HETATM   19  C   UNL     1      25.545  50.100  48.360  1.00  0.00     0.031 A 
ENDBRANCH   6  14
ENDBRANCH   2   3
ENDBRANCH   1   2
BRANCH   1  20
HETATM   20  C   UNL     1      22.464  43.933  47.502  1.00  0.00     0.218 C 
HETATM   21  N   UNL     1      23.678  43.481  47.976  1.00  0.00    -0.356 N 
HETATM   22  H   UNL     1      24.432  43.518  47.291  1.00  0.00     0.162 HD
HETATM   23  O   UNL     1      21.392  43.584  47.989  1.00  0.00    -0.274 OA
BRANCH  21  24
HETATM   24  C   UNL     1      23.848  42.402  48.966  1.00  0.00     0.087 C 
HETATM   25  C   UNL     1      23.579  42.747  50.434  1.00  0.00     0.053 C 
HETATM   26  C   UNL     1      24.511  43.836  50.937  1.00  0.00     0.237 C 
HETATM   27  N   UNL     1      25.956  43.398  50.778  1.00  0.00    -0.067 N 
HETATM   28  H   UNL     1      26.104  42.624  51.437  1.00  0.00     0.280 HD
HETATM   29  C   UNL     1      26.284  42.912  49.382  1.00  0.00     0.237 C 
HETATM   30  C   UNL     1      25.283  41.873  48.889  1.00  0.00     0.053 C 
BRANCH  27  31
HETATM   31  C   UNL     1      26.932  44.496  51.176  1.00  0.00     0.273 C 
BRANCH  31  32
HETATM   32  C   UNL     1      27.872  44.139  52.295  1.00  0.00    -0.033 A 
HETATM   33  C   UNL     1      28.918  43.225  52.096  1.00  0.00     0.010 A 
HETATM   34  C   UNL     1      29.781  42.902  53.148  1.00  0.00     0.024 A 
HETATM   35  C   UNL     1      29.603  43.481  54.403  1.00  0.00     0.034 A 
HETATM   36 CL   UNL     1      30.666  43.079  55.691  1.00  0.00    -0.084 Cl
HETATM   37  C   UNL     1      28.567  44.386  54.616  1.00  0.00     0.024 A 
HETATM   38  C   UNL     1      27.706  44.717  53.566  1.00  0.00     0.010 A 
ENDBRANCH  31  32
ENDBRANCH  27  31
ENDBRANCH  21  24
ENDBRANCH   1  20
TORSDOF 7
ENDMDL
MODEL 4
REMARK VINA RESULT:      -9.2      4.627     10.503
REMARK  7 active torsions:
REMARK  status: ('A' for Active; 'I' for Inactive)
REMARK    1  A    between atoms: C_4  and  N_5 
REMARK    2  A    between atoms: C_11  and  C_12 
REMARK    3  A    between atoms: C_12  and  C_13 
REMARK    4  A    between atoms: C_13  and  C_14 
REMARK       I    between atoms: C_14  and  N_15 
REMARK    5  A    between atoms: N_15  and  C_16 
REMARK    6  A    between atoms: N_19  and  C_21 
REMARK    7  A    between atoms: C_21  and  C_22 
ROOT
HETATM    1  C   UNL     1      24.274  46.465  50.123  1.00  0.00     0.110 C 
ENDROOT
BRANCH   1   2
HETATM    2  C   UNL     1      24.801  45.425  49.150  1.00  0.00     0.088 C 
BRANCH   2   3
HETATM    3  C   UNL     1      25.762  44.474  49.816  1.00  0.00     0.109 A 
HETATM    4  N   UNL     1      26.146  44.716  51.037  1.00  0.00    -0.215 NA
HETATM    5  C   UNL     1      27.030  43.795  51.522  1.00  0.00     0.170 A 
HETATM    6  N   UNL     1      27.728  43.813  52.732  1.00  0.00    -0.215 N 
HETATM    7  C   UNL     1      27.446  42.655  50.869  1.00  0.00     0.099 A 
HETATM    8  N   UNL     1      28.447  42.658  52.890  1.00  0.00    -0.177 NA
HETATM    9  C   UNL     1      28.299  41.992  51.744  1.00  0.00     0.160 A 
HETATM   10  C   UNL     1      26.978  42.387  49.544  1.00  0.00     0.262 A 
HETATM   11  N   UNL     1      26.140  43.376  49.070  1.00  0.00    -0.311 N 
HETATM   12  O   UNL     1      27.274  41.400  48.885  1.00  0.00    -0.267 OA
HETATM   13  H   UNL     1      25.811  43.232  48.125  1.00  0.00     0.170 HD
BRANCH   6  14
HETATM   14  C   UNL     1      27.789  44.825  53.739  1.00  0.00     0.060 A 
HETATM   15  C   UNL     1      28.826  44.778  54.687  1.00  0.00     0.031 A 
HETATM   16  C   UNL     1      28.940  45.768  55.666  1.00  0.00     0.002 A 
HETATM   17  C   UNL     1      28.023  46.814  55.709  1.00  0.00     0.000 A 
HETATM   18  C   UNL     1      26.993  46.872  54.772  1.00  0.00     0.002 A 
HETATM   19  C   UNL     1      26.874  45.885  53.789  1.00  0.00     0.031 A 
ENDBRANCH   6  14
ENDBRANCH   2   3
ENDBRANCH   1   2
BRANCH   1  20
HETATM   20  C   UNL     1      24.352  47.932  49.725  1.00  0.00     0.218 C 
HETATM   21  N   UNL     1      23.164  48.601  49.523  1.00  0.00    -0.356 N 
HETATM   22  H   UNL     1      22.417  48.019  49.145  1.00  0.00     0.162 HD
HETATM   23  O   UNL     1      25.438  48.505  49.754  1.00  0.00    -0.274 OA
BRANCH  21  24
HETATM   24  C   UNL     1      23.049  50.017  49.128  1.00  0.00     0.087 C 
HETATM   25  C   UNL     1      22.216  50.932  50.031  1.00  0.00     0.053 C 
HETATM   26  C   UNL     1      20.772  50.474  50.119  1.00  0.00     0.237 C 
HETATM   27  N   UNL     1      20.154  50.434  48.733  1.00  0.00    -0.067 N 
HETATM   28  H   UNL     1      20.084  51.408  48.412  1.00  0.00     0.280 HD
HETATM   29  C   UNL     1      20.980  49.656  47.731  1.00  0.00     0.237 C 
HETATM   30  C   UNL     1      22.439  50.099  47.726  1.00  0.00     0.053 C 
BRANCH  27  31
HETATM   31  C   UNL     1      18.734  49.885  48.755  1.00  0.00     0.273 C 
BRANCH  31  32
HETATM   32  C   UNL     1      17.652  50.920  48.905  1.00  0.00    -0.033 A 
HETATM   33  C   UNL     1      17.835  52.042  49.726  1.00  0.00     0.010 A 
HETATM   34  C   UNL     1      16.818  52.994  49.857  1.00  0.00     0.024 A 
HETATM   35  C   UNL     1      15.613  52.827  49.177  1.00  0.00     0.034 A 
HETATM   36 CL   UNL     1      14.367  53.999  49.343  1.00  0.00    -0.084 Cl
HETATM   37  C   UNL     1      15.416  51.716  48.362  1.00  0.00     0.024 A 
HETATM   38  C   UNL     1      16.431  50.767  48.224  1.00  0.00     0.010 A 
ENDBRANCH  31  32
ENDBRANCH  27  31
ENDBRANCH  21  24
ENDBRANCH   1  20
TORSDOF 7
ENDMDL
MODEL 5
REMARK VINA RESULT:      -9.1      4.206      9.900
REMARK  7 active torsions:
REMARK  status: ('A' for Active; 'I' for Inactive)
REMARK    1  A    between atoms: C_4  and  N_5 
REMARK    2  A    between atoms: C_11  and  C_12 
REMARK    3  A    between atoms: C_12  and  C_13 
REMARK    4  A    between atoms: C_13  and  C_14 
REMARK       I    between atoms: C_14  and  N_15 
REMARK    5  A    between atoms: N_15  and  C_16 
REMARK    6  A    between atoms: N_19  and  C_21 
REMARK    7  A    between atoms: C_21  and  C_22 
ROOT
HETATM    1  C   UNL     1      23.171  43.296  50.415  1.00  0.00     0.110 C 
ENDROOT
BRANCH   1   2
HETATM    2  C   UNL     1      24.353  44.055  50.992  1.00  0.00     0.088 C 
BRANCH   2   3
HETATM    3  C   UNL     1      25.514  43.140  51.287  1.00  0.00     0.109 A 
HETATM    4  N   UNL     1      26.306  43.426  52.283  1.00  0.00    -0.215 NA
HETATM    5  C   UNL     1      27.328  42.535  52.437  1.00  0.00     0.170 A 
HETATM    6  N   UNL     1      28.415  42.603  53.313  1.00  0.00    -0.215 N 
HETATM    7  C   UNL     1      27.511  41.383  51.704  1.00  0.00     0.099 A 
HETATM    8  N   UNL     1      29.173  41.464  53.227  1.00  0.00    -0.177 NA
HETATM    9  C   UNL     1      28.639  40.761  52.228  1.00  0.00     0.160 A 
HETATM   10  C   UNL     1      26.605  41.065  50.644  1.00  0.00     0.262 A 
HETATM   11  N   UNL     1      25.627  42.026  50.481  1.00  0.00    -0.311 N 
HETATM   12  O   UNL     1      26.670  40.064  49.946  1.00  0.00    -0.267 OA
HETATM   13  H   UNL     1      24.984  41.847  49.722  1.00  0.00     0.170 HD
BRANCH   6  14
HETATM   14  C   UNL     1      28.808  43.646  54.206  1.00  0.00     0.060 A 
HETATM   15  C   UNL     1      29.988  43.491  54.955  1.00  0.00     0.031 A 
HETATM   16  C   UNL     1      30.424  44.503  55.813  1.00  0.00     0.002 A 
HETATM   17  C   UNL     1      29.689  45.679  55.932  1.00  0.00     0.000 A 
HETATM   18  C   UNL     1      28.520  45.845  55.193  1.00  0.00     0.002 A 
HETATM   19  C   UNL     1      28.078  44.835  54.331  1.00  0.00     0.031 A 
ENDBRANCH   6  14
ENDBRANCH   2   3
ENDBRANCH   1   2
BRANCH   1  20
HETATM   20  C   UNL     1      22.630  43.724  49.059  1.00  0.00     0.218 C 
HETATM   21  N   UNL     1      21.707  44.748  49.036  1.00  0.00    -0.356 N 
HETATM   22  H   UNL     1      21.093  44.774  49.851  1.00  0.00     0.162 HD
HETATM   23  O   UNL     1      23.140  43.270  48.038  1.00  0.00    -0.274 OA
BRANCH  21  24
HETATM   24  C   UNL     1      21.073  45.286  47.819  1.00  0.00     0.087 C 
HETATM   25  C   UNL     1      21.861  46.329  47.019  1.00  0.00     0.053 C 
HETATM   26  C   UNL     1      22.150  47.570  47.844  1.00  0.00     0.237 C 
HETATM   27  N   UNL     1      20.850  48.185  48.331  1.00  0.00    -0.067 N 
HETATM   28  H   UNL     1      20.366  48.548  47.500  1.00  0.00     0.280 HD
HETATM   29  C   UNL     1      19.941  47.193  49.023  1.00  0.00     0.237 C 
HETATM   30  C   UNL     1      19.735  45.930  48.192  1.00  0.00     0.053 C 
BRANCH  27  31
HETATM   31  C   UNL     1      21.089  49.378  49.246  1.00  0.00     0.273 C 
BRANCH  31  32
HETATM   32  C   UNL     1      19.974  50.387  49.284  1.00  0.00    -0.033 A 
HETATM   33  C   UNL     1      18.843  50.183  50.088  1.00  0.00     0.010 A 
HETATM   34  C   UNL     1      17.813  51.130  50.110  1.00  0.00     0.024 A 
HETATM   35  C   UNL     1      17.903  52.279  49.326  1.00  0.00     0.034 A 
HETATM   36 CL   UNL     1      16.634  53.437  49.357  1.00  0.00    -0.084 Cl
HETATM   37  C   UNL     1      19.017  52.492  48.520  1.00  0.00     0.024 A 
HETATM   38  C   UNL     1      20.050  51.552  48.500  1.00  0.00     0.010 A 
ENDBRANCH  31  32
ENDBRANCH  27  31
ENDBRANCH  21  24
ENDBRANCH   1  20
TORSDOF 7
ENDMDL
MODEL 6
REMARK VINA RESULT:      -8.9      2.198      4.054
REMARK  7 active torsions:
REMARK  status: ('A' for Active; 'I' for Inactive)
REMARK    1  A    between atoms: C_4  and  N_5 
REMARK    2  A    between atoms: C_11  and  C_12 
REMARK    3  A    between atoms: C_12  and  C_13 
REMARK    4  A    between atoms: C_13  and  C_14 
REMARK       I    between atoms: C_14  and  N_15 
REMARK    5  A    between atoms: N_15  and  C_16 
REMARK    6  A    between atoms: N_19  and  C_21 
REMARK    7  A    between atoms: C_21  and  C_22 
ROOT
HETATM    1  C   UNL     1      22.812  44.882  47.502  1.00  0.00     0.110 C 
ENDROOT
BRANCH   1   2
HETATM    2  C   UNL     1      21.509  45.470  48.011  1.00  0.00     0.088 C 
BRANCH   2   3
HETATM    3  C   UNL     1      21.678  46.897  48.463  1.00  0.00     0.109 A 
HETATM    4  N   UNL     1      20.667  47.714  48.367  1.00  0.00    -0.215 NA
HETATM    5  C   UNL     1      20.950  48.981  48.790  1.00  0.00     0.170 A 
HETATM    6  N   UNL     1      20.147  50.122  48.714  1.00  0.00    -0.215 N 
HETATM    7  C   UNL     1      22.137  49.397  49.354  1.00  0.00     0.099 A 
HETATM    8  N   UNL     1      20.757  51.181  49.334  1.00  0.00    -0.177 NA
HETATM    9  C   UNL     1      21.968  50.739  49.676  1.00  0.00     0.160 A 
HETATM   10  C   UNL     1      23.220  48.472  49.489  1.00  0.00     0.262 A 
HETATM   11  N   UNL     1      22.911  47.223  48.989  1.00  0.00    -0.311 N 
HETATM   12  O   UNL     1      24.305  48.735  49.987  1.00  0.00    -0.267 OA
HETATM   13  H   UNL     1      23.664  46.550  49.044  1.00  0.00     0.170 HD
BRANCH   6  14
HETATM   14  C   UNL     1      18.871  50.306  48.098  1.00  0.00     0.060 A 
HETATM   15  C   UNL     1      18.818  50.765  46.771  1.00  0.00     0.031 A 
HETATM   16  C   UNL     1      17.591  50.924  46.122  1.00  0.00     0.002 A 
HETATM   17  C   UNL     1      16.407  50.627  46.790  1.00  0.00     0.000 A 
HETATM   18  C   UNL     1      16.448  50.169  48.105  1.00  0.00     0.002 A 
HETATM   19  C   UNL     1      17.674  50.006  48.760  1.00  0.00     0.031 A 
ENDBRANCH   6  14
ENDBRANCH   2   3
ENDBRANCH   1   2
BRANCH   1  20
HETATM   20  C   UNL     1      23.317  43.592  48.133  1.00  0.00     0.218 C 
HETATM   21  N   UNL     1      24.664  43.505  48.414  1.00  0.00    -0.356 N 
HETATM   22  H   UNL     1      25.260  44.008  47.757  1.00  0.00     0.162 HD
HETATM   23  O   UNL     1      22.506  42.752  48.513  1.00  0.00    -0.274 OA
BRANCH  21  24
HETATM   24  C   UNL     1      25.327  42.334  49.016  1.00  0.00     0.087 C 
HETATM   25  C   UNL     1      24.845  41.889  50.400  1.00  0.00     0.053 C 
HETATM   26  C   UNL     1      25.039  42.976  51.441  1.00  0.00     0.237 C 
HETATM   27  N   UNL     1      26.505  43.366  51.519  1.00  0.00    -0.067 N 
HETATM   28  H   UNL     1      27.005  42.558  51.910  1.00  0.00     0.280 HD
HETATM   29  C   UNL     1      27.108  43.698  50.171  1.00  0.00     0.237 C 
HETATM   30  C   UNL     1      26.828  42.613  49.136  1.00  0.00     0.053 C 
BRANCH  27  31
HETATM   31  C   UNL     1      26.738  44.524  52.479  1.00  0.00     0.273 C 
BRANCH  31  32
HETATM   32  C   UNL     1      27.863  44.324  53.458  1.00  0.00    -0.033 A 
HETATM   33  C   UNL     1      28.175  45.307  54.409  1.00  0.00     0.010 A 
HETATM   34  C   UNL     1      29.226  45.108  55.310  1.00  0.00     0.024 A 
HETATM   35  C   UNL     1      29.974  43.932  55.263  1.00  0.00     0.034 A 
HETATM   36 CL   UNL     1      31.264  43.694  56.373  1.00  0.00    -0.084 Cl
HETATM   37  C   UNL     1      29.678  42.951  54.322  1.00  0.00     0.024 A 
HETATM   38  C   UNL     1      28.626  43.144  53.425  1.00  0.00     0.010 A 
ENDBRANCH  31  32
ENDBRANCH  27  31
ENDBRANCH  21  24
ENDBRANCH   1  20
TORSDOF 7
ENDMDL
MODEL 7
REMARK VINA RESULT:      -8.9      2.725      7.986
REMARK  7 active torsions:
REMARK  status: ('A' for Active; 'I' for Inactive)
REMARK    1  A    between atoms: C_4  and  N_5 
REMARK    2  A    between atoms: C_11  and  C_12 
REMARK    3  A    between atoms: C_12  and  C_13 
REMARK    4  A    between atoms: C_13  and  C_14 
REMARK       I    between atoms: C_14  and  N_15 
REMARK    5  A    between atoms: N_15  and  C_16 
REMARK    6  A    between atoms: N_19  and  C_21 
REMARK    7  A    between atoms: C_21  and  C_22 
ROOT
HETATM    1  C   UNL     1      22.740  43.987  49.724  1.00  0.00     0.110 C 
ENDROOT
BRANCH   1   2
HETATM    2  C   UNL     1      23.157  42.528  49.672  1.00  0.00     0.088 C 
BRANCH   2   3
HETATM    3  C   UNL     1      24.540  42.321  50.233  1.00  0.00     0.109 A 
HETATM    4  N   UNL     1      24.991  43.157  51.125  1.00  0.00    -0.215 NA
HETATM    5  C   UNL     1      26.261  42.875  51.541  1.00  0.00     0.170 A 
HETATM    6  N   UNL     1      27.085  43.624  52.385  1.00  0.00    -0.215 N 
HETATM    7  C   UNL     1      27.010  41.783  51.162  1.00  0.00     0.099 A 
HETATM    8  N   UNL     1      28.254  42.953  52.634  1.00  0.00    -0.177 NA
HETATM    9  C   UNL     1      28.209  41.869  51.860  1.00  0.00     0.160 A 
HETATM   10  C   UNL     1      26.477  40.853  50.213  1.00  0.00     0.262 A 
HETATM   11  N   UNL     1      25.220  41.213  49.771  1.00  0.00    -0.311 N 
HETATM   12  O   UNL     1      27.053  39.847  49.823  1.00  0.00    -0.267 OA
HETATM   13  H   UNL     1      24.824  40.591  49.079  1.00  0.00     0.170 HD
BRANCH   6  14
HETATM   14  C   UNL     1      26.876  44.915  52.960  1.00  0.00     0.060 A 
HETATM   15  C   UNL     1      26.247  45.909  52.191  1.00  0.00     0.031 A 
HETATM   16  C   UNL     1      25.995  47.173  52.729  1.00  0.00     0.002 A 
HETATM   17  C   UNL     1      26.367  47.458  54.040  1.00  0.00     0.000 A 
HETATM   18  C   UNL     1      26.989  46.480  54.813  1.00  0.00     0.002 A 
HETATM   19  C   UNL     1      27.243  45.211  54.280  1.00  0.00     0.031 A 
ENDBRANCH   6  14
ENDBRANCH   2   3
ENDBRANCH   1   2
BRANCH   1  20
HETATM   20  C   UNL     1      21.614  44.450  48.811  1.00  0.00     0.218 C 
HETATM   21  N   UNL     1      21.027  45.666  49.091  1.00  0.00    -0.356 N 
HETATM   22  H   UNL     1      20.991  45.892  50.084  1.00  0.00     0.162 HD
HETATM   23  O   UNL     1      21.378  43.821  47.783  1.00  0.00    -0.274 OA
BRANCH  21  24
HETATM   24  C   UNL     1      19.922  46.266  48.321  1.00  0.00     0.087 C 
HETATM   25  C   UNL     1      20.277  46.936  46.989  1.00  0.00     0.053 C 
HETATM   26  C   UNL     1      21.242  48.092  47.181  1.00  0.00     0.237 C 
HETATM   27  N   UNL     1      20.640  49.123  48.119  1.00  0.00    -0.067 N 
HETATM   28  H   UNL     1      19.845  49.545  47.623  1.00  0.00     0.280 HD
HETATM   29  C   UNL     1      20.137  48.529  49.417  1.00  0.00     0.237 C 
HETATM   30  C   UNL     1      19.229  47.326  49.182  1.00  0.00     0.053 C 
BRANCH  27  31
HETATM   31  C   UNL     1      21.610  50.256  48.422  1.00  0.00     0.273 C 
BRANCH  31  32
HETATM   32  C   UNL     1      23.052  49.847  48.545  1.00  0.00    -0.033 A 
HETATM   33  C   UNL     1      24.052  50.493  47.803  1.00  0.00     0.010 A 
HETATM   34  C   UNL     1      25.388  50.099  47.926  1.00  0.00     0.024 A 
HETATM   35  C   UNL     1      25.733  49.055  48.783  1.00  0.00     0.034 A 
HETATM   36 CL   UNL     1      27.376  48.574  48.930  1.00  0.00    -0.084 Cl
HETATM   37  C   UNL     1      24.751  48.401  49.522  1.00  0.00     0.024 A 
HETATM   38  C   UNL     1      23.416  48.797  49.406  1.00  0.00     0.010 A 
ENDBRANCH  31  32
ENDBRANCH  27  31
ENDBRANCH  21  24
ENDBRANCH   1  20
TORSDOF 7
ENDMDL
MODEL 8
REMARK VINA RESULT:      -8.7      2.176      2.970
REMARK  7 active torsions:
REMARK  status: ('A' for Active; 'I' for Inactive)
REMARK    1  A    between atoms: C_4  and  N_5 
REMARK    2  A    between atoms: C_11  and  C_12 
REMARK    3  A    between atoms: C_12  and  C_13 
REMARK    4  A    between atoms: C_13  and  C_14 
REMARK       I    between atoms: C_14  and  N_15 
REMARK    5  A    between atoms: N_15  and  C_16 
REMARK    6  A    between atoms: N_19  and  C_21 
REMARK    7  A    between atoms: C_21  and  C_22 
ROOT
HETATM    1  C   UNL     1      23.060  44.464  46.373  1.00  0.00     0.110 C 
ENDROOT
BRANCH   1   2
HETATM    2  C   UNL     1      21.794  44.757  45.588  1.00  0.00     0.088 C 
BRANCH   2   3
HETATM    3  C   UNL     1      20.770  45.477  46.427  1.00  0.00     0.109 A 
HETATM    4  N   UNL     1      21.042  46.673  46.867  1.00  0.00    -0.215 NA
HETATM    5  C   UNL     1      20.045  47.212  47.629  1.00  0.00     0.170 A 
HETATM    6  N   UNL     1      20.053  48.409  48.350  1.00  0.00    -0.215 N 
HETATM    7  C   UNL     1      18.816  46.638  47.872  1.00  0.00     0.099 A 
HETATM    8  N   UNL     1      18.824  48.640  48.910  1.00  0.00    -0.177 NA
HETATM    9  C   UNL     1      18.106  47.548  48.647  1.00  0.00     0.160 A 
HETATM   10  C   UNL     1      18.522  45.341  47.343  1.00  0.00     0.262 A 
HETATM   11  N   UNL     1      19.581  44.808  46.636  1.00  0.00    -0.311 N 
HETATM   12  O   UNL     1      17.460  44.752  47.488  1.00  0.00    -0.267 OA
HETATM   13  H   UNL     1      19.417  43.880  46.270  1.00  0.00     0.170 HD
BRANCH   6  14
HETATM   14  C   UNL     1      21.115  49.339  48.570  1.00  0.00     0.060 A 
HETATM   15  C   UNL     1      21.064  50.173  49.700  1.00  0.00     0.031 A 
HETATM   16  C   UNL     1      22.099  51.071  49.969  1.00  0.00     0.002 A 
HETATM   17  C   UNL     1      23.195  51.146  49.114  1.00  0.00     0.000 A 
HETATM   18  C   UNL     1      23.257  50.322  47.992  1.00  0.00     0.002 A 
HETATM   19  C   UNL     1      22.224  49.419  47.718  1.00  0.00     0.031 A 
ENDBRANCH   6  14
ENDBRANCH   2   3
ENDBRANCH   1   2
BRANCH   1  20
HETATM   20  C   UNL     1      23.015  43.376  47.436  1.00  0.00     0.218 C 
HETATM   21  N   UNL     1      24.173  43.128  48.142  1.00  0.00    -0.356 N 
HETATM   22  H   UNL     1      25.027  43.267  47.604  1.00  0.00     0.162 HD
HETATM   23  O   UNL     1      21.935  42.876  47.739  1.00  0.00    -0.274 OA
BRANCH  21  24
HETATM   24  C   UNL     1      24.315  42.110  49.199  1.00  0.00     0.087 C 
HETATM   25  C   UNL     1      24.054  42.555  50.642  1.00  0.00     0.053 C 
HETATM   26  C   UNL     1      25.013  43.648  51.076  1.00  0.00     0.237 C 
HETATM   27  N   UNL     1      26.447  43.164  50.949  1.00  0.00    -0.067 N 
HETATM   28  H   UNL     1      26.574  42.430  51.656  1.00  0.00     0.280 HD
HETATM   29  C   UNL     1      26.763  42.582  49.588  1.00  0.00     0.237 C 
HETATM   30  C   UNL     1      25.736  41.540  49.159  1.00  0.00     0.053 C 
BRANCH  27  31
HETATM   31  C   UNL     1      27.452  44.259  51.278  1.00  0.00     0.273 C 
BRANCH  31  32
HETATM   32  C   UNL     1      28.314  43.993  52.482  1.00  0.00    -0.033 A 
HETATM   33  C   UNL     1      28.060  44.627  53.707  1.00  0.00     0.010 A 
HETATM   34  C   UNL     1      28.873  44.370  54.816  1.00  0.00     0.024 A 
HETATM   35  C   UNL     1      29.947  43.487  54.706  1.00  0.00     0.034 A 
HETATM   36 CL   UNL     1      30.943  43.177  56.072  1.00  0.00    -0.084 Cl
HETATM   37  C   UNL     1      30.214  42.855  53.496  1.00  0.00     0.024 A 
HETATM   38  C   UNL     1      29.400  43.104  52.388  1.00  0.00     0.010 A 
ENDBRANCH  31  32
ENDBRANCH  27  31
ENDBRANCH  21  24
ENDBRANCH   1  20
TORSDOF 7
ENDMDL
MODEL 9
REMARK VINA RESULT:      -8.7     18.417     20.928
REMARK  7 active torsions:
REMARK  status: ('A' for Active; 'I' for Inactive)
REMARK    1  A    between atoms: C_4  and  N_5 
REMARK    2  A    between atoms: C_11  and  C_12 
REMARK    3  A    between atoms: C_12  and  C_13 
REMARK    4  A    between atoms: C_13  and  C_14 
REMARK       I    between atoms: C_14  and  N_15 
REMARK    5  A    between atoms: N_15  and  C_16 
REMARK    6  A    between atoms: N_19  and  C_21 
REMARK    7  A    between atoms: C_21  and  C_22 
ROOT
HETATM    1  C   UNL     1      34.051  43.063  66.276  1.00  0.00     0.110 C 
ENDROOT
BRANCH   1   2
HETATM    2  C   UNL     1      34.941  42.011  65.639  1.00  0.00     0.088 C 
BRANCH   2   3
HETATM    3  C   UNL     1      36.083  42.631  64.877  1.00  0.00     0.109 A 
HETATM    4  N   UNL     1      37.119  41.896  64.583  1.00  0.00    -0.215 NA
HETATM    5  C   UNL     1      38.094  42.575  63.910  1.00  0.00     0.170 A 
HETATM    6  N   UNL     1      39.370  42.135  63.552  1.00  0.00    -0.215 N 
HETATM    7  C   UNL     1      38.015  43.881  63.477  1.00  0.00     0.099 A 
HETATM    8  N   UNL     1      40.013  43.084  62.801  1.00  0.00    -0.177 NA
HETATM    9  C   UNL     1      39.201  44.141  62.801  1.00  0.00     0.160 A 
HETATM   10  C   UNL     1      36.849  44.657  63.773  1.00  0.00     0.262 A 
HETATM   11  N   UNL     1      35.920  43.951  64.511  1.00  0.00    -0.311 N 
HETATM   12  O   UNL     1      36.675  45.815  63.424  1.00  0.00    -0.267 OA
HETATM   13  H   UNL     1      35.095  44.478  64.761  1.00  0.00     0.170 HD
BRANCH   6  14
HETATM   14  C   UNL     1      40.040  40.913  63.867  1.00  0.00     0.060 A 
HETATM   15  C   UNL     1      41.005  40.911  64.889  1.00  0.00     0.031 A 
HETATM   16  C   UNL     1      41.657  39.729  65.250  1.00  0.00     0.002 A 
HETATM   17  C   UNL     1      41.353  38.539  64.596  1.00  0.00     0.000 A 
HETATM   18  C   UNL     1      40.396  38.528  63.583  1.00  0.00     0.002 A 
HETATM   19  C   UNL     1      39.739  39.708  63.218  1.00  0.00     0.031 A 
ENDBRANCH   6  14
ENDBRANCH   2   3
ENDBRANCH   1   2
BRANCH   1  20
HETATM   20  C   UNL     1      34.581  43.821  67.484  1.00  0.00     0.218 C 
HETATM   21  N   UNL     1      35.057  45.098  67.276  1.00  0.00    -0.356 N 
HETATM   22  H   UNL     1      35.498  45.236  66.368  1.00  0.00     0.162 HD
HETATM   23  O   UNL     1      34.421  43.349  68.606  1.00  0.00    -0.274 OA
BRANCH  21  24
HETATM   24  C   UNL     1      35.612  45.973  68.326  1.00  0.00     0.087 C 
HETATM   25  C   UNL     1      35.492  47.486  68.114  1.00  0.00     0.053 C 
HETATM   26  C   UNL     1      36.217  47.938  66.860  1.00  0.00     0.237 C 
HETATM   27  N   UNL     1      37.684  47.554  66.940  1.00  0.00    -0.067 N 
HETATM   28  H   UNL     1      38.099  48.128  67.685  1.00  0.00     0.280 HD
HETATM   29  C   UNL     1      37.904  46.095  67.277  1.00  0.00     0.237 C 
HETATM   30  C   UNL     1      37.102  45.664  68.501  1.00  0.00     0.053 C 
BRANCH  27  31
HETATM   31  C   UNL     1      38.436  47.898  65.661  1.00  0.00     0.273 C 
BRANCH  31  32
HETATM   32  C   UNL     1      39.921  47.661  65.711  1.00  0.00    -0.033 A 
HETATM   33  C   UNL     1      40.568  46.925  64.707  1.00  0.00     0.010 A 
HETATM   34  C   UNL     1      41.949  46.711  64.769  1.00  0.00     0.024 A 
HETATM   35  C   UNL     1      42.689  47.223  65.833  1.00  0.00     0.034 A 
HETATM   36 CL   UNL     1      44.385  46.956  65.904  1.00  0.00    -0.084 Cl
HETATM   37  C   UNL     1      42.059  47.951  66.838  1.00  0.00     0.024 A 
HETATM   38  C   UNL     1      40.682  48.172  66.777  1.00  0.00     0.010 A 
ENDBRANCH  31  32
ENDBRANCH  27  31
ENDBRANCH  21  24
ENDBRANCH   1  20
TORSDOF 7
ENDMDL
MODEL 10
REMARK VINA RESULT:      -8.7      2.884      8.727
REMARK  7 active torsions:
REMARK  status: ('A' for Active; 'I' for Inactive)
REMARK    1  A    between atoms: C_4  and  N_5 
REMARK    2  A    between atoms: C_11  and  C_12 
REMARK    3  A    between atoms: C_12  and  C_13 
REMARK    4  A    between atoms: C_13  and  C_14 
REMARK       I    between atoms: C_14  and  N_15 
REMARK    5  A    between atoms: N_15  and  C_16 
REMARK    6  A    between atoms: N_19  and  C_21 
REMARK    7  A    between atoms: C_21  and  C_22 
ROOT
HETATM    1  C   UNL     1      24.225  43.478  49.082  1.00  0.00     0.110 C 
ENDROOT
BRANCH   1   2
HETATM    2  C   UNL     1      24.453  43.672  50.570  1.00  0.00     0.088 C 
BRANCH   2   3
HETATM    3  C   UNL     1      25.623  42.863  51.066  1.00  0.00     0.109 A 
HETATM    4  N   UNL     1      26.303  43.298  52.090  1.00  0.00    -0.215 NA
HETATM    5  C   UNL     1      27.348  42.489  52.432  1.00  0.00     0.170 A 
HETATM    6  N   UNL     1      28.342  42.712  53.388  1.00  0.00    -0.215 N 
HETATM    7  C   UNL     1      27.655  41.278  51.850  1.00  0.00     0.099 A 
HETATM    8  N   UNL     1      29.159  41.616  53.496  1.00  0.00    -0.177 NA
HETATM    9  C   UNL     1      28.757  40.782  52.537  1.00  0.00     0.160 A 
HETATM   10  C   UNL     1      26.869  40.798  50.755  1.00  0.00     0.262 A 
HETATM   11  N   UNL     1      25.865  41.678  50.402  1.00  0.00    -0.311 N 
HETATM   12  O   UNL     1      27.047  39.734  50.181  1.00  0.00    -0.267 OA
HETATM   13  H   UNL     1      25.306  41.383  49.613  1.00  0.00     0.170 HD
BRANCH   6  14
HETATM   14  C   UNL     1      28.599  43.865  54.192  1.00  0.00     0.060 A 
HETATM   15  C   UNL     1      29.727  43.871  55.031  1.00  0.00     0.031 A 
HETATM   16  C   UNL     1      30.030  44.992  55.806  1.00  0.00     0.002 A 
HETATM   17  C   UNL     1      29.214  46.118  55.751  1.00  0.00     0.000 A 
HETATM   18  C   UNL     1      28.096  46.125  54.920  1.00  0.00     0.002 A 
HETATM   19  C   UNL     1      27.787  45.005  54.141  1.00  0.00     0.031 A 
ENDBRANCH   6  14
ENDBRANCH   2   3
ENDBRANCH   1   2
BRANCH   1  20
HETATM   20  C   UNL     1      22.792  43.419  48.572  1.00  0.00     0.218 C 
HETATM   21  N   UNL     1      22.292  44.542  47.948  1.00  0.00    -0.356 N 
HETATM   22  H   UNL     1      22.656  45.420  48.317  1.00  0.00     0.162 HD
HETATM   23  O   UNL     1      22.194  42.346  48.584  1.00  0.00    -0.274 OA
BRANCH  21  24
HETATM   24  C   UNL     1      20.928  44.666  47.401  1.00  0.00     0.087 C 
HETATM   25  C   UNL     1      20.726  45.639  46.235  1.00  0.00     0.053 C 
HETATM   26  C   UNL     1      21.080  47.063  46.622  1.00  0.00     0.237 C 
HETATM   27  N   UNL     1      20.235  47.508  47.802  1.00  0.00    -0.067 N 
HETATM   28  H   UNL     1      19.268  47.579  47.462  1.00  0.00     0.280 HD
HETATM   29  C   UNL     1      20.268  46.536  48.962  1.00  0.00     0.237 C 
HETATM   30  C   UNL     1      19.977  45.106  48.518  1.00  0.00     0.053 C 
BRANCH  27  31
HETATM   31  C   UNL     1      20.622  48.896  48.292  1.00  0.00     0.273 C 
BRANCH  31  32
HETATM   32  C   UNL     1      22.102  49.160  48.359  1.00  0.00    -0.033 A 
HETATM   33  C   UNL     1      22.946  48.345  49.128  1.00  0.00     0.010 A 
HETATM   34  C   UNL     1      24.319  48.604  49.182  1.00  0.00     0.024 A 
HETATM   35  C   UNL     1      24.856  49.681  48.477  1.00  0.00     0.034 A 
HETATM   36 CL   UNL     1      26.544  49.996  48.548  1.00  0.00    -0.084 Cl
HETATM   37  C   UNL     1      24.029  50.501  47.714  1.00  0.00     0.024 A 
HETATM   38  C   UNL     1      22.658  50.241  47.653  1.00  0.00     0.010 A 
ENDBRANCH  31  32
ENDBRANCH  27  31
ENDBRANCH  21  24
ENDBRANCH   1  20
TORSDOF 7
ENDMDL
