MODEL 1
REMARK VINA RESULT:      -8.3      0.000      0.000
REMARK  5 active torsions:
REMARK  status: ('A' for Active; 'I' for Inactive)
REMARK    1  A    between atoms: C_2  and  O_3 
REMARK    2  A    between atoms: O_3  and  C_4 
REMARK    3  A    between atoms: C_7  and  C_8 
REMARK    4  A    between atoms: C_12  and  C_13 
REMARK       I    between atoms: C_13  and  N_14 
REMARK    5  A    between atoms: N_14  and  C_15 
ROOT
HETATM    1  C   UNL     1      27.721  42.974  52.457  1.00  0.00     0.068 A 
HETATM    2  N   UNL     1      28.207  41.939  51.725  1.00  0.00    -0.248 NA
HETATM    3  C   UNL     1      27.462  41.395  50.746  1.00  0.00     0.068 A 
HETATM    4  C   UNL     1      26.174  41.851  50.419  1.00  0.00     0.008 A 
HETATM    5  C   UNL     1      25.714  42.964  51.154  1.00  0.00     0.047 A 
HETATM    6  C   UNL     1      26.477  43.517  52.184  1.00  0.00     0.050 A 
HETATM    7  C   UNL     1      27.989  40.321  50.041  1.00  0.00     0.032 A 
HETATM    8  C   UNL     1      27.273  39.675  49.030  1.00  0.00     0.002 A 
HETATM    9  C   UNL     1      25.993  40.102  48.715  1.00  0.00     0.001 A 
HETATM   10  C   UNL     1      25.442  41.180  49.406  1.00  0.00     0.015 A 
ENDROOT
BRANCH   5  11
HETATM   11  C   UNL     1      24.369  43.538  50.960  1.00  0.00     0.271 C 
HETATM   12  N   UNL     1      24.186  44.826  50.537  1.00  0.00    -0.150 N 
HETATM   13  H   UNL     1      23.233  45.108  50.368  1.00  0.00     0.188 HD
HETATM   14  O   UNL     1      23.399  42.815  51.193  1.00  0.00    -0.267 OA
BRANCH  12  15
HETATM   15  C   UNL     1      25.101  45.820  50.376  1.00  0.00     0.747 A 
HETATM   16  N   UNL     1      25.967  45.803  49.359  1.00  0.00     0.020 NA
HETATM   17  N   UNL     1      26.673  46.923  49.580  1.00  0.00    -0.255 N 
HETATM   18  H   UNL     1      27.431  47.169  48.953  1.00  0.00     0.190 HD
HETATM   19  C   UNL     1      26.219  47.574  50.680  1.00  0.00     0.246 A 
HETATM   20  N   UNL     1      25.218  46.903  51.197  1.00  0.00    -0.055 NA
ENDBRANCH  12  15
ENDBRANCH   5  11
BRANCH   1  21
HETATM   21  C   UNL     1      28.603  43.453  53.549  1.00  0.00    -0.007 A 
HETATM   22  C   UNL     1      29.779  42.756  53.882  1.00  0.00     0.016 A 
HETATM   23  C   UNL     1      30.623  43.188  54.912  1.00  0.00     0.037 A 
HETATM   24  C   UNL     1      30.324  44.337  55.640  1.00  0.00     0.068 A 
HETATM   25  C   UNL     1      29.156  45.036  55.346  1.00  0.00     0.037 A 
HETATM   26  C   UNL     1      28.309  44.596  54.316  1.00  0.00     0.016 A 
BRANCH  24  27
HETATM   27  O   UNL     1      31.231  44.659  56.610  1.00  0.00    -0.352 OA
BRANCH  27  28
HETATM   28  C   UNL     1      30.747  44.713  57.951  1.00  0.00     0.171 C 
HETATM   29  C   UNL     1      30.608  46.174  58.340  1.00  0.00     0.034 C 
ENDBRANCH  27  28
ENDBRANCH  24  27
ENDBRANCH   1  21
TORSDOF 5
ENDMDL
MODEL 2
REMARK VINA RESULT:      -8.3      2.717      5.182
REMARK  5 active torsions:
REMARK  status: ('A' for Active; 'I' for Inactive)
REMARK    1  A    between atoms: C_2  and  O_3 
REMARK    2  A    between atoms: O_3  and  C_4 
REMARK    3  A    between atoms: C_7  and  C_8 
REMARK    4  A    between atoms: C_12  and  C_13 
REMARK       I    between atoms: C_13  and  N_14 
REMARK    5  A    between atoms: N_14  and  C_15 
ROOT
HETATM    1  C   UNL     1      27.420  42.283  51.163  1.00  0.00     0.068 A 
HETATM    2  N   UNL     1      26.076  42.475  51.138  1.00  0.00    -0.248 NA
HETATM    3  C   UNL     1      25.357  42.076  50.074  1.00  0.00     0.068 A 
HETATM    4  C   UNL     1      25.927  41.447  48.955  1.00  0.00     0.008 A 
HETATM    5  C   UNL     1      27.315  41.207  49.029  1.00  0.00     0.047 A 
HETATM    6  C   UNL     1      28.067  41.638  50.124  1.00  0.00     0.050 A 
HETATM    7  C   UNL     1      23.989  42.317  50.080  1.00  0.00     0.032 A 
HETATM    8  C   UNL     1      23.170  41.966  49.004  1.00  0.00     0.002 A 
HETATM    9  C   UNL     1      23.726  41.366  47.886  1.00  0.00     0.001 A 
HETATM   10  C   UNL     1      25.096  41.111  47.856  1.00  0.00     0.015 A 
ENDROOT
BRANCH   5  11
HETATM   11  C   UNL     1      28.071  40.592  47.922  1.00  0.00     0.271 C 
HETATM   12  N   UNL     1      28.256  39.240  47.835  1.00  0.00    -0.150 N 
HETATM   13  H   UNL     1      28.727  38.906  47.007  1.00  0.00     0.188 HD
HETATM   14  O   UNL     1      28.540  41.341  47.063  1.00  0.00    -0.267 OA
BRANCH  12  15
HETATM   15  C   UNL     1      27.961  38.267  48.740  1.00  0.00     0.747 A 
HETATM   16  N   UNL     1      28.871  37.849  49.624  1.00  0.00     0.020 NA
HETATM   17  N   UNL     1      28.192  36.904  50.292  1.00  0.00    -0.255 N 
HETATM   18  H   UNL     1      28.649  36.391  51.038  1.00  0.00     0.190 HD
HETATM   19  C   UNL     1      26.924  36.793  49.821  1.00  0.00     0.246 A 
HETATM   20  N   UNL     1      26.749  37.651  48.845  1.00  0.00    -0.055 NA
ENDBRANCH  12  15
ENDBRANCH   5  11
BRANCH   1  21
HETATM   21  C   UNL     1      28.118  42.817  52.358  1.00  0.00    -0.007 A 
HETATM   22  C   UNL     1      27.442  43.634  53.282  1.00  0.00     0.016 A 
HETATM   23  C   UNL     1      28.083  44.152  54.414  1.00  0.00     0.037 A 
HETATM   24  C   UNL     1      29.423  43.865  54.664  1.00  0.00     0.068 A 
HETATM   25  C   UNL     1      30.123  43.075  53.756  1.00  0.00     0.037 A 
HETATM   26  C   UNL     1      29.478  42.562  52.619  1.00  0.00     0.016 A 
BRANCH  24  27
HETATM   27  O   UNL     1      29.929  44.421  55.805  1.00  0.00    -0.352 OA
BRANCH  27  28
HETATM   28  C   UNL     1      31.315  44.207  56.065  1.00  0.00     0.171 C 
HETATM   29  C   UNL     1      31.430  43.189  57.185  1.00  0.00     0.034 C 
ENDBRANCH  27  28
ENDBRANCH  24  27
ENDBRANCH   1  21
TORSDOF 5
ENDMDL
MODEL 3
REMARK VINA RESULT:      -8.0     13.215     14.336
REMARK  5 active torsions:
REMARK  status: ('A' for Active; 'I' for Inactive)
REMARK    1  A    between atoms: C_2  and  O_3 
REMARK    2  A    between atoms: O_3  and  C_4 
REMARK    3  A    between atoms: C_7  and  C_8 
REMARK    4  A    between atoms: C_12  and  C_13 
REMARK       I    between atoms: C_13  and  N_14 
REMARK    5  A    between atoms: N_14  and  C_15 
ROOT
HETATM    1  C   UNL     1      32.496  50.416  40.870  1.00  0.00     0.068 A 
HETATM    2  N   UNL     1      32.233  49.090  40.997  1.00  0.00    -0.248 NA
HETATM    3  C   UNL     1      31.322  48.503  40.201  1.00  0.00     0.068 A 
HETATM    4  C   UNL     1      30.608  49.196  39.210  1.00  0.00     0.008 A 
HETATM    5  C   UNL     1      30.941  50.558  39.058  1.00  0.00     0.047 A 
HETATM    6  C   UNL     1      31.871  51.175  39.896  1.00  0.00     0.050 A 
HETATM    7  C   UNL     1      31.066  47.150  40.386  1.00  0.00     0.032 A 
HETATM    8  C   UNL     1      30.114  46.466  39.626  1.00  0.00     0.002 A 
HETATM    9  C   UNL     1      29.388  47.146  38.662  1.00  0.00     0.001 A 
HETATM   10  C   UNL     1      29.628  48.503  38.455  1.00  0.00     0.015 A 
ENDROOT
BRANCH   5  11
HETATM   11  C   UNL     1      30.255  51.436  38.089  1.00  0.00     0.271 C 
HETATM   12  N   UNL     1      29.158  52.175  38.433  1.00  0.00    -0.150 N 
HETATM   13  H   UNL     1      28.798  52.796  37.725  1.00  0.00     0.188 HD
HETATM   14  O   UNL     1      30.705  51.485  36.943  1.00  0.00    -0.267 OA
BRANCH  12  15
HETATM   15  C   UNL     1      28.422  52.148  39.579  1.00  0.00     0.747 A 
HETATM   16  N   UNL     1      27.456  51.243  39.756  1.00  0.00     0.020 NA
HETATM   17  N   UNL     1      26.991  51.572  40.971  1.00  0.00    -0.255 N 
HETATM   18  H   UNL     1      26.222  51.047  41.373  1.00  0.00     0.190 HD
HETATM   19  C   UNL     1      27.677  52.623  41.485  1.00  0.00     0.246 A 
HETATM   20  N   UNL     1      28.595  53.000  40.628  1.00  0.00    -0.055 NA
ENDBRANCH  12  15
ENDBRANCH   5  11
BRANCH   1  21
HETATM   21  C   UNL     1      33.473  50.969  41.840  1.00  0.00    -0.007 A 
HETATM   22  C   UNL     1      34.843  51.030  41.526  1.00  0.00     0.016 A 
HETATM   23  C   UNL     1      35.781  51.545  42.428  1.00  0.00     0.037 A 
HETATM   24  C   UNL     1      35.381  52.021  43.675  1.00  0.00     0.068 A 
HETATM   25  C   UNL     1      34.035  51.954  44.021  1.00  0.00     0.037 A 
HETATM   26  C   UNL     1      33.097  51.432  43.115  1.00  0.00     0.016 A 
BRANCH  24  27
HETATM   27  O   UNL     1      36.390  52.505  44.459  1.00  0.00    -0.352 OA
BRANCH  27  28
HETATM   28  C   UNL     1      37.140  53.602  43.940  1.00  0.00     0.171 C 
HETATM   29  C   UNL     1      37.640  54.424  45.114  1.00  0.00     0.034 C 
ENDBRANCH  27  28
ENDBRANCH  24  27
ENDBRANCH   1  21
TORSDOF 5
ENDMDL
MODEL 4
REMARK VINA RESULT:      -7.8      4.089      6.299
REMARK  5 active torsions:
REMARK  status: ('A' for Active; 'I' for Inactive)
REMARK    1  A    between atoms: C_2  and  O_3 
REMARK    2  A    between atoms: O_3  and  C_4 
REMARK    3  A    between atoms: C_7  and  C_8 
REMARK    4  A    between atoms: C_12  and  C_13 
REMARK       I    between atoms: C_13  and  N_14 
REMARK    5  A    between atoms: N_14  and  C_15 
ROOT
HETATM    1  C   UNL     1      24.726  46.926  50.325  1.00  0.00     0.068 A 
HETATM    2  N   UNL     1      23.733  46.089  49.929  1.00  0.00    -0.248 NA
HETATM    3  C   UNL     1      22.879  46.465  48.961  1.00  0.00     0.068 A 
HETATM    4  C   UNL     1      22.957  47.707  48.308  1.00  0.00     0.008 A 
HETATM    5  C   UNL     1      24.031  48.534  48.697  1.00  0.00     0.047 A 
HETATM    6  C   UNL     1      24.907  48.155  49.715  1.00  0.00     0.050 A 
HETATM    7  C   UNL     1      21.862  45.588  48.607  1.00  0.00     0.032 A 
HETATM    8  C   UNL     1      20.911  45.908  47.635  1.00  0.00     0.002 A 
HETATM    9  C   UNL     1      20.965  47.140  47.002  1.00  0.00     0.001 A 
HETATM   10  C   UNL     1      21.978  48.037  47.337  1.00  0.00     0.015 A 
ENDROOT
BRANCH   5  11
HETATM   11  C   UNL     1      24.230  49.885  48.137  1.00  0.00     0.271 C 
HETATM   12  N   UNL     1      23.463  50.949  48.523  1.00  0.00    -0.150 N 
HETATM   13  H   UNL     1      23.717  51.845  48.137  1.00  0.00     0.188 HD
HETATM   14  O   UNL     1      25.121  50.031  47.298  1.00  0.00    -0.267 OA
BRANCH  12  15
HETATM   15  C   UNL     1      22.349  50.972  49.304  1.00  0.00     0.747 A 
HETATM   16  N   UNL     1      22.440  50.945  50.636  1.00  0.00     0.020 NA
HETATM   17  N   UNL     1      21.149  50.966  51.001  1.00  0.00    -0.255 N 
HETATM   18  H   UNL     1      20.905  50.940  51.985  1.00  0.00     0.190 HD
HETATM   19  C   UNL     1      20.338  51.020  49.914  1.00  0.00     0.246 A 
HETATM   20  N   UNL     1      21.073  51.035  48.828  1.00  0.00    -0.055 NA
ENDBRANCH  12  15
ENDBRANCH   5  11
BRANCH   1  21
HETATM   21  C   UNL     1      25.569  46.432  51.441  1.00  0.00    -0.007 A 
HETATM   22  C   UNL     1      26.241  45.200  51.345  1.00  0.00     0.016 A 
HETATM   23  C   UNL     1      27.039  44.713  52.387  1.00  0.00     0.037 A 
HETATM   24  C   UNL     1      27.196  45.445  53.562  1.00  0.00     0.068 A 
HETATM   25  C   UNL     1      26.527  46.659  53.693  1.00  0.00     0.037 A 
HETATM   26  C   UNL     1      25.723  47.141  52.647  1.00  0.00     0.016 A 
BRANCH  24  27
HETATM   27  O   UNL     1      28.006  44.868  54.498  1.00  0.00    -0.352 OA
BRANCH  27  28
HETATM   28  C   UNL     1      28.336  43.494  54.306  1.00  0.00     0.171 C 
HETATM   29  C   UNL     1      29.819  43.325  54.582  1.00  0.00     0.034 C 
ENDBRANCH  27  28
ENDBRANCH  24  27
ENDBRANCH   1  21
TORSDOF 5
ENDMDL
MODEL 5
REMARK VINA RESULT:      -7.8      2.140      6.546
REMARK  5 active torsions:
REMARK  status: ('A' for Active; 'I' for Inactive)
REMARK    1  A    between atoms: C_2  and  O_3 
REMARK    2  A    between atoms: O_3  and  C_4 
REMARK    3  A    between atoms: C_7  and  C_8 
REMARK    4  A    between atoms: C_12  and  C_13 
REMARK       I    between atoms: C_13  and  N_14 
REMARK    5  A    between atoms: N_14  and  C_15 
ROOT
HETATM    1  C   UNL     1      27.690  42.257  51.554  1.00  0.00     0.068 A 
HETATM    2  N   UNL     1      28.833  42.376  52.276  1.00  0.00    -0.248 NA
HETATM    3  C   UNL     1      28.875  43.190  53.345  1.00  0.00     0.068 A 
HETATM    4  C   UNL     1      27.772  43.944  53.779  1.00  0.00     0.008 A 
HETATM    5  C   UNL     1      26.580  43.759  53.048  1.00  0.00     0.047 A 
HETATM    6  C   UNL     1      26.539  42.930  51.926  1.00  0.00     0.050 A 
HETATM    7  C   UNL     1      30.074  43.302  54.037  1.00  0.00     0.032 A 
HETATM    8  C   UNL     1      30.218  44.148  55.140  1.00  0.00     0.002 A 
HETATM    9  C   UNL     1      29.142  44.913  55.562  1.00  0.00     0.001 A 
HETATM   10  C   UNL     1      27.927  44.818  54.885  1.00  0.00     0.015 A 
ENDROOT
BRANCH   5  11
HETATM   11  C   UNL     1      25.343  44.506  53.351  1.00  0.00     0.271 C 
HETATM   12  N   UNL     1      24.942  45.575  52.599  1.00  0.00    -0.150 N 
HETATM   13  H   UNL     1      24.050  45.980  52.840  1.00  0.00     0.188 HD
HETATM   14  O   UNL     1      24.672  44.135  54.315  1.00  0.00    -0.267 OA
BRANCH  12  15
HETATM   15  C   UNL     1      25.604  46.232  51.607  1.00  0.00     0.747 A 
HETATM   16  N   UNL     1      26.109  47.452  51.806  1.00  0.00     0.020 NA
HETATM   17  N   UNL     1      26.646  47.726  50.607  1.00  0.00    -0.255 N 
HETATM   18  H   UNL     1      27.103  48.618  50.455  1.00  0.00     0.190 HD
HETATM   19  C   UNL     1      26.471  46.690  49.749  1.00  0.00     0.246 A 
HETATM   20  N   UNL     1      25.823  45.728  50.360  1.00  0.00    -0.055 NA
ENDBRANCH  12  15
ENDBRANCH   5  11
BRANCH   1  21
HETATM   21  C   UNL     1      27.776  41.379  50.361  1.00  0.00    -0.007 A 
HETATM   22  C   UNL     1      27.241  41.787  49.126  1.00  0.00     0.016 A 
HETATM   23  C   UNL     1      27.308  40.972  47.990  1.00  0.00     0.037 A 
HETATM   24  C   UNL     1      27.919  39.722  48.048  1.00  0.00     0.068 A 
HETATM   25  C   UNL     1      28.440  39.283  49.262  1.00  0.00     0.037 A 
HETATM   26  C   UNL     1      28.365  40.101  50.401  1.00  0.00     0.016 A 
BRANCH  24  27
HETATM   27  O   UNL     1      27.929  39.028  46.871  1.00  0.00    -0.352 OA
BRANCH  27  28
HETATM   28  C   UNL     1      27.766  37.614  46.955  1.00  0.00     0.171 C 
HETATM   29  C   UNL     1      28.926  36.965  46.222  1.00  0.00     0.034 C 
ENDBRANCH  27  28
ENDBRANCH  24  27
ENDBRANCH   1  21
TORSDOF 5
ENDMDL
MODEL 6
REMARK VINA RESULT:      -7.7      8.023     11.608
REMARK  5 active torsions:
REMARK  status: ('A' for Active; 'I' for Inactive)
REMARK    1  A    between atoms: C_2  and  O_3 
REMARK    2  A    between atoms: O_3  and  C_4 
REMARK    3  A    between atoms: C_7  and  C_8 
REMARK    4  A    between atoms: C_12  and  C_13 
REMARK       I    between atoms: C_13  and  N_14 
REMARK    5  A    between atoms: N_14  and  C_15 
ROOT
HETATM    1  C   UNL     1      20.165  50.196  48.198  1.00  0.00     0.068 A 
HETATM    2  N   UNL     1      19.632  51.068  49.092  1.00  0.00    -0.248 NA
HETATM    3  C   UNL     1      18.346  51.447  48.981  1.00  0.00     0.068 A 
HETATM    4  C   UNL     1      17.492  50.977  47.970  1.00  0.00     0.008 A 
HETATM    5  C   UNL     1      18.051  50.029  47.089  1.00  0.00     0.047 A 
HETATM    6  C   UNL     1      19.391  49.649  47.189  1.00  0.00     0.050 A 
HETATM    7  C   UNL     1      17.851  52.362  49.902  1.00  0.00     0.032 A 
HETATM    8  C   UNL     1      16.538  52.836  49.844  1.00  0.00     0.002 A 
HETATM    9  C   UNL     1      15.694  52.396  48.837  1.00  0.00     0.001 A 
HETATM   10  C   UNL     1      16.166  51.476  47.902  1.00  0.00     0.015 A 
ENDROOT
BRANCH   5  11
HETATM   11  C   UNL     1      17.299  49.468  45.950  1.00  0.00     0.271 C 
HETATM   12  N   UNL     1      16.845  48.179  45.948  1.00  0.00    -0.150 N 
HETATM   13  H   UNL     1      16.282  47.905  45.157  1.00  0.00     0.188 HD
HETATM   14  O   UNL     1      17.089  50.204  44.985  1.00  0.00    -0.267 OA
BRANCH  12  15
HETATM   15  C   UNL     1      17.098  47.172  46.829  1.00  0.00     0.747 A 
HETATM   16  N   UNL     1      16.468  47.110  48.005  1.00  0.00     0.020 NA
HETATM   17  N   UNL     1      17.008  46.008  48.548  1.00  0.00    -0.255 N 
HETATM   18  H   UNL     1      16.720  45.713  49.475  1.00  0.00     0.190 HD
HETATM   19  C   UNL     1      17.909  45.443  47.706  1.00  0.00     0.246 A 
HETATM   20  N   UNL     1      17.978  46.154  46.606  1.00  0.00    -0.055 NA
ENDBRANCH  12  15
ENDBRANCH   5  11
BRANCH   1  21
HETATM   21  C   UNL     1      21.606  49.896  48.380  1.00  0.00    -0.007 A 
HETATM   22  C   UNL     1      22.019  48.739  49.064  1.00  0.00     0.016 A 
HETATM   23  C   UNL     1      23.374  48.439  49.251  1.00  0.00     0.037 A 
HETATM   24  C   UNL     1      24.363  49.285  48.755  1.00  0.00     0.068 A 
HETATM   25  C   UNL     1      23.984  50.448  48.093  1.00  0.00     0.037 A 
HETATM   26  C   UNL     1      22.624  50.749  47.912  1.00  0.00     0.016 A 
BRANCH  24  27
HETATM   27  O   UNL     1      25.645  48.877  48.994  1.00  0.00    -0.352 OA
BRANCH  27  28
HETATM   28  C   UNL     1      26.689  49.684  48.454  1.00  0.00     0.171 C 
HETATM   29  C   UNL     1      27.979  49.319  49.166  1.00  0.00     0.034 C 
ENDBRANCH  27  28
ENDBRANCH  24  27
ENDBRANCH   1  21
TORSDOF 5
ENDMDL
MODEL 7
REMARK VINA RESULT:      -7.6     12.038     15.045
REMARK  5 active torsions:
REMARK  status: ('A' for Active; 'I' for Inactive)
REMARK    1  A    between atoms: C_2  and  O_3 
REMARK    2  A    between atoms: O_3  and  C_4 
REMARK    3  A    between atoms: C_7  and  C_8 
REMARK    4  A    between atoms: C_12  and  C_13 
REMARK       I    between atoms: C_13  and  N_14 
REMARK    5  A    between atoms: N_14  and  C_15 
ROOT
HETATM    1  C   UNL     1      29.348  48.460  39.553  1.00  0.00     0.068 A 
HETATM    2  N   UNL     1      28.463  49.249  40.212  1.00  0.00    -0.248 NA
HETATM    3  C   UNL     1      28.689  50.570  40.325  1.00  0.00     0.068 A 
HETATM    4  C   UNL     1      29.817  51.205  39.777  1.00  0.00     0.008 A 
HETATM    5  C   UNL     1      30.692  50.373  39.047  1.00  0.00     0.047 A 
HETATM    6  C   UNL     1      30.470  48.999  38.947  1.00  0.00     0.050 A 
HETATM    7  C   UNL     1      27.771  51.335  41.032  1.00  0.00     0.032 A 
HETATM    8  C   UNL     1      27.942  52.708  41.226  1.00  0.00     0.002 A 
HETATM    9  C   UNL     1      29.062  53.339  40.710  1.00  0.00     0.001 A 
HETATM   10  C   UNL     1      29.998  52.594  39.994  1.00  0.00     0.015 A 
ENDROOT
BRANCH   5  11
HETATM   11  C   UNL     1      31.941  50.876  38.444  1.00  0.00     0.271 C 
HETATM   12  N   UNL     1      33.096  50.994  39.166  1.00  0.00    -0.150 N 
HETATM   13  H   UNL     1      33.915  51.282  38.652  1.00  0.00     0.188 HD
HETATM   14  O   UNL     1      31.915  51.193  37.254  1.00  0.00    -0.267 OA
BRANCH  12  15
HETATM   15  C   UNL     1      33.298  50.850  40.504  1.00  0.00     0.747 A 
HETATM   16  N   UNL     1      33.473  49.643  41.049  1.00  0.00     0.020 NA
HETATM   17  N   UNL     1      33.617  49.946  42.348  1.00  0.00    -0.255 N 
HETATM   18  H   UNL     1      33.757  49.202  43.024  1.00  0.00     0.190 HD
HETATM   19  C   UNL     1      33.543  51.286  42.546  1.00  0.00     0.246 A 
HETATM   20  N   UNL     1      33.352  51.882  41.393  1.00  0.00    -0.055 NA
ENDBRANCH  12  15
ENDBRANCH   5  11
BRANCH   1  21
HETATM   21  C   UNL     1      29.028  47.011  39.544  1.00  0.00    -0.007 A 
HETATM   22  C   UNL     1      28.030  46.490  40.387  1.00  0.00     0.016 A 
HETATM   23  C   UNL     1      27.714  45.126  40.398  1.00  0.00     0.037 A 
HETATM   24  C   UNL     1      28.384  44.236  39.561  1.00  0.00     0.068 A 
HETATM   25  C   UNL     1      29.390  44.720  38.731  1.00  0.00     0.037 A 
HETATM   26  C   UNL     1      29.707  46.088  38.727  1.00  0.00     0.016 A 
BRANCH  24  27
HETATM   27  O   UNL     1      27.978  42.935  39.659  1.00  0.00    -0.352 OA
BRANCH  27  28
HETATM   28  C   UNL     1      27.516  42.498  40.936  1.00  0.00     0.171 C 
HETATM   29  C   UNL     1      28.449  41.405  41.423  1.00  0.00     0.034 C 
ENDBRANCH  27  28
ENDBRANCH  24  27
ENDBRANCH   1  21
TORSDOF 5
ENDMDL
MODEL 8
REMARK VINA RESULT:      -7.5      8.396     11.856
REMARK  5 active torsions:
REMARK  status: ('A' for Active; 'I' for Inactive)
REMARK    1  A    between atoms: C_2  and  O_3 
REMARK    2  A    between atoms: O_3  and  C_4 
REMARK    3  A    between atoms: C_7  and  C_8 
REMARK    4  A    between atoms: C_12  and  C_13 
REMARK       I    between atoms: C_13  and  N_14 
REMARK    5  A    between atoms: N_14  and  C_15 
ROOT
HETATM    1  C   UNL     1      19.818  49.976  48.698  1.00  0.00     0.068 A 
HETATM    2  N   UNL     1      19.387  51.156  49.212  1.00  0.00    -0.248 NA
HETATM    3  C   UNL     1      18.071  51.430  49.263  1.00  0.00     0.068 A 
HETATM    4  C   UNL     1      17.084  50.539  48.809  1.00  0.00     0.008 A 
HETATM    5  C   UNL     1      17.554  49.297  48.334  1.00  0.00     0.047 A 
HETATM    6  C   UNL     1      18.920  49.019  48.261  1.00  0.00     0.050 A 
HETATM    7  C   UNL     1      17.677  52.661  49.771  1.00  0.00     0.032 A 
HETATM    8  C   UNL     1      16.334  53.042  49.832  1.00  0.00     0.002 A 
HETATM    9  C   UNL     1      15.355  52.181  49.366  1.00  0.00     0.001 A 
HETATM   10  C   UNL     1      15.724  50.938  48.853  1.00  0.00     0.015 A 
ENDROOT
BRANCH   5  11
HETATM   11  C   UNL     1      16.650  48.268  47.785  1.00  0.00     0.271 C 
HETATM   12  N   UNL     1      16.391  48.172  46.446  1.00  0.00    -0.150 N 
HETATM   13  H   UNL     1      15.815  47.396  46.157  1.00  0.00     0.188 HD
HETATM   14  O   UNL     1      16.126  47.485  48.578  1.00  0.00    -0.267 OA
BRANCH  12  15
HETATM   15  C   UNL     1      16.737  49.017  45.436  1.00  0.00     0.747 A 
HETATM   16  N   UNL     1      15.967  50.060  45.116  1.00  0.00     0.020 NA
HETATM   17  N   UNL     1      16.647  50.599  44.092  1.00  0.00    -0.255 N 
HETATM   18  H   UNL     1      16.283  51.423  43.626  1.00  0.00     0.190 HD
HETATM   19  C   UNL     1      17.782  49.900  43.840  1.00  0.00     0.246 A 
HETATM   20  N   UNL     1      17.868  48.899  44.684  1.00  0.00    -0.055 NA
ENDBRANCH  12  15
ENDBRANCH   5  11
BRANCH   1  21
HETATM   21  C   UNL     1      21.291  49.808  48.636  1.00  0.00    -0.007 A 
HETATM   22  C   UNL     1      22.123  50.878  48.262  1.00  0.00     0.016 A 
HETATM   23  C   UNL     1      23.514  50.740  48.193  1.00  0.00     0.037 A 
HETATM   24  C   UNL     1      24.123  49.526  48.502  1.00  0.00     0.068 A 
HETATM   25  C   UNL     1      23.323  48.443  48.856  1.00  0.00     0.037 A 
HETATM   26  C   UNL     1      21.927  48.585  48.919  1.00  0.00     0.016 A 
BRANCH  24  27
HETATM   27  O   UNL     1      25.486  49.522  48.406  1.00  0.00    -0.352 OA
BRANCH  27  28
HETATM   28  C   UNL     1      26.191  48.651  49.288  1.00  0.00     0.171 C 
HETATM   29  C   UNL     1      27.676  48.928  49.131  1.00  0.00     0.034 C 
ENDBRANCH  27  28
ENDBRANCH  24  27
ENDBRANCH   1  21
TORSDOF 5
ENDMDL
MODEL 9
REMARK VINA RESULT:      -7.4     11.765     14.858
REMARK  5 active torsions:
REMARK  status: ('A' for Active; 'I' for Inactive)
REMARK    1  A    between atoms: C_2  and  O_3 
REMARK    2  A    between atoms: O_3  and  C_4 
REMARK    3  A    between atoms: C_7  and  C_8 
REMARK    4  A    between atoms: C_12  and  C_13 
REMARK       I    between atoms: C_13  and  N_14 
REMARK    5  A    between atoms: N_14  and  C_15 
ROOT
HETATM    1  C   UNL     1      29.875  49.218  40.877  1.00  0.00     0.068 A 
HETATM    2  N   UNL     1      29.360  50.249  40.159  1.00  0.00    -0.248 NA
HETATM    3  C   UNL     1      29.798  51.503  40.369  1.00  0.00     0.068 A 
HETATM    4  C   UNL     1      30.792  51.821  41.310  1.00  0.00     0.008 A 
HETATM    5  C   UNL     1      31.352  50.727  42.001  1.00  0.00     0.047 A 
HETATM    6  C   UNL     1      30.885  49.427  41.800  1.00  0.00     0.050 A 
HETATM    7  C   UNL     1      29.223  52.529  39.631  1.00  0.00     0.032 A 
HETATM    8  C   UNL     1      29.594  53.865  39.806  1.00  0.00     0.002 A 
HETATM    9  C   UNL     1      30.557  54.193  40.747  1.00  0.00     0.001 A 
HETATM   10  C   UNL     1      31.150  53.180  41.499  1.00  0.00     0.015 A 
ENDROOT
BRANCH   5  11
HETATM   11  C   UNL     1      32.377  50.895  43.049  1.00  0.00     0.271 C 
HETATM   12  N   UNL     1      33.696  51.091  42.746  1.00  0.00    -0.150 N 
HETATM   13  H   UNL     1      34.312  51.264  43.526  1.00  0.00     0.188 HD
HETATM   14  O   UNL     1      32.007  50.854  44.223  1.00  0.00    -0.267 OA
BRANCH  12  15
HETATM   15  C   UNL     1      34.326  51.016  41.542  1.00  0.00     0.747 A 
HETATM   16  N   UNL     1      34.839  49.864  41.102  1.00  0.00     0.020 NA
HETATM   17  N   UNL     1      35.364  50.229  39.923  1.00  0.00    -0.255 N 
HETATM   18  H   UNL     1      35.844  49.541  39.353  1.00  0.00     0.190 HD
HETATM   19  C   UNL     1      35.147  51.546  39.681  1.00  0.00     0.246 A 
HETATM   20  N   UNL     1      34.484  52.066  40.686  1.00  0.00    -0.055 NA
ENDBRANCH  12  15
ENDBRANCH   5  11
BRANCH   1  21
HETATM   21  C   UNL     1      29.275  47.889  40.606  1.00  0.00    -0.007 A 
HETATM   22  C   UNL     1      29.917  46.968  39.758  1.00  0.00     0.016 A 
HETATM   23  C   UNL     1      29.366  45.711  39.485  1.00  0.00     0.037 A 
HETATM   24  C   UNL     1      28.155  45.327  40.056  1.00  0.00     0.068 A 
HETATM   25  C   UNL     1      27.486  46.225  40.883  1.00  0.00     0.037 A 
HETATM   26  C   UNL     1      28.040  47.488  41.150  1.00  0.00     0.016 A 
BRANCH  24  27
HETATM   27  O   UNL     1      27.729  44.074  39.719  1.00  0.00    -0.352 OA
BRANCH  27  28
HETATM   28  C   UNL     1      26.813  43.443  40.612  1.00  0.00     0.171 C 
HETATM   29  C   UNL     1      27.594  42.465  41.470  1.00  0.00     0.034 C 
ENDBRANCH  27  28
ENDBRANCH  24  27
ENDBRANCH   1  21
TORSDOF 5
ENDMDL
MODEL 10
REMARK VINA RESULT:      -7.4      5.116      9.662
REMARK  5 active torsions:
REMARK  status: ('A' for Active; 'I' for Inactive)
REMARK    1  A    between atoms: C_2  and  O_3 
REMARK    2  A    between atoms: O_3  and  C_4 
REMARK    3  A    between atoms: C_7  and  C_8 
REMARK    4  A    between atoms: C_12  and  C_13 
REMARK       I    between atoms: C_13  and  N_14 
REMARK    5  A    between atoms: N_14  and  C_15 
ROOT
HETATM    1  C   UNL     1      23.016  48.878  49.202  1.00  0.00     0.068 A 
HETATM    2  N   UNL     1      24.086  49.669  48.937  1.00  0.00    -0.248 NA
HETATM    3  C   UNL     1      25.332  49.167  49.009  1.00  0.00     0.068 A 
HETATM    4  C   UNL     1      25.602  47.830  49.344  1.00  0.00     0.008 A 
HETATM    5  C   UNL     1      24.472  47.013  49.558  1.00  0.00     0.047 A 
HETATM    6  C   UNL     1      23.179  47.537  49.504  1.00  0.00     0.050 A 
HETATM    7  C   UNL     1      26.398  50.021  48.757  1.00  0.00     0.032 A 
HETATM    8  C   UNL     1      27.726  49.593  48.840  1.00  0.00     0.002 A 
HETATM    9  C   UNL     1      28.003  48.282  49.193  1.00  0.00     0.001 A 
HETATM   10  C   UNL     1      26.951  47.405  49.448  1.00  0.00     0.015 A 
ENDROOT
BRANCH   5  11
HETATM   11  C   UNL     1      24.584  45.597  49.956  1.00  0.00     0.271 C 
HETATM   12  N   UNL     1      25.014  45.227  51.200  1.00  0.00    -0.150 N 
HETATM   13  H   UNL     1      24.993  44.240  51.404  1.00  0.00     0.188 HD
HETATM   14  O   UNL     1      24.276  44.742  49.124  1.00  0.00    -0.267 OA
BRANCH  12  15
HETATM   15  C   UNL     1      25.540  45.993  52.195  1.00  0.00     0.747 A 
HETATM   16  N   UNL     1      26.648  45.618  52.840  1.00  0.00     0.020 NA
HETATM   17  N   UNL     1      26.804  46.617  53.722  1.00  0.00    -0.255 N 
HETATM   18  H   UNL     1      27.581  46.595  54.374  1.00  0.00     0.190 HD
HETATM   19  C   UNL     1      25.827  47.548  53.580  1.00  0.00     0.246 A 
HETATM   20  N   UNL     1      25.020  47.181  52.613  1.00  0.00    -0.055 NA
ENDBRANCH  12  15
ENDBRANCH   5  11
BRANCH   1  21
HETATM   21  C   UNL     1      21.696  49.552  49.152  1.00  0.00    -0.007 A 
HETATM   22  C   UNL     1      20.506  48.819  49.311  1.00  0.00     0.016 A 
HETATM   23  C   UNL     1      19.250  49.435  49.264  1.00  0.00     0.037 A 
HETATM   24  C   UNL     1      19.140  50.808  49.060  1.00  0.00     0.068 A 
HETATM   25  C   UNL     1      20.299  51.557  48.878  1.00  0.00     0.037 A 
HETATM   26  C   UNL     1      21.558  50.934  48.921  1.00  0.00     0.016 A 
BRANCH  24  27
HETATM   27  O   UNL     1      17.861  51.289  49.044  1.00  0.00    -0.352 OA
BRANCH  27  28
HETATM   28  C   UNL     1      17.664  52.611  49.542  1.00  0.00     0.171 C 
HETATM   29  C   UNL     1      16.219  52.731  49.992  1.00  0.00     0.034 C 
ENDBRANCH  27  28
ENDBRANCH  24  27
ENDBRANCH   1  21
TORSDOF 5
ENDMDL
