MODEL 1
REMARK VINA RESULT:      -9.8      0.000      0.000
REMARK  9 active torsions:
REMARK  status: ('A' for Active; 'I' for Inactive)
REMARK    1  A    between atoms: C_2  and  N_3 
REMARK    2  A    between atoms: N_3  and  C_4 
REMARK    3  A    between atoms: N_3  and  C_34 
REMARK    4  A    between atoms: C_6  and  O_7 
REMARK    5  A    between atoms: C_8  and  C_9 
REMARK    6  A    between atoms: N_10  and  N_11 
REMARK       I    between atoms: N_11  and  C_12 
REMARK    7  A    between atoms: C_12  and  C_13 
REMARK    8  A    between atoms: C_16  and  N_17 
REMARK    9  A    between atoms: C_21  and  C_22 
ROOT
HETATM    1  C   UNL     1      24.505  46.681  49.781  1.00  0.00     0.033 A 
HETATM    2  C   UNL     1      23.894  45.447  50.030  1.00  0.00     0.019 A 
HETATM    3  C   UNL     1      24.680  44.309  50.261  1.00  0.00     0.030 A 
HETATM    4  C   UNL     1      26.084  44.370  50.242  1.00  0.00     0.034 A 
HETATM    5  C   UNL     1      26.675  45.608  49.966  1.00  0.00     0.030 A 
HETATM    6  C   UNL     1      25.899  46.752  49.741  1.00  0.00     0.019 A 
ENDROOT
BRANCH   1   7
HETATM    7  C   UNL     1      23.723  47.923  49.514  1.00  0.00     0.271 C 
HETATM    8  N   UNL     1      22.377  47.725  49.221  1.00  0.00    -0.243 N 
HETATM    9  H   UNL     1      21.958  46.848  49.512  1.00  0.00     0.192 HD
HETATM   10  O   UNL     1      24.290  49.008  49.604  1.00  0.00    -0.266 OA
BRANCH   8  11
HETATM   11  N   UNL     1      21.454  48.726  49.056  1.00  0.00    -0.183 NA
HETATM   12  C   UNL     1      20.257  48.530  49.521  1.00  0.00     0.153 C 
BRANCH  12  13
HETATM   13  C   UNL     1      19.183  49.529  49.333  1.00  0.00     0.016 A 
HETATM   14  C   UNL     1      19.354  50.844  49.752  1.00  0.00     0.079 A 
HETATM   15  C   UNL     1      18.324  51.783  49.583  1.00  0.00     0.066 A 
HETATM   16  C   UNL     1      17.086  51.448  49.001  1.00  0.00     0.032 A 
HETATM   17  C   UNL     1      16.952  50.109  48.588  1.00  0.00     0.030 A 
HETATM   18  C   UNL     1      17.975  49.162  48.746  1.00  0.00     0.018 A 
BRANCH  14  19
HETATM   19  O   UNL     1      20.532  51.232  50.330  1.00  0.00    -0.360 OA
HETATM   20  H   UNL     1      21.263  51.057  49.717  1.00  0.00     0.217 HD
ENDBRANCH  14  19
BRANCH  16  21
HETATM   21  N   UNL     1      16.063  52.379  48.841  1.00  0.00    -0.382 N 
BRANCH  21  22
HETATM   22  C   UNL     1      15.731  53.362  49.883  1.00  0.00     0.118 C 
HETATM   23  C   UNL     1      14.373  53.061  50.499  1.00  0.00     0.026 C 
ENDBRANCH  21  22
BRANCH  21  24
HETATM   24  C   UNL     1      15.285  52.489  47.598  1.00  0.00     0.118 C 
HETATM   25  C   UNL     1      16.206  52.588  46.391  1.00  0.00     0.026 C 
ENDBRANCH  21  24
ENDBRANCH  16  21
ENDBRANCH  12  13
ENDBRANCH   8  11
ENDBRANCH   1   7
BRANCH   4  26
HETATM   26  N   UNL     1      26.811  43.181  50.424  1.00  0.00    -0.335 N 
HETATM   27  C   UNL     1      27.630  42.841  51.449  1.00  0.00     0.171 A 
HETATM   28  S   UNL     1      28.303  41.250  51.489  1.00  0.00    -0.061 SA
HETATM   29  N   UNL     1      28.021  43.609  52.440  1.00  0.00    -0.223 NA
HETATM   30  C   UNL     1      29.155  41.642  52.923  1.00  0.00     0.085 A 
HETATM   31  C   UNL     1      28.897  42.947  53.288  1.00  0.00     0.076 A 
HETATM   32  H   UNL     1      26.693  42.495  49.691  1.00  0.00     0.168 HD
BRANCH  31  33
HETATM   33  C   UNL     1      29.474  43.635  54.446  1.00  0.00    -0.007 A 
HETATM   34  C   UNL     1      30.557  43.119  55.172  1.00  0.00     0.014 A 
HETATM   35  C   UNL     1      31.081  43.816  56.267  1.00  0.00     0.001 A 
HETATM   36  C   UNL     1      30.529  45.035  56.652  1.00  0.00     0.000 A 
HETATM   37  C   UNL     1      29.452  45.561  55.944  1.00  0.00     0.001 A 
HETATM   38  C   UNL     1      28.930  44.865  54.851  1.00  0.00     0.014 A 
ENDBRANCH  31  33
ENDBRANCH   4  26
TORSDOF 9
ENDMDL
MODEL 2
REMARK VINA RESULT:      -9.0      1.206      1.850
REMARK  9 active torsions:
REMARK  status: ('A' for Active; 'I' for Inactive)
REMARK    1  A    between atoms: C_2  and  N_3 
REMARK    2  A    between atoms: N_3  and  C_4 
REMARK    3  A    between atoms: N_3  and  C_34 
REMARK    4  A    between atoms: C_6  and  O_7 
REMARK    5  A    between atoms: C_8  and  C_9 
REMARK    6  A    between atoms: N_10  and  N_11 
REMARK       I    between atoms: N_11  and  C_12 
REMARK    7  A    between atoms: C_12  and  C_13 
REMARK    8  A    between atoms: C_16  and  N_17 
REMARK    9  A    between atoms: C_21  and  C_22 
ROOT
HETATM    1  C   UNL     1      23.420  47.045  49.157  1.00  0.00     0.033 A 
HETATM    2  C   UNL     1      22.920  45.859  48.608  1.00  0.00     0.019 A 
HETATM    3  C   UNL     1      23.706  44.699  48.612  1.00  0.00     0.030 A 
HETATM    4  C   UNL     1      25.004  44.693  49.151  1.00  0.00     0.034 A 
HETATM    5  C   UNL     1      25.495  45.895  49.673  1.00  0.00     0.030 A 
HETATM    6  C   UNL     1      24.715  47.058  49.680  1.00  0.00     0.019 A 
ENDROOT
BRANCH   1   7
HETATM    7  C   UNL     1      22.637  48.315  49.170  1.00  0.00     0.271 C 
HETATM    8  N   UNL     1      21.373  48.239  48.593  1.00  0.00    -0.243 N 
HETATM    9  H   UNL     1      20.952  47.319  48.505  1.00  0.00     0.192 HD
HETATM   10  O   UNL     1      23.128  49.305  49.705  1.00  0.00    -0.266 OA
BRANCH   8  11
HETATM   11  N   UNL     1      20.445  49.249  48.598  1.00  0.00    -0.183 NA
HETATM   12  C   UNL     1      19.284  49.004  49.125  1.00  0.00     0.153 C 
BRANCH  12  13
HETATM   13  C   UNL     1      18.204  50.013  49.118  1.00  0.00     0.016 A 
HETATM   14  C   UNL     1      18.399  51.267  49.687  1.00  0.00     0.079 A 
HETATM   15  C   UNL     1      17.364  52.216  49.689  1.00  0.00     0.066 A 
HETATM   16  C   UNL     1      16.096  51.950  49.134  1.00  0.00     0.032 A 
HETATM   17  C   UNL     1      15.939  50.672  48.565  1.00  0.00     0.030 A 
HETATM   18  C   UNL     1      16.967  49.717  48.553  1.00  0.00     0.018 A 
BRANCH  14  19
HETATM   19  O   UNL     1      19.606  51.585  50.248  1.00  0.00    -0.360 OA
HETATM   20  H   UNL     1      20.049  50.772  50.538  1.00  0.00     0.217 HD
ENDBRANCH  14  19
BRANCH  16  21
HETATM   21  N   UNL     1      15.069  52.889  49.143  1.00  0.00    -0.382 N 
BRANCH  21  22
HETATM   22  C   UNL     1      14.758  53.717  47.968  1.00  0.00     0.118 C 
HETATM   23  C   UNL     1      13.380  54.351  48.101  1.00  0.00     0.026 C 
ENDBRANCH  21  22
BRANCH  21  24
HETATM   24  C   UNL     1      14.182  53.077  50.300  1.00  0.00     0.118 C 
HETATM   25  C   UNL     1      14.782  54.070  51.285  1.00  0.00     0.026 C 
ENDBRANCH  21  24
ENDBRANCH  16  21
ENDBRANCH  12  13
ENDBRANCH   8  11
ENDBRANCH   1   7
BRANCH   4  26
HETATM   26  N   UNL     1      25.760  43.510  49.071  1.00  0.00    -0.335 N 
HETATM   27  C   UNL     1      26.647  43.013  49.966  1.00  0.00     0.171 A 
HETATM   28  S   UNL     1      27.346  41.460  49.677  1.00  0.00    -0.061 SA
HETATM   29  N   UNL     1      27.087  43.599  51.056  1.00  0.00    -0.223 NA
HETATM   30  C   UNL     1      28.281  41.609  51.105  1.00  0.00     0.085 A 
HETATM   31  C   UNL     1      28.025  42.820  51.716  1.00  0.00     0.076 A 
HETATM   32  H   UNL     1      25.606  42.965  48.233  1.00  0.00     0.168 HD
BRANCH  31  33
HETATM   33  C   UNL     1      28.663  43.302  52.944  1.00  0.00    -0.007 A 
HETATM   34  C   UNL     1      29.823  42.720  53.475  1.00  0.00     0.014 A 
HETATM   35  C   UNL     1      30.402  43.220  54.646  1.00  0.00     0.001 A 
HETATM   36  C   UNL     1      29.830  44.307  55.303  1.00  0.00     0.000 A 
HETATM   37  C   UNL     1      28.678  44.895  54.791  1.00  0.00     0.001 A 
HETATM   38  C   UNL     1      28.100  44.396  53.622  1.00  0.00     0.014 A 
ENDBRANCH  31  33
ENDBRANCH   4  26
TORSDOF 9
ENDMDL
MODEL 3
REMARK VINA RESULT:      -8.6      3.524     12.593
REMARK  9 active torsions:
REMARK  status: ('A' for Active; 'I' for Inactive)
REMARK    1  A    between atoms: C_2  and  N_3 
REMARK    2  A    between atoms: N_3  and  C_4 
REMARK    3  A    between atoms: N_3  and  C_34 
REMARK    4  A    between atoms: C_6  and  O_7 
REMARK    5  A    between atoms: C_8  and  C_9 
REMARK    6  A    between atoms: N_10  and  N_11 
REMARK       I    between atoms: N_11  and  C_12 
REMARK    7  A    between atoms: C_12  and  C_13 
REMARK    8  A    between atoms: C_16  and  N_17 
REMARK    9  A    between atoms: C_21  and  C_22 
ROOT
HETATM    1  C   UNL     1      22.926  45.388  48.833  1.00  0.00     0.033 A 
HETATM    2  C   UNL     1      22.013  44.379  48.511  1.00  0.00     0.019 A 
HETATM    3  C   UNL     1      20.882  44.677  47.738  1.00  0.00     0.030 A 
HETATM    4  C   UNL     1      20.630  45.980  47.276  1.00  0.00     0.034 A 
HETATM    5  C   UNL     1      21.543  46.981  47.630  1.00  0.00     0.030 A 
HETATM    6  C   UNL     1      22.679  46.692  48.395  1.00  0.00     0.019 A 
ENDROOT
BRANCH   1   7
HETATM    7  C   UNL     1      24.139  45.137  49.664  1.00  0.00     0.271 C 
HETATM    8  N   UNL     1      23.964  45.302  51.034  1.00  0.00    -0.243 N 
HETATM    9  H   UNL     1      23.017  45.257  51.395  1.00  0.00     0.192 HD
HETATM   10  O   UNL     1      25.172  44.776  49.106  1.00  0.00    -0.266 OA
BRANCH   8  11
HETATM   11  N   UNL     1      24.909  45.014  51.987  1.00  0.00    -0.183 NA
HETATM   12  C   UNL     1      25.806  45.916  52.243  1.00  0.00     0.153 C 
BRANCH  12  13
HETATM   13  C   UNL     1      26.898  45.667  53.209  1.00  0.00     0.016 A 
HETATM   14  C   UNL     1      27.554  44.441  53.240  1.00  0.00     0.079 A 
HETATM   15  C   UNL     1      28.580  44.208  54.169  1.00  0.00     0.066 A 
HETATM   16  C   UNL     1      28.985  45.179  55.106  1.00  0.00     0.032 A 
HETATM   17  C   UNL     1      28.299  46.407  55.041  1.00  0.00     0.030 A 
HETATM   18  C   UNL     1      27.276  46.655  54.114  1.00  0.00     0.018 A 
BRANCH  14  19
HETATM   19  O   UNL     1      27.204  43.454  52.360  1.00  0.00    -0.360 OA
HETATM   20  H   UNL     1      26.695  42.773  52.827  1.00  0.00     0.217 HD
ENDBRANCH  14  19
BRANCH  16  21
HETATM   21  N   UNL     1      29.998  44.943  56.032  1.00  0.00    -0.382 N 
BRANCH  21  22
HETATM   22  C   UNL     1      30.230  45.834  57.179  1.00  0.00     0.118 C 
HETATM   23  C   UNL     1      28.974  45.959  58.030  1.00  0.00     0.026 C 
ENDBRANCH  21  22
BRANCH  21  24
HETATM   24  C   UNL     1      30.864  43.758  55.967  1.00  0.00     0.118 C 
HETATM   25  C   UNL     1      31.677  43.613  57.245  1.00  0.00     0.026 C 
ENDBRANCH  21  24
ENDBRANCH  16  21
ENDBRANCH  12  13
ENDBRANCH   8  11
ENDBRANCH   1   7
BRANCH   4  26
HETATM   26  N   UNL     1      19.449  46.222  46.554  1.00  0.00    -0.335 N 
HETATM   27  C   UNL     1      18.629  47.299  46.613  1.00  0.00     0.171 A 
HETATM   28  S   UNL     1      17.302  47.400  45.511  1.00  0.00    -0.061 SA
HETATM   29  N   UNL     1      18.697  48.302  47.457  1.00  0.00    -0.223 NA
HETATM   30  C   UNL     1      16.814  48.879  46.229  1.00  0.00     0.085 A 
HETATM   31  C   UNL     1      17.668  49.211  47.260  1.00  0.00     0.076 A 
HETATM   32  H   UNL     1      19.193  45.491  45.903  1.00  0.00     0.168 HD
BRANCH  31  33
HETATM   33  C   UNL     1      17.544  50.393  48.116  1.00  0.00    -0.007 A 
HETATM   34  C   UNL     1      16.319  50.818  48.651  1.00  0.00     0.014 A 
HETATM   35  C   UNL     1      16.251  51.949  49.471  1.00  0.00     0.001 A 
HETATM   36  C   UNL     1      17.405  52.672  49.768  1.00  0.00     0.000 A 
HETATM   37  C   UNL     1      18.628  52.265  49.245  1.00  0.00     0.001 A 
HETATM   38  C   UNL     1      18.696  51.135  48.426  1.00  0.00     0.014 A 
ENDBRANCH  31  33
ENDBRANCH   4  26
TORSDOF 9
ENDMDL
MODEL 4
REMARK VINA RESULT:      -8.6      1.465      2.244
REMARK  9 active torsions:
REMARK  status: ('A' for Active; 'I' for Inactive)
REMARK    1  A    between atoms: C_2  and  N_3 
REMARK    2  A    between atoms: N_3  and  C_4 
REMARK    3  A    between atoms: N_3  and  C_34 
REMARK    4  A    between atoms: C_6  and  O_7 
REMARK    5  A    between atoms: C_8  and  C_9 
REMARK    6  A    between atoms: N_10  and  N_11 
REMARK       I    between atoms: N_11  and  C_12 
REMARK    7  A    between atoms: C_12  and  C_13 
REMARK    8  A    between atoms: C_16  and  N_17 
REMARK    9  A    between atoms: C_21  and  C_22 
ROOT
HETATM    1  C   UNL     1      22.891  44.580  49.310  1.00  0.00     0.033 A 
HETATM    2  C   UNL     1      22.746  43.334  49.931  1.00  0.00     0.019 A 
HETATM    3  C   UNL     1      23.879  42.572  50.247  1.00  0.00     0.030 A 
HETATM    4  C   UNL     1      25.176  43.025  49.947  1.00  0.00     0.034 A 
HETATM    5  C   UNL     1      25.298  44.261  49.303  1.00  0.00     0.030 A 
HETATM    6  C   UNL     1      24.173  45.033  48.990  1.00  0.00     0.019 A 
ENDROOT
BRANCH   1   7
HETATM    7  C   UNL     1      21.724  45.430  48.936  1.00  0.00     0.271 C 
HETATM    8  N   UNL     1      21.971  46.799  48.911  1.00  0.00    -0.243 N 
HETATM    9  H   UNL     1      22.936  47.100  48.825  1.00  0.00     0.192 HD
HETATM   10  O   UNL     1      20.663  44.883  48.647  1.00  0.00    -0.266 OA
BRANCH   8  11
HETATM   11  N   UNL     1      21.079  47.751  48.486  1.00  0.00    -0.183 NA
HETATM   12  C   UNL     1      20.228  48.214  49.352  1.00  0.00     0.153 C 
BRANCH  12  13
HETATM   13  C   UNL     1      19.191  49.195  48.967  1.00  0.00     0.016 A 
HETATM   14  C   UNL     1      19.511  50.537  48.795  1.00  0.00     0.079 A 
HETATM   15  C   UNL     1      18.518  51.465  48.443  1.00  0.00     0.066 A 
HETATM   16  C   UNL     1      17.171  51.094  48.258  1.00  0.00     0.032 A 
HETATM   17  C   UNL     1      16.888  49.727  48.438  1.00  0.00     0.030 A 
HETATM   18  C   UNL     1      17.872  48.789  48.785  1.00  0.00     0.018 A 
BRANCH  14  19
HETATM   19  O   UNL     1      20.800  50.962  48.967  1.00  0.00    -0.360 OA
HETATM   20  H   UNL     1      21.286  50.308  49.494  1.00  0.00     0.217 HD
ENDBRANCH  14  19
BRANCH  16  21
HETATM   21  N   UNL     1      16.186  52.017  47.916  1.00  0.00    -0.382 N 
BRANCH  21  22
HETATM   22  C   UNL     1      15.484  51.967  46.624  1.00  0.00     0.118 C 
HETATM   23  C   UNL     1      16.359  52.526  45.511  1.00  0.00     0.026 C 
ENDBRANCH  21  22
BRANCH  21  24
HETATM   24  C   UNL     1      15.732  53.065  48.841  1.00  0.00     0.118 C 
HETATM   25  C   UNL     1      14.971  52.459  50.012  1.00  0.00     0.026 C 
ENDBRANCH  21  24
ENDBRANCH  16  21
ENDBRANCH  12  13
ENDBRANCH   8  11
ENDBRANCH   1   7
BRANCH   4  26
HETATM   26  N   UNL     1      26.265  42.186  50.239  1.00  0.00    -0.335 N 
HETATM   27  C   UNL     1      27.156  42.281  51.255  1.00  0.00     0.171 A 
HETATM   28  S   UNL     1      28.330  41.030  51.459  1.00  0.00    -0.061 SA
HETATM   29  N   UNL     1      27.268  43.261  52.122  1.00  0.00    -0.223 NA
HETATM   30  C   UNL     1      29.006  41.875  52.788  1.00  0.00     0.085 A 
HETATM   31  C   UNL     1      28.320  43.053  53.001  1.00  0.00     0.076 A 
HETATM   32  H   UNL     1      26.383  41.407  49.604  1.00  0.00     0.168 HD
BRANCH  31  33
HETATM   33  C   UNL     1      28.635  44.043  54.034  1.00  0.00    -0.007 A 
HETATM   34  C   UNL     1      27.848  45.182  54.258  1.00  0.00     0.014 A 
HETATM   35  C   UNL     1      28.183  46.096  55.263  1.00  0.00     0.001 A 
HETATM   36  C   UNL     1      29.309  45.886  56.055  1.00  0.00     0.000 A 
HETATM   37  C   UNL     1      30.103  44.763  55.845  1.00  0.00     0.001 A 
HETATM   38  C   UNL     1      29.768  43.850  54.842  1.00  0.00     0.014 A 
ENDBRANCH  31  33
ENDBRANCH   4  26
TORSDOF 9
ENDMDL
MODEL 5
REMARK VINA RESULT:      -8.4      3.761     13.676
REMARK  9 active torsions:
REMARK  status: ('A' for Active; 'I' for Inactive)
REMARK    1  A    between atoms: C_2  and  N_3 
REMARK    2  A    between atoms: N_3  and  C_4 
REMARK    3  A    between atoms: N_3  and  C_34 
REMARK    4  A    between atoms: C_6  and  O_7 
REMARK    5  A    between atoms: C_8  and  C_9 
REMARK    6  A    between atoms: N_10  and  N_11 
REMARK       I    between atoms: N_11  and  C_12 
REMARK    7  A    between atoms: C_12  and  C_13 
REMARK    8  A    between atoms: C_16  and  N_17 
REMARK    9  A    between atoms: C_21  and  C_22 
ROOT
HETATM    1  C   UNL     1      21.428  48.154  48.679  1.00  0.00     0.033 A 
HETATM    2  C   UNL     1      20.140  47.620  48.794  1.00  0.00     0.019 A 
HETATM    3  C   UNL     1      19.022  48.461  48.712  1.00  0.00     0.030 A 
HETATM    4  C   UNL     1      19.158  49.847  48.524  1.00  0.00     0.034 A 
HETATM    5  C   UNL     1      20.455  50.365  48.436  1.00  0.00     0.030 A 
HETATM    6  C   UNL     1      21.578  49.532  48.509  1.00  0.00     0.019 A 
ENDROOT
BRANCH   1   7
HETATM    7  C   UNL     1      22.656  47.313  48.771  1.00  0.00     0.271 C 
HETATM    8  N   UNL     1      23.481  47.584  49.859  1.00  0.00    -0.243 N 
HETATM    9  H   UNL     1      23.069  48.067  50.650  1.00  0.00     0.192 HD
HETATM   10  O   UNL     1      22.837  46.437  47.929  1.00  0.00    -0.266 OA
BRANCH   8  11
HETATM   11  N   UNL     1      24.595  46.860  50.199  1.00  0.00    -0.183 NA
HETATM   12  C   UNL     1      24.418  45.712  50.780  1.00  0.00     0.153 C 
BRANCH  12  13
HETATM   13  C   UNL     1      25.562  44.894  51.237  1.00  0.00     0.016 A 
HETATM   14  C   UNL     1      26.640  44.643  50.394  1.00  0.00     0.079 A 
HETATM   15  C   UNL     1      27.715  43.854  50.831  1.00  0.00     0.066 A 
HETATM   16  C   UNL     1      27.755  43.278  52.116  1.00  0.00     0.032 A 
HETATM   17  C   UNL     1      26.648  43.557  52.940  1.00  0.00     0.030 A 
HETATM   18  C   UNL     1      25.570  44.348  52.518  1.00  0.00     0.018 A 
BRANCH  14  19
HETATM   19  O   UNL     1      26.658  45.169  49.131  1.00  0.00    -0.360 OA
HETATM   20  H   UNL     1      27.167  45.996  49.135  1.00  0.00     0.217 HD
ENDBRANCH  14  19
BRANCH  16  21
HETATM   21  N   UNL     1      28.819  42.490  52.545  1.00  0.00    -0.382 N 
BRANCH  21  22
HETATM   22  C   UNL     1      30.104  43.072  52.964  1.00  0.00     0.118 C 
HETATM   23  C   UNL     1      30.174  43.195  54.479  1.00  0.00     0.026 C 
ENDBRANCH  21  22
BRANCH  21  24
HETATM   24  C   UNL     1      28.717  41.028  52.672  1.00  0.00     0.118 C 
HETATM   25  C   UNL     1      28.472  40.384  51.315  1.00  0.00     0.026 C 
ENDBRANCH  21  24
ENDBRANCH  16  21
ENDBRANCH  12  13
ENDBRANCH   8  11
ENDBRANCH   1   7
BRANCH   4  26
HETATM   26  N   UNL     1      17.998  50.641  48.509  1.00  0.00    -0.335 N 
HETATM   27  C   UNL     1      17.405  51.248  47.453  1.00  0.00     0.171 A 
HETATM   28  S   UNL     1      15.900  52.063  47.694  1.00  0.00    -0.061 SA
HETATM   29  N   UNL     1      17.862  51.329  46.225  1.00  0.00    -0.223 NA
HETATM   30  C   UNL     1      15.887  52.536  46.047  1.00  0.00     0.085 A 
HETATM   31  C   UNL     1      17.015  52.065  45.408  1.00  0.00     0.076 A 
HETATM   32  H   UNL     1      17.553  50.759  49.409  1.00  0.00     0.168 HD
BRANCH  31  33
HETATM   33  C   UNL     1      17.354  52.299  44.002  1.00  0.00    -0.007 A 
HETATM   34  C   UNL     1      18.061  51.368  43.227  1.00  0.00     0.014 A 
HETATM   35  C   UNL     1      18.354  51.631  41.885  1.00  0.00     0.001 A 
HETATM   36  C   UNL     1      17.947  52.827  41.299  1.00  0.00     0.000 A 
HETATM   37  C   UNL     1      17.247  53.763  42.054  1.00  0.00     0.001 A 
HETATM   38  C   UNL     1      16.954  53.500  43.394  1.00  0.00     0.014 A 
ENDBRANCH  31  33
ENDBRANCH   4  26
TORSDOF 9
ENDMDL
MODEL 6
REMARK VINA RESULT:      -8.2      1.916      2.864
REMARK  9 active torsions:
REMARK  status: ('A' for Active; 'I' for Inactive)
REMARK    1  A    between atoms: C_2  and  N_3 
REMARK    2  A    between atoms: N_3  and  C_4 
REMARK    3  A    between atoms: N_3  and  C_34 
REMARK    4  A    between atoms: C_6  and  O_7 
REMARK    5  A    between atoms: C_8  and  C_9 
REMARK    6  A    between atoms: N_10  and  N_11 
REMARK       I    between atoms: N_11  and  C_12 
REMARK    7  A    between atoms: C_12  and  C_13 
REMARK    8  A    between atoms: C_16  and  N_17 
REMARK    9  A    between atoms: C_21  and  C_22 
ROOT
HETATM    1  C   UNL     1      22.553  48.047  48.974  1.00  0.00     0.033 A 
HETATM    2  C   UNL     1      22.198  46.772  48.519  1.00  0.00     0.019 A 
HETATM    3  C   UNL     1      23.058  45.687  48.732  1.00  0.00     0.030 A 
HETATM    4  C   UNL     1      24.290  45.843  49.391  1.00  0.00     0.034 A 
HETATM    5  C   UNL     1      24.638  47.131  49.816  1.00  0.00     0.030 A 
HETATM    6  C   UNL     1      23.782  48.220  49.615  1.00  0.00     0.019 A 
ENDROOT
BRANCH   1   7
HETATM    7  C   UNL     1      21.686  49.243  48.765  1.00  0.00     0.271 C 
HETATM    8  N   UNL     1      20.383  48.968  48.362  1.00  0.00    -0.243 N 
HETATM    9  H   UNL     1      20.022  48.037  48.545  1.00  0.00     0.192 HD
HETATM   10  O   UNL     1      22.153  50.356  48.990  1.00  0.00    -0.266 OA
BRANCH   8  11
HETATM   11  N   UNL     1      19.390  49.904  48.224  1.00  0.00    -0.183 NA
HETATM   12  C   UNL     1      18.649  50.160  49.260  1.00  0.00     0.153 C 
BRANCH  12  13
HETATM   13  C   UNL     1      17.517  51.109  49.184  1.00  0.00     0.016 A 
HETATM   14  C   UNL     1      16.487  50.915  48.270  1.00  0.00     0.079 A 
HETATM   15  C   UNL     1      15.423  51.827  48.194  1.00  0.00     0.066 A 
HETATM   16  C   UNL     1      15.349  52.970  49.016  1.00  0.00     0.032 A 
HETATM   17  C   UNL     1      16.408  53.129  49.929  1.00  0.00     0.030 A 
HETATM   18  C   UNL     1      17.475  52.222  50.018  1.00  0.00     0.018 A 
BRANCH  14  19
HETATM   19  O   UNL     1      16.503  49.828  47.439  1.00  0.00    -0.360 OA
HETATM   20  H   UNL     1      17.415  49.657  47.152  1.00  0.00     0.217 HD
ENDBRANCH  14  19
BRANCH  16  21
HETATM   21  N   UNL     1      14.297  53.878  48.935  1.00  0.00    -0.382 N 
BRANCH  21  22
HETATM   22  C   UNL     1      13.308  54.026  50.014  1.00  0.00     0.118 C 
HETATM   23  C   UNL     1      13.432  55.390  50.678  1.00  0.00     0.026 C 
ENDBRANCH  21  22
BRANCH  21  24
HETATM   24  C   UNL     1      14.133  54.795  47.798  1.00  0.00     0.118 C 
HETATM   25  C   UNL     1      12.899  54.433  46.984  1.00  0.00     0.026 C 
ENDBRANCH  21  24
ENDBRANCH  16  21
ENDBRANCH  12  13
ENDBRANCH   8  11
ENDBRANCH   1   7
BRANCH   4  26
HETATM   26  N   UNL     1      25.131  44.725  49.521  1.00  0.00    -0.335 N 
HETATM   27  C   UNL     1      25.951  44.400  50.549  1.00  0.00     0.171 A 
HETATM   28  S   UNL     1      26.784  42.886  50.509  1.00  0.00    -0.061 SA
HETATM   29  N   UNL     1      26.232  45.133  51.601  1.00  0.00    -0.223 NA
HETATM   30  C   UNL     1      27.550  43.264  51.994  1.00  0.00     0.085 A 
HETATM   31  C   UNL     1      27.148  44.508  52.435  1.00  0.00     0.076 A 
HETATM   32  H   UNL     1      25.105  44.082  48.740  1.00  0.00     0.168 HD
BRANCH  31  33
HETATM   33  C   UNL     1      27.617  45.169  53.655  1.00  0.00    -0.007 A 
HETATM   34  C   UNL     1      27.049  46.355  54.141  1.00  0.00     0.014 A 
HETATM   35  C   UNL     1      27.526  46.946  55.317  1.00  0.00     0.001 A 
HETATM   36  C   UNL     1      28.576  46.361  56.021  1.00  0.00     0.000 A 
HETATM   37  C   UNL     1      29.152  45.185  55.551  1.00  0.00     0.001 A 
HETATM   38  C   UNL     1      28.676  44.595  54.378  1.00  0.00     0.014 A 
ENDBRANCH  31  33
ENDBRANCH   4  26
TORSDOF 9
ENDMDL
MODEL 7
REMARK VINA RESULT:      -8.2      2.316      4.215
REMARK  9 active torsions:
REMARK  status: ('A' for Active; 'I' for Inactive)
REMARK    1  A    between atoms: C_2  and  N_3 
REMARK    2  A    between atoms: N_3  and  C_4 
REMARK    3  A    between atoms: N_3  and  C_34 
REMARK    4  A    between atoms: C_6  and  O_7 
REMARK    5  A    between atoms: C_8  and  C_9 
REMARK    6  A    between atoms: N_10  and  N_11 
REMARK       I    between atoms: N_11  and  C_12 
REMARK    7  A    between atoms: C_12  and  C_13 
REMARK    8  A    between atoms: C_16  and  N_17 
REMARK    9  A    between atoms: C_21  and  C_22 
ROOT
HETATM    1  C   UNL     1      24.831  46.739  50.526  1.00  0.00     0.033 A 
HETATM    2  C   UNL     1      25.908  47.061  51.359  1.00  0.00     0.019 A 
HETATM    3  C   UNL     1      26.551  46.056  52.095  1.00  0.00     0.030 A 
HETATM    4  C   UNL     1      26.136  44.715  52.026  1.00  0.00     0.034 A 
HETATM    5  C   UNL     1      25.041  44.417  51.207  1.00  0.00     0.030 A 
HETATM    6  C   UNL     1      24.396  45.412  50.462  1.00  0.00     0.019 A 
ENDROOT
BRANCH   1   7
HETATM    7  C   UNL     1      24.098  47.765  49.730  1.00  0.00     0.271 C 
HETATM    8  N   UNL     1      22.880  47.348  49.203  1.00  0.00    -0.243 N 
HETATM    9  H   UNL     1      22.433  46.545  49.633  1.00  0.00     0.192 HD
HETATM   10  O   UNL     1      24.584  48.888  49.625  1.00  0.00    -0.266 OA
BRANCH   8  11
HETATM   11  N   UNL     1      21.993  48.157  48.539  1.00  0.00    -0.183 NA
HETATM   12  C   UNL     1      20.948  48.573  49.189  1.00  0.00     0.153 C 
BRANCH  12  13
HETATM   13  C   UNL     1      19.910  49.397  48.534  1.00  0.00     0.016 A 
HETATM   14  C   UNL     1      20.128  50.747  48.282  1.00  0.00     0.079 A 
HETATM   15  C   UNL     1      19.132  51.526  47.673  1.00  0.00     0.066 A 
HETATM   16  C   UNL     1      17.881  50.995  47.301  1.00  0.00     0.032 A 
HETATM   17  C   UNL     1      17.699  49.625  47.570  1.00  0.00     0.030 A 
HETATM   18  C   UNL     1      18.689  48.835  48.174  1.00  0.00     0.018 A 
BRANCH  14  19
HETATM   19  O   UNL     1      21.320  51.325  48.625  1.00  0.00    -0.360 OA
HETATM   20  H   UNL     1      22.033  50.921  48.106  1.00  0.00     0.217 HD
ENDBRANCH  14  19
BRANCH  16  21
HETATM   21  N   UNL     1      16.891  51.771  46.704  1.00  0.00    -0.382 N 
BRANCH  21  22
HETATM   22  C   UNL     1      17.123  52.502  45.449  1.00  0.00     0.118 C 
HETATM   23  C   UNL     1      17.570  51.554  44.345  1.00  0.00     0.026 C 
ENDBRANCH  21  22
BRANCH  21  24
HETATM   24  C   UNL     1      15.528  51.865  47.246  1.00  0.00     0.118 C 
HETATM   25  C   UNL     1      15.545  52.449  48.652  1.00  0.00     0.026 C 
ENDBRANCH  21  24
ENDBRANCH  16  21
ENDBRANCH  12  13
ENDBRANCH   8  11
ENDBRANCH   1   7
BRANCH   4  26
HETATM   26  N   UNL     1      26.787  43.767  52.834  1.00  0.00    -0.335 N 
HETATM   27  C   UNL     1      27.428  42.635  52.456  1.00  0.00     0.171 A 
HETATM   28  S   UNL     1      28.263  41.708  53.652  1.00  0.00    -0.061 SA
HETATM   29  N   UNL     1      27.471  42.111  51.253  1.00  0.00    -0.223 NA
HETATM   30  C   UNL     1      28.695  40.553  52.462  1.00  0.00     0.085 A 
HETATM   31  C   UNL     1      28.182  40.920  51.234  1.00  0.00     0.076 A 
HETATM   32  H   UNL     1      26.775  43.973  53.824  1.00  0.00     0.168 HD
BRANCH  31  33
HETATM   33  C   UNL     1      28.328  40.159  49.992  1.00  0.00    -0.007 A 
HETATM   34  C   UNL     1      28.881  38.870  49.952  1.00  0.00     0.014 A 
HETATM   35  C   UNL     1      28.992  38.177  48.742  1.00  0.00     0.001 A 
HETATM   36  C   UNL     1      28.554  38.761  47.555  1.00  0.00     0.000 A 
HETATM   37  C   UNL     1      28.005  40.040  47.576  1.00  0.00     0.001 A 
HETATM   38  C   UNL     1      27.893  40.731  48.785  1.00  0.00     0.014 A 
ENDBRANCH  31  33
ENDBRANCH   4  26
TORSDOF 9
ENDMDL
MODEL 8
REMARK VINA RESULT:      -8.1      9.205     13.326
REMARK  9 active torsions:
REMARK  status: ('A' for Active; 'I' for Inactive)
REMARK    1  A    between atoms: C_2  and  N_3 
REMARK    2  A    between atoms: N_3  and  C_4 
REMARK    3  A    between atoms: N_3  and  C_34 
REMARK    4  A    between atoms: C_6  and  O_7 
REMARK    5  A    between atoms: C_8  and  C_9 
REMARK    6  A    between atoms: N_10  and  N_11 
REMARK       I    between atoms: N_11  and  C_12 
REMARK    7  A    between atoms: C_12  and  C_13 
REMARK    8  A    between atoms: C_16  and  N_17 
REMARK    9  A    between atoms: C_21  and  C_22 
ROOT
HETATM    1  C   UNL     1      27.443  38.166  48.535  1.00  0.00     0.033 A 
HETATM    2  C   UNL     1      27.219  38.523  47.201  1.00  0.00     0.019 A 
HETATM    3  C   UNL     1      26.357  37.755  46.405  1.00  0.00     0.030 A 
HETATM    4  C   UNL     1      25.708  36.616  46.912  1.00  0.00     0.034 A 
HETATM    5  C   UNL     1      25.965  36.262  48.241  1.00  0.00     0.030 A 
HETATM    6  C   UNL     1      26.818  37.026  49.047  1.00  0.00     0.019 A 
ENDROOT
BRANCH   1   7
HETATM    7  C   UNL     1      28.359  38.934  49.428  1.00  0.00     0.271 C 
HETATM    8  N   UNL     1      27.729  39.734  50.376  1.00  0.00    -0.243 N 
HETATM    9  H   UNL     1      26.768  39.512  50.613  1.00  0.00     0.192 HD
HETATM   10  O   UNL     1      29.571  38.786  49.297  1.00  0.00    -0.266 OA
BRANCH   8  11
HETATM   11  N   UNL     1      28.373  40.432  51.366  1.00  0.00    -0.183 NA
HETATM   12  C   UNL     1      27.743  41.427  51.914  1.00  0.00     0.153 C 
BRANCH  12  13
HETATM   13  C   UNL     1      28.384  42.273  52.944  1.00  0.00     0.016 A 
HETATM   14  C   UNL     1      27.617  43.068  53.789  1.00  0.00     0.079 A 
HETATM   15  C   UNL     1      28.233  43.879  54.755  1.00  0.00     0.066 A 
HETATM   16  C   UNL     1      29.633  43.936  54.910  1.00  0.00     0.032 A 
HETATM   17  C   UNL     1      30.374  43.115  54.040  1.00  0.00     0.030 A 
HETATM   18  C   UNL     1      29.769  42.296  53.074  1.00  0.00     0.018 A 
BRANCH  14  19
HETATM   19  O   UNL     1      26.253  43.063  53.685  1.00  0.00    -0.360 OA
HETATM   20  H   UNL     1      25.978  42.329  53.111  1.00  0.00     0.217 HD
ENDBRANCH  14  19
BRANCH  16  21
HETATM   21  N   UNL     1      30.243  44.746  55.864  1.00  0.00    -0.382 N 
BRANCH  21  22
HETATM   22  C   UNL     1      29.638  46.006  56.321  1.00  0.00     0.118 C 
HETATM   23  C   UNL     1      29.422  45.989  57.827  1.00  0.00     0.026 C 
ENDBRANCH  21  22
BRANCH  21  24
HETATM   24  C   UNL     1      31.500  44.371  56.529  1.00  0.00     0.118 C 
HETATM   25  C   UNL     1      31.366  43.018  57.213  1.00  0.00     0.026 C 
ENDBRANCH  21  24
ENDBRANCH  16  21
ENDBRANCH  12  13
ENDBRANCH   8  11
ENDBRANCH   1   7
BRANCH   4  26
HETATM   26  N   UNL     1      24.903  35.859  46.044  1.00  0.00    -0.335 N 
HETATM   27  C   UNL     1      23.551  35.788  45.993  1.00  0.00     0.171 A 
HETATM   28  S   UNL     1      22.808  34.871  44.731  1.00  0.00    -0.061 SA
HETATM   29  N   UNL     1      22.697  36.321  46.836  1.00  0.00    -0.223 NA
HETATM   30  C   UNL     1      21.261  35.230  45.374  1.00  0.00     0.085 A 
HETATM   31  C   UNL     1      21.386  36.010  46.506  1.00  0.00     0.076 A 
HETATM   32  H   UNL     1      25.412  35.305  45.367  1.00  0.00     0.168 HD
BRANCH  31  33
HETATM   33  C   UNL     1      20.276  36.486  47.335  1.00  0.00    -0.007 A 
HETATM   34  C   UNL     1      19.847  37.821  47.335  1.00  0.00     0.014 A 
HETATM   35  C   UNL     1      18.776  38.228  48.138  1.00  0.00     0.001 A 
HETATM   36  C   UNL     1      18.120  37.308  48.952  1.00  0.00     0.000 A 
HETATM   37  C   UNL     1      18.533  35.979  48.966  1.00  0.00     0.001 A 
HETATM   38  C   UNL     1      19.602  35.573  48.164  1.00  0.00     0.014 A 
ENDBRANCH  31  33
ENDBRANCH   4  26
TORSDOF 9
ENDMDL
MODEL 9
REMARK VINA RESULT:      -7.9      2.260      2.636
REMARK  9 active torsions:
REMARK  status: ('A' for Active; 'I' for Inactive)
REMARK    1  A    between atoms: C_2  and  N_3 
REMARK    2  A    between atoms: N_3  and  C_4 
REMARK    3  A    between atoms: N_3  and  C_34 
REMARK    4  A    between atoms: C_6  and  O_7 
REMARK    5  A    between atoms: C_8  and  C_9 
REMARK    6  A    between atoms: N_10  and  N_11 
REMARK       I    between atoms: N_11  and  C_12 
REMARK    7  A    between atoms: C_12  and  C_13 
REMARK    8  A    between atoms: C_16  and  N_17 
REMARK    9  A    between atoms: C_21  and  C_22 
ROOT
HETATM    1  C   UNL     1      23.204  44.034  49.289  1.00  0.00     0.033 A 
HETATM    2  C   UNL     1      23.945  43.286  48.368  1.00  0.00     0.019 A 
HETATM    3  C   UNL     1      25.023  42.505  48.805  1.00  0.00     0.030 A 
HETATM    4  C   UNL     1      25.393  42.455  50.160  1.00  0.00     0.034 A 
HETATM    5  C   UNL     1      24.655  43.230  51.062  1.00  0.00     0.030 A 
HETATM    6  C   UNL     1      23.572  44.008  50.637  1.00  0.00     0.019 A 
ENDROOT
BRANCH   1   7
HETATM    7  C   UNL     1      22.055  44.895  48.884  1.00  0.00     0.271 C 
HETATM    8  N   UNL     1      22.401  46.080  48.240  1.00  0.00    -0.243 N 
HETATM    9  H   UNL     1      23.320  46.131  47.814  1.00  0.00     0.192 HD
HETATM   10  O   UNL     1      20.914  44.499  49.104  1.00  0.00    -0.266 OA
BRANCH   8  11
HETATM   11  N   UNL     1      21.507  46.960  47.683  1.00  0.00    -0.183 NA
HETATM   12  C   UNL     1      20.982  47.861  48.457  1.00  0.00     0.153 C 
BRANCH  12  13
HETATM   13  C   UNL     1      19.965  48.810  47.957  1.00  0.00     0.016 A 
HETATM   14  C   UNL     1      18.777  48.350  47.397  1.00  0.00     0.079 A 
HETATM   15  C   UNL     1      17.823  49.257  46.911  1.00  0.00     0.066 A 
HETATM   16  C   UNL     1      18.016  50.652  46.956  1.00  0.00     0.032 A 
HETATM   17  C   UNL     1      19.228  51.079  47.532  1.00  0.00     0.030 A 
HETATM   18  C   UNL     1      20.188  50.182  48.025  1.00  0.00     0.018 A 
BRANCH  14  19
HETATM   19  O   UNL     1      18.532  47.007  47.319  1.00  0.00    -0.360 OA
HETATM   20  H   UNL     1      17.709  46.803  47.792  1.00  0.00     0.217 HD
ENDBRANCH  14  19
BRANCH  16  21
HETATM   21  N   UNL     1      17.071  51.551  46.467  1.00  0.00    -0.382 N 
BRANCH  21  22
HETATM   22  C   UNL     1      15.686  51.572  46.961  1.00  0.00     0.118 C 
HETATM   23  C   UNL     1      15.603  52.268  48.312  1.00  0.00     0.026 C 
ENDBRANCH  21  22
BRANCH  21  24
HETATM   24  C   UNL     1      17.403  52.581  45.473  1.00  0.00     0.118 C 
HETATM   25  C   UNL     1      16.982  52.141  44.078  1.00  0.00     0.026 C 
ENDBRANCH  21  24
ENDBRANCH  16  21
ENDBRANCH  12  13
ENDBRANCH   8  11
ENDBRANCH   1   7
BRANCH   4  26
HETATM   26  N   UNL     1      26.520  41.697  50.523  1.00  0.00    -0.335 N 
HETATM   27  C   UNL     1      27.389  41.911  51.539  1.00  0.00     0.171 A 
HETATM   28  S   UNL     1      28.623  40.740  51.845  1.00  0.00    -0.061 SA
HETATM   29  N   UNL     1      27.438  42.954  52.336  1.00  0.00    -0.223 NA
HETATM   30  C   UNL     1      29.235  41.710  53.117  1.00  0.00     0.085 A 
HETATM   31  C   UNL     1      28.487  42.863  53.239  1.00  0.00     0.076 A 
HETATM   32  H   UNL     1      26.687  40.883  49.946  1.00  0.00     0.168 HD
BRANCH  31  33
HETATM   33  C   UNL     1      28.735  43.939  54.202  1.00  0.00    -0.007 A 
HETATM   34  C   UNL     1      29.848  43.951  55.056  1.00  0.00     0.014 A 
HETATM   35  C   UNL     1      30.048  45.004  55.954  1.00  0.00     0.001 A 
HETATM   36  C   UNL     1      29.140  46.059  56.013  1.00  0.00     0.000 A 
HETATM   37  C   UNL     1      28.030  46.062  55.174  1.00  0.00     0.001 A 
HETATM   38  C   UNL     1      27.830  45.011  54.277  1.00  0.00     0.014 A 
ENDBRANCH  31  33
ENDBRANCH   4  26
TORSDOF 9
ENDMDL
MODEL 10
REMARK VINA RESULT:      -7.7      8.449     12.862
REMARK  9 active torsions:
REMARK  status: ('A' for Active; 'I' for Inactive)
REMARK    1  A    between atoms: C_2  and  N_3 
REMARK    2  A    between atoms: N_3  and  C_4 
REMARK    3  A    between atoms: N_3  and  C_34 
REMARK    4  A    between atoms: C_6  and  O_7 
REMARK    5  A    between atoms: C_8  and  C_9 
REMARK    6  A    between atoms: N_10  and  N_11 
REMARK       I    between atoms: N_11  and  C_12 
REMARK    7  A    between atoms: C_12  and  C_13 
REMARK    8  A    between atoms: C_16  and  N_17 
REMARK    9  A    between atoms: C_21  and  C_22 
ROOT
HETATM    1  C   UNL     1      25.568  40.890  47.762  1.00  0.00     0.033 A 
HETATM    2  C   UNL     1      24.375  41.513  47.380  1.00  0.00     0.019 A 
HETATM    3  C   UNL     1      23.415  40.801  46.647  1.00  0.00     0.030 A 
HETATM    4  C   UNL     1      23.622  39.463  46.271  1.00  0.00     0.034 A 
HETATM    5  C   UNL     1      24.833  38.865  46.641  1.00  0.00     0.030 A 
HETATM    6  C   UNL     1      25.794  39.565  47.379  1.00  0.00     0.019 A 
ENDROOT
BRANCH   1   7
HETATM    7  C   UNL     1      26.632  41.598  48.530  1.00  0.00     0.271 C 
HETATM    8  N   UNL     1      26.194  42.274  49.665  1.00  0.00    -0.243 N 
HETATM    9  H   UNL     1      25.305  41.993  50.064  1.00  0.00     0.192 HD
HETATM   10  O   UNL     1      27.795  41.512  48.145  1.00  0.00    -0.266 OA
BRANCH   8  11
HETATM   11  N   UNL     1      27.013  42.893  50.575  1.00  0.00    -0.183 NA
HETATM   12  C   UNL     1      27.148  42.342  51.743  1.00  0.00     0.153 C 
BRANCH  12  13
HETATM   13  C   UNL     1      27.961  42.972  52.805  1.00  0.00     0.016 A 
HETATM   14  C   UNL     1      29.196  42.444  53.163  1.00  0.00     0.079 A 
HETATM   15  C   UNL     1      29.956  43.040  54.182  1.00  0.00     0.066 A 
HETATM   16  C   UNL     1      29.511  44.176  54.888  1.00  0.00     0.032 A 
HETATM   17  C   UNL     1      28.258  44.683  54.495  1.00  0.00     0.030 A 
HETATM   18  C   UNL     1      27.492  44.099  53.475  1.00  0.00     0.018 A 
BRANCH  14  19
HETATM   19  O   UNL     1      29.681  41.338  52.520  1.00  0.00    -0.360 OA
HETATM   20  H   UNL     1      30.629  41.246  52.710  1.00  0.00     0.217 HD
ENDBRANCH  14  19
BRANCH  16  21
HETATM   21  N   UNL     1      30.262  44.762  55.903  1.00  0.00    -0.382 N 
BRANCH  21  22
HETATM   22  C   UNL     1      31.556  44.211  56.335  1.00  0.00     0.118 C 
HETATM   23  C   UNL     1      31.357  42.967  57.189  1.00  0.00     0.026 C 
ENDBRANCH  21  22
BRANCH  21  24
HETATM   24  C   UNL     1      29.850  46.005  56.572  1.00  0.00     0.118 C 
HETATM   25  C   UNL     1      29.549  45.753  58.042  1.00  0.00     0.026 C 
ENDBRANCH  21  24
ENDBRANCH  16  21
ENDBRANCH  12  13
ENDBRANCH   8  11
ENDBRANCH   1   7
BRANCH   4  26
HETATM   26  N   UNL     1      22.645  38.825  45.487  1.00  0.00    -0.335 N 
HETATM   27  C   UNL     1      21.792  37.835  45.842  1.00  0.00     0.171 A 
HETATM   28  S   UNL     1      20.592  37.319  44.711  1.00  0.00    -0.061 SA
HETATM   29  N   UNL     1      21.779  37.166  46.972  1.00  0.00    -0.223 NA
HETATM   30  C   UNL     1      20.043  36.138  45.825  1.00  0.00     0.085 A 
HETATM   31  C   UNL     1      20.795  36.189  46.981  1.00  0.00     0.076 A 
HETATM   32  H   UNL     1      22.575  39.166  44.537  1.00  0.00     0.168 HD
BRANCH  31  33
HETATM   33  C   UNL     1      20.629  35.310  48.140  1.00  0.00    -0.007 A 
HETATM   34  C   UNL     1      19.554  35.428  49.035  1.00  0.00     0.014 A 
HETATM   35  C   UNL     1      19.432  34.559  50.124  1.00  0.00     0.001 A 
HETATM   36  C   UNL     1      20.381  33.562  50.337  1.00  0.00     0.000 A 
HETATM   37  C   UNL     1      21.454  33.431  49.460  1.00  0.00     0.001 A 
HETATM   38  C   UNL     1      21.576  34.298  48.372  1.00  0.00     0.014 A 
ENDBRANCH  31  33
ENDBRANCH   4  26
TORSDOF 9
ENDMDL
