MODEL 1
REMARK VINA RESULT:      -9.5      0.000      0.000
REMARK  7 active torsions:
REMARK  status: ('A' for Active; 'I' for Inactive)
REMARK    1  A    between atoms: O_2  and  C_3 
REMARK    2  A    between atoms: C_4  and  N_5 
REMARK    3  A    between atoms: N_5  and  C_6 
REMARK    4  A    between atoms: C_8  and  N_9 
REMARK    5  A    between atoms: C_11  and  C_12 
REMARK    6  A    between atoms: C_12  and  N_13 
REMARK    7  A    between atoms: N_17  and  C_18 
ROOT
HETATM    1  C   UNL     1      26.403  45.716  51.923  1.00  0.00     0.731 A 
HETATM    2  N   UNL     1      26.346  44.661  51.119  1.00  0.00    -0.031 NA
HETATM    3  C   UNL     1      26.368  44.902  49.819  1.00  0.00     0.219 A 
HETATM    4  N   UNL     1      26.365  46.110  49.271  1.00  0.00    -0.200 NA
HETATM    5  C   UNL     1      26.380  47.111  50.154  1.00  0.00     0.174 A 
HETATM    6  N   UNL     1      26.399  46.969  51.471  1.00  0.00    -0.045 NA
ENDROOT
BRANCH   5   7
HETATM    7  C   UNL     1      26.090  48.494  49.606  1.00  0.00     0.316 C 
BRANCH   7   8
HETATM    8  N   UNL     1      24.755  48.573  48.842  1.00  0.00    -0.061 N 
HETATM    9  H   UNL     1      24.913  47.956  48.028  1.00  0.00     0.280 HD
HETATM   10  C   UNL     1      23.590  47.980  49.628  1.00  0.00     0.255 C 
HETATM   11  C   UNL     1      22.313  47.971  48.751  1.00  0.00     0.152 C 
HETATM   12  N   UNL     1      22.010  49.311  48.201  1.00  0.00    -0.364 N 
HETATM   13  C   UNL     1      23.142  50.001  47.535  1.00  0.00     0.152 C 
HETATM   14  C   UNL     1      24.447  49.978  48.368  1.00  0.00     0.255 C 
BRANCH  12  15
HETATM   15  C   UNL     1      20.991  50.033  48.787  1.00  0.00     0.102 A 
HETATM   16  N   UNL     1      20.338  49.464  49.817  1.00  0.00    -0.352 N 
HETATM   17  H   UNL     1      20.602  48.514  50.067  1.00  0.00     0.166 HD
HETATM   18  C   UNL     1      19.322  50.043  50.474  1.00  0.00     0.089 A 
HETATM   19  C   UNL     1      18.889  51.305  50.101  1.00  0.00     0.017 A 
HETATM   20  C   UNL     1      19.514  51.936  49.033  1.00  0.00     0.005 A 
HETATM   21  C   UNL     1      20.561  51.296  48.368  1.00  0.00     0.048 A 
ENDBRANCH  12  15
ENDBRANCH   7   8
ENDBRANCH   5   7
BRANCH   3  22
HETATM   22  N   UNL     1      26.331  43.821  48.966  1.00  0.00    -0.270 NA
HETATM   23  H   UNL     1      25.370  43.619  48.708  1.00  0.00     0.127 HD
HETATM   24  H   UNL     1      26.841  43.027  49.332  1.00  0.00     0.127 HD
ENDBRANCH   3  22
BRANCH   1  25
HETATM   25  N   UNL     1      26.356  45.477  53.286  1.00  0.00    -0.185 N 
HETATM   26  H   UNL     1      25.464  45.112  53.604  1.00  0.00     0.184 HD
BRANCH  25  27
HETATM   27  C   UNL     1      27.348  45.510  54.285  1.00  0.00     0.084 A 
HETATM   28  C   UNL     1      27.305  46.534  55.259  1.00  0.00     0.095 A 
HETATM   29  C   UNL     1      28.283  46.598  56.259  1.00  0.00     0.041 A 
HETATM   30  C   UNL     1      29.324  45.668  56.280  1.00  0.00     0.026 A 
HETATM   31  C   UNL     1      29.389  44.681  55.305  1.00  0.00     0.036 A 
HETATM   32  C   UNL     1      28.415  44.602  54.310  1.00  0.00     0.056 A 
HETATM   33 CL   UNL     1      30.678  43.541  55.317  1.00  0.00    -0.084 Cl
BRANCH  28  34
HETATM   34  O   UNL     1      26.256  47.415  55.138  1.00  0.00    -0.354 OA
HETATM   35  C   UNL     1      26.360  48.632  55.870  1.00  0.00     0.210 C 
ENDBRANCH  28  34
ENDBRANCH  25  27
ENDBRANCH   1  25
TORSDOF 7
ENDMDL
MODEL 2
REMARK VINA RESULT:      -9.1      1.746      2.152
REMARK  7 active torsions:
REMARK  status: ('A' for Active; 'I' for Inactive)
REMARK    1  A    between atoms: O_2  and  C_3 
REMARK    2  A    between atoms: C_4  and  N_5 
REMARK    3  A    between atoms: N_5  and  C_6 
REMARK    4  A    between atoms: C_8  and  N_9 
REMARK    5  A    between atoms: C_11  and  C_12 
REMARK    6  A    between atoms: C_12  and  N_13 
REMARK    7  A    between atoms: N_17  and  C_18 
ROOT
HETATM    1  C   UNL     1      25.681  43.673  51.841  1.00  0.00     0.731 A 
HETATM    2  N   UNL     1      26.531  43.138  50.974  1.00  0.00    -0.031 NA
HETATM    3  C   UNL     1      26.205  43.214  49.695  1.00  0.00     0.219 A 
HETATM    4  N   UNL     1      25.066  43.713  49.232  1.00  0.00    -0.200 NA
HETATM    5  C   UNL     1      24.254  44.190  50.176  1.00  0.00     0.174 A 
HETATM    6  N   UNL     1      24.510  44.195  51.476  1.00  0.00    -0.045 NA
ENDROOT
BRANCH   5   7
HETATM    7  C   UNL     1      22.836  44.507  49.745  1.00  0.00     0.316 C 
BRANCH   7   8
HETATM    8  N   UNL     1      22.736  45.787  48.894  1.00  0.00    -0.061 N 
HETATM    9  H   UNL     1      23.259  45.541  48.037  1.00  0.00     0.280 HD
HETATM   10  C   UNL     1      21.306  46.103  48.468  1.00  0.00     0.255 C 
HETATM   11  C   UNL     1      21.298  47.320  47.510  1.00  0.00     0.152 C 
HETATM   12  N   UNL     1      21.994  48.489  48.095  1.00  0.00    -0.364 N 
HETATM   13  C   UNL     1      23.343  48.220  48.649  1.00  0.00     0.152 C 
HETATM   14  C   UNL     1      23.390  46.976  49.568  1.00  0.00     0.255 C 
BRANCH  12  15
HETATM   15  C   UNL     1      21.219  49.516  48.592  1.00  0.00     0.102 A 
HETATM   16  N   UNL     1      20.528  49.284  49.723  1.00  0.00    -0.352 N 
HETATM   17  H   UNL     1      20.580  48.346  50.115  1.00  0.00     0.166 HD
HETATM   18  C   UNL     1      19.728  50.185  50.313  1.00  0.00     0.089 A 
HETATM   19  C   UNL     1      19.577  51.443  49.755  1.00  0.00     0.017 A 
HETATM   20  C   UNL     1      20.251  51.736  48.577  1.00  0.00     0.005 A 
HETATM   21  C   UNL     1      21.067  50.769  47.988  1.00  0.00     0.048 A 
ENDBRANCH  12  15
ENDBRANCH   7   8
ENDBRANCH   5   7
BRANCH   3  22
HETATM   22  N   UNL     1      27.083  42.682  48.777  1.00  0.00    -0.270 NA
HETATM   23  H   UNL     1      26.890  41.693  48.649  1.00  0.00     0.127 HD
HETATM   24  H   UNL     1      28.046  42.894  49.001  1.00  0.00     0.127 HD
ENDBRANCH   3  22
BRANCH   1  25
HETATM   25  N   UNL     1      26.002  43.578  53.185  1.00  0.00    -0.185 N 
HETATM   26  H   UNL     1      25.435  42.905  53.690  1.00  0.00     0.184 HD
BRANCH  25  27
HETATM   27  C   UNL     1      27.049  44.129  53.947  1.00  0.00     0.084 A 
HETATM   28  C   UNL     1      26.894  45.427  54.487  1.00  0.00     0.095 A 
HETATM   29  C   UNL     1      27.921  46.005  55.241  1.00  0.00     0.041 A 
HETATM   30  C   UNL     1      29.119  45.315  55.437  1.00  0.00     0.026 A 
HETATM   31  C   UNL     1      29.289  44.054  54.879  1.00  0.00     0.036 A 
HETATM   32  C   UNL     1      28.268  43.465  54.135  1.00  0.00     0.056 A 
HETATM   33 CL   UNL     1      30.768  43.205  55.105  1.00  0.00    -0.084 Cl
BRANCH  28  34
HETATM   34  O   UNL     1      25.689  46.034  54.218  1.00  0.00    -0.354 OA
HETATM   35  C   UNL     1      25.722  47.146  53.328  1.00  0.00     0.210 C 
ENDBRANCH  28  34
ENDBRANCH  25  27
ENDBRANCH   1  25
TORSDOF 7
ENDMDL
MODEL 3
REMARK VINA RESULT:      -9.1      3.692      9.418
REMARK  7 active torsions:
REMARK  status: ('A' for Active; 'I' for Inactive)
REMARK    1  A    between atoms: O_2  and  C_3 
REMARK    2  A    between atoms: C_4  and  N_5 
REMARK    3  A    between atoms: N_5  and  C_6 
REMARK    4  A    between atoms: C_8  and  N_9 
REMARK    5  A    between atoms: C_11  and  C_12 
REMARK    6  A    between atoms: C_12  and  N_13 
REMARK    7  A    between atoms: N_17  and  C_18 
ROOT
HETATM    1  C   UNL     1      22.791  46.533  48.649  1.00  0.00     0.731 A 
HETATM    2  N   UNL     1      22.296  45.310  48.505  1.00  0.00    -0.031 NA
HETATM    3  C   UNL     1      22.882  44.345  49.192  1.00  0.00     0.219 A 
HETATM    4  N   UNL     1      23.964  44.500  49.945  1.00  0.00    -0.200 NA
HETATM    5  C   UNL     1      24.418  45.753  49.998  1.00  0.00     0.174 A 
HETATM    6  N   UNL     1      23.876  46.791  49.378  1.00  0.00    -0.045 NA
ENDROOT
BRANCH   5   7
HETATM    7  C   UNL     1      25.796  45.943  50.599  1.00  0.00     0.316 C 
BRANCH   7   8
HETATM    8  N   UNL     1      26.047  45.046  51.827  1.00  0.00    -0.061 N 
HETATM    9  H   UNL     1      25.201  44.454  51.862  1.00  0.00     0.280 HD
HETATM   10  C   UNL     1      27.237  44.110  51.640  1.00  0.00     0.255 C 
HETATM   11  C   UNL     1      27.348  43.151  52.851  1.00  0.00     0.152 C 
HETATM   12  N   UNL     1      27.391  43.885  54.137  1.00  0.00    -0.364 N 
HETATM   13  C   UNL     1      26.334  44.908  54.326  1.00  0.00     0.152 C 
HETATM   14  C   UNL     1      26.166  45.847  53.107  1.00  0.00     0.255 C 
BRANCH  12  15
HETATM   15  C   UNL     1      28.612  44.008  54.766  1.00  0.00     0.102 A 
HETATM   16  N   UNL     1      28.843  45.137  55.463  1.00  0.00    -0.352 N 
HETATM   17  H   UNL     1      28.121  45.853  55.439  1.00  0.00     0.166 HD
HETATM   18  C   UNL     1      29.986  45.396  56.114  1.00  0.00     0.089 A 
HETATM   19  C   UNL     1      31.017  44.471  56.095  1.00  0.00     0.017 A 
HETATM   20  C   UNL     1      30.844  43.294  55.378  1.00  0.00     0.005 A 
HETATM   21  C   UNL     1      29.643  43.065  54.704  1.00  0.00     0.048 A 
ENDBRANCH  12  15
ENDBRANCH   7   8
ENDBRANCH   5   7
BRANCH   3  22
HETATM   22  N   UNL     1      22.371  43.071  49.073  1.00  0.00    -0.270 NA
HETATM   23  H   UNL     1      22.985  42.506  48.494  1.00  0.00     0.127 HD
HETATM   24  H   UNL     1      21.403  43.073  48.778  1.00  0.00     0.127 HD
ENDBRANCH   3  22
BRANCH   1  25
HETATM   25  N   UNL     1      22.199  47.547  47.914  1.00  0.00    -0.185 N 
HETATM   26  H   UNL     1      22.057  47.311  46.938  1.00  0.00     0.184 HD
BRANCH  25  27
HETATM   27  C   UNL     1      21.635  48.781  48.292  1.00  0.00     0.084 A 
HETATM   28  C   UNL     1      22.330  49.974  47.986  1.00  0.00     0.095 A 
HETATM   29  C   UNL     1      21.798  51.214  48.357  1.00  0.00     0.041 A 
HETATM   30  C   UNL     1      20.594  51.278  49.059  1.00  0.00     0.026 A 
HETATM   31  C   UNL     1      19.925  50.106  49.392  1.00  0.00     0.036 A 
HETATM   32  C   UNL     1      20.441  48.865  49.019  1.00  0.00     0.056 A 
HETATM   33 CL   UNL     1      18.448  50.177  50.272  1.00  0.00    -0.084 Cl
BRANCH  28  34
HETATM   34  O   UNL     1      23.518  49.804  47.314  1.00  0.00    -0.354 OA
HETATM   35  C   UNL     1      24.707  50.098  48.042  1.00  0.00     0.210 C 
ENDBRANCH  28  34
ENDBRANCH  25  27
ENDBRANCH   1  25
TORSDOF 7
ENDMDL
MODEL 4
REMARK VINA RESULT:      -9.1      1.795      3.098
REMARK  7 active torsions:
REMARK  status: ('A' for Active; 'I' for Inactive)
REMARK    1  A    between atoms: O_2  and  C_3 
REMARK    2  A    between atoms: C_4  and  N_5 
REMARK    3  A    between atoms: N_5  and  C_6 
REMARK    4  A    between atoms: C_8  and  N_9 
REMARK    5  A    between atoms: C_11  and  C_12 
REMARK    6  A    between atoms: C_12  and  N_13 
REMARK    7  A    between atoms: N_17  and  C_18 
ROOT
HETATM    1  C   UNL     1      25.301  47.331  50.910  1.00  0.00     0.731 A 
HETATM    2  N   UNL     1      26.500  47.596  50.403  1.00  0.00    -0.031 NA
HETATM    3  C   UNL     1      26.543  48.442  49.388  1.00  0.00     0.219 A 
HETATM    4  N   UNL     1      25.481  48.978  48.801  1.00  0.00    -0.200 NA
HETATM    5  C   UNL     1      24.317  48.625  49.349  1.00  0.00     0.174 A 
HETATM    6  N   UNL     1      24.175  47.816  50.389  1.00  0.00    -0.045 NA
ENDROOT
BRANCH   5   7
HETATM    7  C   UNL     1      23.070  48.968  48.558  1.00  0.00     0.316 C 
BRANCH   7   8
HETATM    8  N   UNL     1      21.844  49.236  49.452  1.00  0.00    -0.061 N 
HETATM    9  H   UNL     1      22.161  48.922  50.385  1.00  0.00     0.280 HD
HETATM   10  C   UNL     1      21.515  50.720  49.572  1.00  0.00     0.255 C 
HETATM   11  C   UNL     1      20.362  50.924  50.586  1.00  0.00     0.152 C 
HETATM   12  N   UNL     1      19.179  50.099  50.252  1.00  0.00    -0.364 N 
HETATM   13  C   UNL     1      19.451  48.664  49.994  1.00  0.00     0.152 C 
HETATM   14  C   UNL     1      20.635  48.431  49.024  1.00  0.00     0.255 C 
BRANCH  12  15
HETATM   15  C   UNL     1      18.099  50.728  49.667  1.00  0.00     0.102 A 
HETATM   16  N   UNL     1      17.277  49.979  48.911  1.00  0.00    -0.352 N 
HETATM   17  H   UNL     1      17.531  49.003  48.774  1.00  0.00     0.166 HD
HETATM   18  C   UNL     1      16.197  50.458  48.274  1.00  0.00     0.089 A 
HETATM   19  C   UNL     1      15.875  51.801  48.379  1.00  0.00     0.017 A 
HETATM   20  C   UNL     1      16.697  52.628  49.133  1.00  0.00     0.005 A 
HETATM   21  C   UNL     1      17.817  52.094  49.772  1.00  0.00     0.048 A 
ENDBRANCH  12  15
ENDBRANCH   7   8
ENDBRANCH   5   7
BRANCH   3  22
HETATM   22  N   UNL     1      27.779  48.747  48.860  1.00  0.00    -0.270 NA
HETATM   23  H   UNL     1      27.665  49.248  47.984  1.00  0.00     0.127 HD
HETATM   24  H   UNL     1      28.380  47.936  48.802  1.00  0.00     0.127 HD
ENDBRANCH   3  22
BRANCH   1  25
HETATM   25  N   UNL     1      25.242  46.427  51.957  1.00  0.00    -0.185 N 
HETATM   26  H   UNL     1      24.308  46.075  52.136  1.00  0.00     0.184 HD
BRANCH  25  27
HETATM   27  C   UNL     1      26.245  45.802  52.723  1.00  0.00     0.084 A 
HETATM   28  C   UNL     1      26.530  46.300  54.015  1.00  0.00     0.095 A 
HETATM   29  C   UNL     1      27.528  45.705  54.795  1.00  0.00     0.041 A 
HETATM   30  C   UNL     1      28.269  44.636  54.289  1.00  0.00     0.026 A 
HETATM   31  C   UNL     1      28.015  44.166  53.006  1.00  0.00     0.036 A 
HETATM   32  C   UNL     1      27.017  44.745  52.223  1.00  0.00     0.056 A 
HETATM   33 CL   UNL     1      28.935  42.858  52.370  1.00  0.00    -0.084 Cl
BRANCH  28  34
HETATM   34  O   UNL     1      25.763  47.370  54.413  1.00  0.00    -0.354 OA
HETATM   35  C   UNL     1      26.367  48.279  55.329  1.00  0.00     0.210 C 
ENDBRANCH  28  34
ENDBRANCH  25  27
ENDBRANCH   1  25
TORSDOF 7
ENDMDL
MODEL 5
REMARK VINA RESULT:      -9.0      2.287      3.741
REMARK  7 active torsions:
REMARK  status: ('A' for Active; 'I' for Inactive)
REMARK    1  A    between atoms: O_2  and  C_3 
REMARK    2  A    between atoms: C_4  and  N_5 
REMARK    3  A    between atoms: N_5  and  C_6 
REMARK    4  A    between atoms: C_8  and  N_9 
REMARK    5  A    between atoms: C_11  and  C_12 
REMARK    6  A    between atoms: C_12  and  N_13 
REMARK    7  A    between atoms: N_17  and  C_18 
ROOT
HETATM    1  C   UNL     1      25.384  47.435  50.640  1.00  0.00     0.731 A 
HETATM    2  N   UNL     1      26.544  47.830  50.129  1.00  0.00    -0.031 NA
HETATM    3  C   UNL     1      26.494  48.730  49.163  1.00  0.00     0.219 A 
HETATM    4  N   UNL     1      25.377  49.202  48.624  1.00  0.00    -0.200 NA
HETATM    5  C   UNL     1      24.260  48.720  49.170  1.00  0.00     0.174 A 
HETATM    6  N   UNL     1      24.209  47.847  50.165  1.00  0.00    -0.045 NA
ENDROOT
BRANCH   5   7
HETATM    7  C   UNL     1      22.972  48.996  48.419  1.00  0.00     0.316 C 
BRANCH   7   8
HETATM    8  N   UNL     1      21.779  49.278  49.352  1.00  0.00    -0.061 N 
HETATM    9  H   UNL     1      22.132  48.986  50.279  1.00  0.00     0.280 HD
HETATM   10  C   UNL     1      21.446  50.763  49.452  1.00  0.00     0.255 C 
HETATM   11  C   UNL     1      20.331  50.984  50.504  1.00  0.00     0.152 C 
HETATM   12  N   UNL     1      19.141  50.146  50.233  1.00  0.00    -0.364 N 
HETATM   13  C   UNL     1      19.411  48.707  49.996  1.00  0.00     0.152 C 
HETATM   14  C   UNL     1      20.559  48.459  48.987  1.00  0.00     0.255 C 
BRANCH  12  15
HETATM   15  C   UNL     1      18.037  50.758  49.676  1.00  0.00     0.102 A 
HETATM   16  N   UNL     1      17.232  50.006  48.903  1.00  0.00    -0.352 N 
HETATM   17  H   UNL     1      17.516  49.043  48.735  1.00  0.00     0.166 HD
HETATM   18  C   UNL     1      16.132  50.469  48.290  1.00  0.00     0.089 A 
HETATM   19  C   UNL     1      15.769  51.798  48.437  1.00  0.00     0.017 A 
HETATM   20  C   UNL     1      16.570  52.627  49.209  1.00  0.00     0.005 A 
HETATM   21  C   UNL     1      17.712  52.111  49.823  1.00  0.00     0.048 A 
ENDBRANCH  12  15
ENDBRANCH   7   8
ENDBRANCH   5   7
BRANCH   3  22
HETATM   22  N   UNL     1      27.687  49.169  48.633  1.00  0.00    -0.270 NA
HETATM   23  H   UNL     1      27.993  48.534  47.902  1.00  0.00     0.127 HD
HETATM   24  H   UNL     1      28.380  49.349  49.347  1.00  0.00     0.127 HD
ENDBRANCH   3  22
BRANCH   1  25
HETATM   25  N   UNL     1      25.424  46.474  51.636  1.00  0.00    -0.185 N 
HETATM   26  H   UNL     1      24.972  45.603  51.378  1.00  0.00     0.184 HD
BRANCH  25  27
HETATM   27  C   UNL     1      26.090  46.426  52.876  1.00  0.00     0.084 A 
HETATM   28  C   UNL     1      26.868  45.289  53.192  1.00  0.00     0.095 A 
HETATM   29  C   UNL     1      27.534  45.210  54.421  1.00  0.00     0.041 A 
HETATM   30  C   UNL     1      27.406  46.240  55.355  1.00  0.00     0.026 A 
HETATM   31  C   UNL     1      26.613  47.344  55.062  1.00  0.00     0.036 A 
HETATM   32  C   UNL     1      25.954  47.437  53.836  1.00  0.00     0.056 A 
HETATM   33 CL   UNL     1      26.439  48.609  56.214  1.00  0.00    -0.084 Cl
BRANCH  28  34
HETATM   34  O   UNL     1      26.912  44.319  52.218  1.00  0.00    -0.354 OA
HETATM   35  C   UNL     1      28.201  43.814  51.882  1.00  0.00     0.210 C 
ENDBRANCH  28  34
ENDBRANCH  25  27
ENDBRANCH   1  25
TORSDOF 7
ENDMDL
MODEL 6
REMARK VINA RESULT:      -9.0      2.207      3.847
REMARK  7 active torsions:
REMARK  status: ('A' for Active; 'I' for Inactive)
REMARK    1  A    between atoms: O_2  and  C_3 
REMARK    2  A    between atoms: C_4  and  N_5 
REMARK    3  A    between atoms: N_5  and  C_6 
REMARK    4  A    between atoms: C_8  and  N_9 
REMARK    5  A    between atoms: C_11  and  C_12 
REMARK    6  A    between atoms: C_12  and  N_13 
REMARK    7  A    between atoms: N_17  and  C_18 
ROOT
HETATM    1  C   UNL     1      27.826  42.601  52.753  1.00  0.00     0.731 A 
HETATM    2  N   UNL     1      28.312  41.375  52.599  1.00  0.00    -0.031 NA
HETATM    3  C   UNL     1      28.354  40.902  51.366  1.00  0.00     0.219 A 
HETATM    4  N   UNL     1      27.879  41.528  50.297  1.00  0.00    -0.200 NA
HETATM    5  C   UNL     1      27.372  42.735  50.551  1.00  0.00     0.174 A 
HETATM    6  N   UNL     1      27.322  43.310  51.744  1.00  0.00    -0.045 NA
ENDROOT
BRANCH   5   7
HETATM    7  C   UNL     1      26.565  43.373  49.437  1.00  0.00     0.316 C 
BRANCH   7   8
HETATM    8  N   UNL     1      25.609  44.472  49.939  1.00  0.00    -0.061 N 
HETATM    9  H   UNL     1      25.270  44.095  50.840  1.00  0.00     0.280 HD
HETATM   10  C   UNL     1      26.325  45.782  50.246  1.00  0.00     0.255 C 
HETATM   11  C   UNL     1      25.331  46.794  50.868  1.00  0.00     0.152 C 
HETATM   12  N   UNL     1      24.129  46.981  50.023  1.00  0.00    -0.364 N 
HETATM   13  C   UNL     1      23.458  45.735  49.580  1.00  0.00     0.152 C 
HETATM   14  C   UNL     1      24.438  44.685  49.002  1.00  0.00     0.255 C 
BRANCH  12  15
HETATM   15  C   UNL     1      24.045  48.133  49.270  1.00  0.00     0.102 A 
HETATM   16  N   UNL     1      22.829  48.500  48.827  1.00  0.00    -0.352 N 
HETATM   17  H   UNL     1      22.052  47.877  49.032  1.00  0.00     0.166 HD
HETATM   18  C   UNL     1      22.600  49.589  48.078  1.00  0.00     0.089 A 
HETATM   19  C   UNL     1      23.654  50.412  47.717  1.00  0.00     0.017 A 
HETATM   20  C   UNL     1      24.936  50.075  48.130  1.00  0.00     0.005 A 
HETATM   21  C   UNL     1      25.136  48.929  48.901  1.00  0.00     0.048 A 
ENDBRANCH  12  15
ENDBRANCH   7   8
ENDBRANCH   5   7
BRANCH   3  22
HETATM   22  N   UNL     1      28.873  39.639  51.181  1.00  0.00    -0.270 NA
HETATM   23  H   UNL     1      29.197  39.266  52.069  1.00  0.00     0.127 HD
HETATM   24  H   UNL     1      29.562  39.614  50.441  1.00  0.00     0.127 HD
ENDBRANCH   3  22
BRANCH   1  25
HETATM   25  N   UNL     1      27.756  43.098  54.044  1.00  0.00    -0.185 N 
HETATM   26  H   UNL     1      26.957  42.757  54.567  1.00  0.00     0.184 HD
BRANCH  25  27
HETATM   27  C   UNL     1      28.652  43.869  54.810  1.00  0.00     0.084 A 
HETATM   28  C   UNL     1      28.419  45.257  54.944  1.00  0.00     0.095 A 
HETATM   29  C   UNL     1      29.298  46.050  55.690  1.00  0.00     0.041 A 
HETATM   30  C   UNL     1      30.427  45.480  56.280  1.00  0.00     0.026 A 
HETATM   31  C   UNL     1      30.679  44.122  56.122  1.00  0.00     0.036 A 
HETATM   32  C   UNL     1      29.804  43.321  55.388  1.00  0.00     0.056 A 
HETATM   33 CL   UNL     1      32.077  43.416  56.833  1.00  0.00    -0.084 Cl
BRANCH  28  34
HETATM   34  O   UNL     1      27.295  45.727  54.306  1.00  0.00    -0.354 OA
HETATM   35  C   UNL     1      27.068  47.132  54.372  1.00  0.00     0.210 C 
ENDBRANCH  28  34
ENDBRANCH  25  27
ENDBRANCH   1  25
TORSDOF 7
ENDMDL
MODEL 7
REMARK VINA RESULT:      -9.0      3.011      9.090
REMARK  7 active torsions:
REMARK  status: ('A' for Active; 'I' for Inactive)
REMARK    1  A    between atoms: O_2  and  C_3 
REMARK    2  A    between atoms: C_4  and  N_5 
REMARK    3  A    between atoms: N_5  and  C_6 
REMARK    4  A    between atoms: C_8  and  N_9 
REMARK    5  A    between atoms: C_11  and  C_12 
REMARK    6  A    between atoms: C_12  and  N_13 
REMARK    7  A    between atoms: N_17  and  C_18 
ROOT
HETATM    1  C   UNL     1      24.197  45.537  50.273  1.00  0.00     0.731 A 
HETATM    2  N   UNL     1      24.443  44.734  49.245  1.00  0.00    -0.031 NA
HETATM    3  C   UNL     1      24.901  43.527  49.529  1.00  0.00     0.219 A 
HETATM    4  N   UNL     1      25.199  43.097  50.749  1.00  0.00    -0.200 NA
HETATM    5  C   UNL     1      24.960  43.984  51.715  1.00  0.00     0.174 A 
HETATM    6  N   UNL     1      24.466  45.200  51.533  1.00  0.00    -0.045 NA
ENDROOT
BRANCH   5   7
HETATM    7  C   UNL     1      25.539  43.665  53.079  1.00  0.00     0.316 C 
BRANCH   7   8
HETATM    8  N   UNL     1      26.920  44.307  53.312  1.00  0.00    -0.061 N 
HETATM    9  H   UNL     1      27.085  44.833  52.437  1.00  0.00     0.280 HD
HETATM   10  C   UNL     1      26.914  45.325  54.447  1.00  0.00     0.255 C 
HETATM   11  C   UNL     1      28.293  46.024  54.537  1.00  0.00     0.152 C 
HETATM   12  N   UNL     1      29.402  45.049  54.647  1.00  0.00    -0.364 N 
HETATM   13  C   UNL     1      29.392  43.953  53.648  1.00  0.00     0.152 C 
HETATM   14  C   UNL     1      28.010  43.272  53.501  1.00  0.00     0.255 C 
BRANCH  12  15
HETATM   15  C   UNL     1      29.978  44.868  55.887  1.00  0.00     0.102 A 
HETATM   16  N   UNL     1      29.642  45.732  56.862  1.00  0.00    -0.352 N 
HETATM   17  H   UNL     1      29.021  46.498  56.611  1.00  0.00     0.166 HD
HETATM   18  C   UNL     1      30.132  45.684  58.110  1.00  0.00     0.089 A 
HETATM   19  C   UNL     1      31.042  44.698  58.456  1.00  0.00     0.017 A 
HETATM   20  C   UNL     1      31.440  43.788  57.487  1.00  0.00     0.005 A 
HETATM   21  C   UNL     1      30.916  43.877  56.197  1.00  0.00     0.048 A 
ENDBRANCH  12  15
ENDBRANCH   7   8
ENDBRANCH   5   7
BRANCH   3  22
HETATM   22  N   UNL     1      25.145  42.670  48.479  1.00  0.00    -0.270 NA
HETATM   23  H   UNL     1      26.081  42.827  48.116  1.00  0.00     0.127 HD
HETATM   24  H   UNL     1      24.415  42.704  47.780  1.00  0.00     0.127 HD
ENDBRANCH   3  22
BRANCH   1  25
HETATM   25  N   UNL     1      23.740  46.813  49.985  1.00  0.00    -0.185 N 
HETATM   26  H   UNL     1      22.826  47.014  50.376  1.00  0.00     0.184 HD
BRANCH  25  27
HETATM   27  C   UNL     1      24.358  47.922  49.375  1.00  0.00     0.084 A 
HETATM   28  C   UNL     1      23.577  48.784  48.571  1.00  0.00     0.095 A 
HETATM   29  C   UNL     1      24.165  49.889  47.945  1.00  0.00     0.041 A 
HETATM   30  C   UNL     1      25.533  50.127  48.085  1.00  0.00     0.026 A 
HETATM   31  C   UNL     1      26.311  49.262  48.846  1.00  0.00     0.036 A 
HETATM   32  C   UNL     1      25.733  48.163  49.482  1.00  0.00     0.056 A 
HETATM   33 CL   UNL     1      28.001  49.541  49.010  1.00  0.00    -0.084 Cl
BRANCH  28  34
HETATM   34  O   UNL     1      22.246  48.451  48.476  1.00  0.00    -0.354 OA
HETATM   35  C   UNL     1      21.321  49.351  49.080  1.00  0.00     0.210 C 
ENDBRANCH  28  34
ENDBRANCH  25  27
ENDBRANCH   1  25
TORSDOF 7
ENDMDL
MODEL 8
REMARK VINA RESULT:      -8.8      3.629      9.451
REMARK  7 active torsions:
REMARK  status: ('A' for Active; 'I' for Inactive)
REMARK    1  A    between atoms: O_2  and  C_3 
REMARK    2  A    between atoms: C_4  and  N_5 
REMARK    3  A    between atoms: N_5  and  C_6 
REMARK    4  A    between atoms: C_8  and  N_9 
REMARK    5  A    between atoms: C_11  and  C_12 
REMARK    6  A    between atoms: C_12  and  N_13 
REMARK    7  A    between atoms: N_17  and  C_18 
ROOT
HETATM    1  C   UNL     1      24.407  47.575  49.673  1.00  0.00     0.731 A 
HETATM    2  N   UNL     1      25.271  48.574  49.542  1.00  0.00    -0.031 NA
HETATM    3  C   UNL     1      26.533  48.245  49.324  1.00  0.00     0.219 A 
HETATM    4  N   UNL     1      27.000  47.003  49.305  1.00  0.00    -0.200 NA
HETATM    5  C   UNL     1      26.069  46.066  49.487  1.00  0.00     0.174 A 
HETATM    6  N   UNL     1      24.777  46.295  49.673  1.00  0.00    -0.045 NA
ENDROOT
BRANCH   5   7
HETATM    7  C   UNL     1      26.573  44.662  49.760  1.00  0.00     0.316 C 
BRANCH   7   8
HETATM    8  N   UNL     1      26.541  44.290  51.255  1.00  0.00    -0.061 N 
HETATM    9  H   UNL     1      25.583  43.926  51.386  1.00  0.00     0.280 HD
HETATM   10  C   UNL     1      27.499  43.155  51.601  1.00  0.00     0.255 C 
HETATM   11  C   UNL     1      27.318  42.746  53.084  1.00  0.00     0.152 C 
HETATM   12  N   UNL     1      27.447  43.904  53.997  1.00  0.00    -0.364 N 
HETATM   13  C   UNL     1      26.636  45.094  53.641  1.00  0.00     0.152 C 
HETATM   14  C   UNL     1      26.758  45.493  52.150  1.00  0.00     0.255 C 
BRANCH  12  15
HETATM   15  C   UNL     1      28.624  44.039  54.704  1.00  0.00     0.102 A 
HETATM   16  N   UNL     1      28.796  45.166  55.418  1.00  0.00    -0.352 N 
HETATM   17  H   UNL     1      28.069  45.874  55.352  1.00  0.00     0.166 HD
HETATM   18  C   UNL     1      29.892  45.436  56.143  1.00  0.00     0.089 A 
HETATM   19  C   UNL     1      30.933  44.523  56.185  1.00  0.00     0.017 A 
HETATM   20  C   UNL     1      30.820  43.348  55.454  1.00  0.00     0.005 A 
HETATM   21  C   UNL     1      29.668  43.107  54.704  1.00  0.00     0.048 A 
ENDBRANCH  12  15
ENDBRANCH   7   8
ENDBRANCH   5   7
BRANCH   3  22
HETATM   22  N   UNL     1      27.444  49.266  49.165  1.00  0.00    -0.270 NA
HETATM   23  H   UNL     1      28.380  48.882  49.080  1.00  0.00     0.127 HD
HETATM   24  H   UNL     1      27.347  49.979  49.875  1.00  0.00     0.127 HD
ENDBRANCH   3  22
BRANCH   1  25
HETATM   25  N   UNL     1      23.087  47.908  49.926  1.00  0.00    -0.185 N 
HETATM   26  H   UNL     1      22.835  47.855  50.907  1.00  0.00     0.184 HD
BRANCH  25  27
HETATM   27  C   UNL     1      22.073  48.438  49.104  1.00  0.00     0.084 A 
HETATM   28  C   UNL     1      21.457  47.598  48.147  1.00  0.00     0.095 A 
HETATM   29  C   UNL     1      20.454  48.099  47.311  1.00  0.00     0.041 A 
HETATM   30  C   UNL     1      20.077  49.441  47.395  1.00  0.00     0.026 A 
HETATM   31  C   UNL     1      20.704  50.279  48.310  1.00  0.00     0.036 A 
HETATM   32  C   UNL     1      21.699  49.787  49.155  1.00  0.00     0.056 A 
HETATM   33 CL   UNL     1      20.255  51.937  48.408  1.00  0.00    -0.084 Cl
BRANCH  28  34
HETATM   34  O   UNL     1      21.914  46.301  48.126  1.00  0.00    -0.354 OA
HETATM   35  C   UNL     1      22.061  45.700  46.843  1.00  0.00     0.210 C 
ENDBRANCH  28  34
ENDBRANCH  25  27
ENDBRANCH   1  25
TORSDOF 7
ENDMDL
MODEL 9
REMARK VINA RESULT:      -8.6      2.325      3.575
REMARK  7 active torsions:
REMARK  status: ('A' for Active; 'I' for Inactive)
REMARK    1  A    between atoms: O_2  and  C_3 
REMARK    2  A    between atoms: C_4  and  N_5 
REMARK    3  A    between atoms: N_5  and  C_6 
REMARK    4  A    between atoms: C_8  and  N_9 
REMARK    5  A    between atoms: C_11  and  C_12 
REMARK    6  A    between atoms: C_12  and  N_13 
REMARK    7  A    between atoms: N_17  and  C_18 
ROOT
HETATM    1  C   UNL     1      26.525  45.232  51.207  1.00  0.00     0.731 A 
HETATM    2  N   UNL     1      26.327  45.518  52.489  1.00  0.00    -0.031 NA
HETATM    3  C   UNL     1      25.884  46.731  52.767  1.00  0.00     0.219 A 
HETATM    4  N   UNL     1      25.698  47.694  51.873  1.00  0.00    -0.200 NA
HETATM    5  C   UNL     1      25.961  47.332  50.617  1.00  0.00     0.174 A 
HETATM    6  N   UNL     1      26.371  46.131  50.236  1.00  0.00    -0.045 NA
ENDROOT
BRANCH   5   7
HETATM    7  C   UNL     1      26.044  48.452  49.599  1.00  0.00     0.316 C 
BRANCH   7   8
HETATM    8  N   UNL     1      24.742  48.636  48.796  1.00  0.00    -0.061 N 
HETATM    9  H   UNL     1      24.938  48.135  47.913  1.00  0.00     0.280 HD
HETATM   10  C   UNL     1      23.548  47.943  49.443  1.00  0.00     0.255 C 
HETATM   11  C   UNL     1      22.309  48.055  48.520  1.00  0.00     0.152 C 
HETATM   12  N   UNL     1      22.024  49.458  48.144  1.00  0.00    -0.364 N 
HETATM   13  C   UNL     1      23.181  50.230  47.627  1.00  0.00     0.152 C 
HETATM   14  C   UNL     1      24.449  50.093  48.504  1.00  0.00     0.255 C 
BRANCH  12  15
HETATM   15  C   UNL     1      20.978  50.095  48.779  1.00  0.00     0.102 A 
HETATM   16  N   UNL     1      20.298  49.399  49.708  1.00  0.00    -0.352 N 
HETATM   17  H   UNL     1      20.564  48.428  49.848  1.00  0.00     0.166 HD
HETATM   18  C   UNL     1      19.253  49.887  50.395  1.00  0.00     0.089 A 
HETATM   19  C   UNL     1      18.819  51.181  50.164  1.00  0.00     0.017 A 
HETATM   20  C   UNL     1      19.472  51.943  49.204  1.00  0.00     0.005 A 
HETATM   21  C   UNL     1      20.548  51.398  48.502  1.00  0.00     0.048 A 
ENDBRANCH  12  15
ENDBRANCH   7   8
ENDBRANCH   5   7
BRANCH   3  22
HETATM   22  N   UNL     1      25.653  47.041  54.089  1.00  0.00    -0.270 NA
HETATM   23  H   UNL     1      24.972  46.397  54.480  1.00  0.00     0.127 HD
HETATM   24  H   UNL     1      25.426  48.019  54.219  1.00  0.00     0.127 HD
ENDBRANCH   3  22
BRANCH   1  25
HETATM   25  N   UNL     1      27.013  43.972  50.906  1.00  0.00    -0.185 N 
HETATM   26  H   UNL     1      26.846  43.691  49.946  1.00  0.00     0.184 HD
BRANCH  25  27
HETATM   27  C   UNL     1      27.813  43.070  51.634  1.00  0.00     0.084 A 
HETATM   28  C   UNL     1      27.642  41.682  51.427  1.00  0.00     0.095 A 
HETATM   29  C   UNL     1      28.417  40.762  52.143  1.00  0.00     0.041 A 
HETATM   30  C   UNL     1      29.340  41.211  53.089  1.00  0.00     0.026 A 
HETATM   31  C   UNL     1      29.486  42.573  53.321  1.00  0.00     0.036 A 
HETATM   32  C   UNL     1      28.727  43.499  52.606  1.00  0.00     0.056 A 
HETATM   33 CL   UNL     1      30.611  43.132  54.496  1.00  0.00    -0.084 Cl
BRANCH  28  34
HETATM   34  O   UNL     1      26.692  41.341  50.493  1.00  0.00    -0.354 OA
HETATM   35  C   UNL     1      26.345  39.961  50.414  1.00  0.00     0.210 C 
ENDBRANCH  28  34
ENDBRANCH  25  27
ENDBRANCH   1  25
TORSDOF 7
ENDMDL
MODEL 10
REMARK VINA RESULT:      -8.5      3.473      9.267
REMARK  7 active torsions:
REMARK  status: ('A' for Active; 'I' for Inactive)
REMARK    1  A    between atoms: O_2  and  C_3 
REMARK    2  A    between atoms: C_4  and  N_5 
REMARK    3  A    between atoms: N_5  and  C_6 
REMARK    4  A    between atoms: C_8  and  N_9 
REMARK    5  A    between atoms: C_11  and  C_12 
REMARK    6  A    between atoms: C_12  and  N_13 
REMARK    7  A    between atoms: N_17  and  C_18 
ROOT
HETATM    1  C   UNL     1      24.462  47.478  49.651  1.00  0.00     0.731 A 
HETATM    2  N   UNL     1      25.369  48.446  49.593  1.00  0.00    -0.031 NA
HETATM    3  C   UNL     1      26.628  48.074  49.442  1.00  0.00     0.219 A 
HETATM    4  N   UNL     1      27.050  46.816  49.420  1.00  0.00    -0.200 NA
HETATM    5  C   UNL     1      26.076  45.911  49.526  1.00  0.00     0.174 A 
HETATM    6  N   UNL     1      24.785  46.185  49.641  1.00  0.00    -0.045 NA
ENDROOT
BRANCH   5   7
HETATM    7  C   UNL     1      26.511  44.484  49.793  1.00  0.00     0.316 C 
BRANCH   7   8
HETATM    8  N   UNL     1      26.515  44.126  51.292  1.00  0.00    -0.061 N 
HETATM    9  H   UNL     1      25.602  43.659  51.424  1.00  0.00     0.280 HD
HETATM   10  C   UNL     1      27.591  43.108  51.653  1.00  0.00     0.255 C 
HETATM   11  C   UNL     1      27.451  42.696  53.139  1.00  0.00     0.152 C 
HETATM   12  N   UNL     1      27.447  43.871  54.041  1.00  0.00    -0.364 N 
HETATM   13  C   UNL     1      26.511  44.960  53.669  1.00  0.00     0.152 C 
HETATM   14  C   UNL     1      26.594  45.354  52.175  1.00  0.00     0.255 C 
BRANCH  12  15
HETATM   15  C   UNL     1      28.599  44.142  54.749  1.00  0.00     0.102 A 
HETATM   16  N   UNL     1      29.549  43.190  54.779  1.00  0.00    -0.352 N 
HETATM   17  H   UNL     1      29.339  42.308  54.319  1.00  0.00     0.166 HD
HETATM   18  C   UNL     1      30.713  43.312  55.437  1.00  0.00     0.089 A 
HETATM   19  C   UNL     1      30.990  44.473  56.139  1.00  0.00     0.017 A 
HETATM   20  C   UNL     1      30.039  45.484  56.159  1.00  0.00     0.005 A 
HETATM   21  C   UNL     1      28.836  45.317  55.471  1.00  0.00     0.048 A 
ENDBRANCH  12  15
ENDBRANCH   7   8
ENDBRANCH   5   7
BRANCH   3  22
HETATM   22  N   UNL     1      27.584  49.063  49.359  1.00  0.00    -0.270 NA
HETATM   23  H   UNL     1      27.897  49.318  50.291  1.00  0.00     0.127 HD
HETATM   24  H   UNL     1      27.278  49.844  48.793  1.00  0.00     0.127 HD
ENDBRANCH   3  22
BRANCH   1  25
HETATM   25  N   UNL     1      23.143  47.856  49.834  1.00  0.00    -0.185 N 
HETATM   26  H   UNL     1      22.931  48.141  50.784  1.00  0.00     0.184 HD
BRANCH  25  27
HETATM   27  C   UNL     1      22.082  48.052  48.929  1.00  0.00     0.084 A 
HETATM   28  C   UNL     1      21.591  49.362  48.723  1.00  0.00     0.095 A 
HETATM   29  C   UNL     1      20.531  49.585  47.836  1.00  0.00     0.041 A 
HETATM   30  C   UNL     1      19.933  48.512  47.175  1.00  0.00     0.026 A 
HETATM   31  C   UNL     1      20.389  47.219  47.401  1.00  0.00     0.036 A 
HETATM   32  C   UNL     1      21.451  46.986  48.275  1.00  0.00     0.056 A 
HETATM   33 CL   UNL     1      19.646  45.890  46.601  1.00  0.00    -0.084 Cl
BRANCH  28  34
HETATM   34  O   UNL     1      22.230  50.347  49.438  1.00  0.00    -0.354 OA
HETATM   35  C   UNL     1      23.105  51.199  48.704  1.00  0.00     0.210 C 
ENDBRANCH  28  34
ENDBRANCH  25  27
ENDBRANCH   1  25
TORSDOF 7
ENDMDL
