MODEL 1
REMARK VINA RESULT:      -8.3      0.000      0.000
REMARK  7 active torsions:
REMARK  status: ('A' for Active; 'I' for Inactive)
REMARK    1  A    between atoms: C_4  and  C_5 
REMARK    2  A    between atoms: C_5  and  N_6 
REMARK       I    between atoms: N_6  and  C_7 
REMARK    3  A    between atoms: N_6  and  C_22 
REMARK    4  A    between atoms: C_7  and  C_8 
REMARK    5  A    between atoms: C_13  and  C_14 
REMARK    6  A    between atoms: C_15  and  O_16 
REMARK    7  A    between atoms: C_22  and  C_23 
ROOT
HETATM    1  N   UNL     1      26.553  43.649  52.529  1.00  0.00    -0.343 N 
HETATM    2  C   UNL     1      25.490  44.538  52.380  1.00  0.00     0.235 C 
HETATM    3  O   UNL     1      24.661  44.692  53.280  1.00  0.00    -0.272 OA
ENDROOT
BRANCH   2   4
HETATM    4  C   UNL     1      25.370  45.365  51.112  1.00  0.00     0.195 C 
HETATM    5  C   UNL     1      25.496  46.828  51.413  1.00  0.00     0.247 C 
HETATM    6  O   UNL     1      26.291  47.359  52.168  1.00  0.00    -0.271 OA
HETATM    7  N   UNL     1      24.602  47.494  50.598  1.00  0.00    -0.290 N 
HETATM    8  N   UNL     1      23.766  46.643  49.869  1.00  0.00    -0.228 NA
HETATM    9  H   UNL     1      24.447  48.494  50.696  1.00  0.00     0.183 HD
HETATM   10  C   UNL     1      23.952  45.300  50.501  1.00  0.00     0.134 C 
HETATM   11  H   UNL     1      24.149  46.596  48.915  1.00  0.00     0.147 HD
BRANCH  10  12
HETATM   12  C   UNL     1      23.686  44.177  49.504  1.00  0.00    -0.004 A 
HETATM   13  C   UNL     1      23.414  42.861  49.927  1.00  0.00     0.073 A 
HETATM   14  C   UNL     1      23.181  41.831  49.015  1.00  0.00     0.037 A 
HETATM   15  C   UNL     1      23.230  42.086  47.649  1.00  0.00     0.003 A 
HETATM   16  C   UNL     1      23.525  43.368  47.200  1.00  0.00     0.001 A 
HETATM   17  C   UNL     1      23.758  44.398  48.117  1.00  0.00     0.012 A 
BRANCH  13  18
HETATM   18  O   UNL     1      23.355  42.506  51.247  1.00  0.00    -0.360 OA
HETATM   19  H   UNL     1      23.733  41.610  51.350  1.00  0.00     0.217 HD
ENDBRANCH  13  18
ENDBRANCH  10  12
ENDBRANCH   2   4
BRANCH   1  20
HETATM   20  C   UNL     1      26.822  43.149  53.889  1.00  0.00     0.164 C 
BRANCH  20  21
HETATM   21  C   UNL     1      28.113  43.682  54.471  1.00  0.00    -0.040 A 
HETATM   22  C   UNL     1      29.261  42.879  54.515  1.00  0.00     0.009 A 
HETATM   23  C   UNL     1      30.445  43.368  55.070  1.00  0.00     0.001 A 
HETATM   24  C   UNL     1      30.494  44.663  55.581  1.00  0.00     0.000 A 
HETATM   25  C   UNL     1      29.362  45.474  55.535  1.00  0.00     0.001 A 
HETATM   26  C   UNL     1      28.177  44.988  54.979  1.00  0.00     0.009 A 
ENDBRANCH  20  21
ENDBRANCH   1  20
BRANCH   1  27
HETATM   27  C   UNL     1      27.543  43.328  51.488  1.00  0.00     0.164 C 
BRANCH  27  28
HETATM   28  C   UNL     1      27.141  42.203  50.559  1.00  0.00    -0.040 A 
HETATM   29  C   UNL     1      26.757  40.948  51.058  1.00  0.00     0.009 A 
HETATM   30  C   UNL     1      26.366  39.928  50.190  1.00  0.00     0.001 A 
HETATM   31  C   UNL     1      26.340  40.153  48.815  1.00  0.00     0.000 A 
HETATM   32  C   UNL     1      26.704  41.399  48.307  1.00  0.00     0.001 A 
HETATM   33  C   UNL     1      27.097  42.421  49.174  1.00  0.00     0.009 A 
ENDBRANCH  27  28
ENDBRANCH   1  27
TORSDOF 7
ENDMDL
MODEL 2
REMARK VINA RESULT:      -8.3      6.804      9.700
REMARK  7 active torsions:
REMARK  status: ('A' for Active; 'I' for Inactive)
REMARK    1  A    between atoms: C_4  and  C_5 
REMARK    2  A    between atoms: C_5  and  N_6 
REMARK       I    between atoms: N_6  and  C_7 
REMARK    3  A    between atoms: N_6  and  C_22 
REMARK    4  A    between atoms: C_7  and  C_8 
REMARK    5  A    between atoms: C_13  and  C_14 
REMARK    6  A    between atoms: C_15  and  O_16 
REMARK    7  A    between atoms: C_22  and  C_23 
ROOT
HETATM    1  N   UNL     1      20.935  48.030  48.222  1.00  0.00    -0.343 N 
HETATM    2  C   UNL     1      20.154  47.282  47.345  1.00  0.00     0.235 C 
HETATM    3  O   UNL     1      20.615  46.869  46.277  1.00  0.00    -0.272 OA
ENDROOT
BRANCH   2   4
HETATM    4  C   UNL     1      18.727  46.924  47.721  1.00  0.00     0.195 C 
HETATM    5  C   UNL     1      18.547  45.436  47.788  1.00  0.00     0.247 C 
HETATM    6  O   UNL     1      19.311  44.623  48.278  1.00  0.00    -0.271 OA
HETATM    7  N   UNL     1      17.298  45.150  47.275  1.00  0.00    -0.290 N 
HETATM    8  N   UNL     1      16.650  46.260  46.725  1.00  0.00    -0.228 NA
HETATM    9  H   UNL     1      16.996  44.190  47.134  1.00  0.00     0.183 HD
HETATM   10  C   UNL     1      17.715  47.304  46.617  1.00  0.00     0.134 C 
HETATM   11  H   UNL     1      15.966  46.581  47.424  1.00  0.00     0.147 HD
BRANCH  10  12
HETATM   12  C   UNL     1      17.124  48.709  46.685  1.00  0.00    -0.004 A 
HETATM   13  C   UNL     1      16.057  49.021  47.549  1.00  0.00     0.073 A 
HETATM   14  C   UNL     1      15.509  50.303  47.604  1.00  0.00     0.037 A 
HETATM   15  C   UNL     1      16.004  51.308  46.780  1.00  0.00     0.003 A 
HETATM   16  C   UNL     1      17.036  51.024  45.894  1.00  0.00     0.001 A 
HETATM   17  C   UNL     1      17.584  49.737  45.843  1.00  0.00     0.012 A 
BRANCH  13  18
HETATM   18  O   UNL     1      15.493  48.102  48.391  1.00  0.00    -0.360 OA
HETATM   19  H   UNL     1      15.757  48.310  49.309  1.00  0.00     0.217 HD
ENDBRANCH  13  18
ENDBRANCH  10  12
ENDBRANCH   2   4
BRANCH   1  20
HETATM   20  C   UNL     1      22.389  48.044  47.980  1.00  0.00     0.164 C 
BRANCH  20  21
HETATM   21  C   UNL     1      23.159  47.181  48.955  1.00  0.00    -0.040 A 
HETATM   22  C   UNL     1      24.040  47.761  49.879  1.00  0.00     0.009 A 
HETATM   23  C   UNL     1      24.764  46.961  50.764  1.00  0.00     0.001 A 
HETATM   24  C   UNL     1      24.611  45.576  50.739  1.00  0.00     0.000 A 
HETATM   25  C   UNL     1      23.731  44.989  49.832  1.00  0.00     0.001 A 
HETATM   26  C   UNL     1      23.005  45.787  48.946  1.00  0.00     0.009 A 
ENDBRANCH  20  21
ENDBRANCH   1  20
BRANCH   1  27
HETATM   27  C   UNL     1      20.458  48.639  49.474  1.00  0.00     0.164 C 
BRANCH  27  28
HETATM   28  C   UNL     1      19.770  49.977  49.305  1.00  0.00    -0.040 A 
HETATM   29  C   UNL     1      18.615  50.299  50.035  1.00  0.00     0.009 A 
HETATM   30  C   UNL     1      18.005  51.545  49.885  1.00  0.00     0.001 A 
HETATM   31  C   UNL     1      18.549  52.489  49.016  1.00  0.00     0.000 A 
HETATM   32  C   UNL     1      19.704  52.188  48.298  1.00  0.00     0.001 A 
HETATM   33  C   UNL     1      20.315  50.941  48.444  1.00  0.00     0.009 A 
ENDBRANCH  27  28
ENDBRANCH   1  27
TORSDOF 7
ENDMDL
MODEL 3
REMARK VINA RESULT:      -8.1     17.312     19.502
REMARK  7 active torsions:
REMARK  status: ('A' for Active; 'I' for Inactive)
REMARK    1  A    between atoms: C_4  and  C_5 
REMARK    2  A    between atoms: C_5  and  N_6 
REMARK       I    between atoms: N_6  and  C_7 
REMARK    3  A    between atoms: N_6  and  C_22 
REMARK    4  A    between atoms: C_7  and  C_8 
REMARK    5  A    between atoms: C_13  and  C_14 
REMARK    6  A    between atoms: C_15  and  O_16 
REMARK    7  A    between atoms: C_22  and  C_23 
ROOT
HETATM    1  N   UNL     1      37.960  44.413  64.590  1.00  0.00    -0.343 N 
HETATM    2  C   UNL     1      36.786  45.068  64.952  1.00  0.00     0.235 C 
HETATM    3  O   UNL     1      35.851  45.184  64.154  1.00  0.00    -0.272 OA
ENDROOT
BRANCH   2   4
HETATM    4  C   UNL     1      36.627  45.609  66.362  1.00  0.00     0.195 C 
HETATM    5  C   UNL     1      35.671  44.769  67.154  1.00  0.00     0.247 C 
HETATM    6  O   UNL     1      35.606  43.552  67.179  1.00  0.00    -0.271 OA
HETATM    7  N   UNL     1      34.927  45.624  67.942  1.00  0.00    -0.290 N 
HETATM    8  N   UNL     1      35.160  46.977  67.677  1.00  0.00    -0.228 NA
HETATM    9  H   UNL     1      34.148  45.282  68.498  1.00  0.00     0.183 HD
HETATM   10  C   UNL     1      35.919  46.982  66.387  1.00  0.00     0.134 C 
HETATM   11  H   UNL     1      35.791  47.320  68.414  1.00  0.00     0.147 HD
BRANCH  10  12
HETATM   12  C   UNL     1      36.810  48.215  66.274  1.00  0.00    -0.004 A 
HETATM   13  C   UNL     1      37.314  48.653  65.035  1.00  0.00     0.073 A 
HETATM   14  C   UNL     1      38.138  49.774  64.932  1.00  0.00     0.037 A 
HETATM   15  C   UNL     1      38.495  50.483  66.074  1.00  0.00     0.003 A 
HETATM   16  C   UNL     1      38.038  50.058  67.316  1.00  0.00     0.001 A 
HETATM   17  C   UNL     1      37.212  48.934  67.415  1.00  0.00     0.012 A 
BRANCH  13  18
HETATM   18  O   UNL     1      37.030  48.019  63.856  1.00  0.00    -0.360 OA
HETATM   19  H   UNL     1      37.814  47.506  63.576  1.00  0.00     0.217 HD
ENDBRANCH  13  18
ENDBRANCH  10  12
ENDBRANCH   2   4
BRANCH   1  20
HETATM   20  C   UNL     1      37.925  43.608  63.356  1.00  0.00     0.164 C 
BRANCH  20  21
HETATM   21  C   UNL     1      38.315  42.164  63.579  1.00  0.00    -0.040 A 
HETATM   22  C   UNL     1      37.782  41.439  64.655  1.00  0.00     0.009 A 
HETATM   23  C   UNL     1      38.159  40.113  64.870  1.00  0.00     0.001 A 
HETATM   24  C   UNL     1      39.067  39.496  64.010  1.00  0.00     0.000 A 
HETATM   25  C   UNL     1      39.596  40.203  62.932  1.00  0.00     0.001 A 
HETATM   26  C   UNL     1      39.220  41.530  62.715  1.00  0.00     0.009 A 
ENDBRANCH  20  21
ENDBRANCH   1  20
BRANCH   1  27
HETATM   27  C   UNL     1      39.162  44.296  65.433  1.00  0.00     0.164 C 
BRANCH  27  28
HETATM   28  C   UNL     1      39.896  45.597  65.671  1.00  0.00    -0.040 A 
HETATM   29  C   UNL     1      40.378  46.368  64.601  1.00  0.00     0.009 A 
HETATM   30  C   UNL     1      41.032  47.578  64.836  1.00  0.00     0.001 A 
HETATM   31  C   UNL     1      41.200  48.039  66.140  1.00  0.00     0.000 A 
HETATM   32  C   UNL     1      40.712  47.292  67.210  1.00  0.00     0.001 A 
HETATM   33  C   UNL     1      40.060  46.080  66.978  1.00  0.00     0.009 A 
ENDBRANCH  27  28
ENDBRANCH   1  27
TORSDOF 7
ENDMDL
MODEL 4
REMARK VINA RESULT:      -7.9     17.093     19.244
REMARK  7 active torsions:
REMARK  status: ('A' for Active; 'I' for Inactive)
REMARK    1  A    between atoms: C_4  and  C_5 
REMARK    2  A    between atoms: C_5  and  N_6 
REMARK       I    between atoms: N_6  and  C_7 
REMARK    3  A    between atoms: N_6  and  C_22 
REMARK    4  A    between atoms: C_7  and  C_8 
REMARK    5  A    between atoms: C_13  and  C_14 
REMARK    6  A    between atoms: C_15  and  O_16 
REMARK    7  A    between atoms: C_22  and  C_23 
ROOT
HETATM    1  N   UNL     1      39.236  43.471  64.589  1.00  0.00    -0.343 N 
HETATM    2  C   UNL     1      37.890  43.390  64.238  1.00  0.00     0.235 C 
HETATM    3  O   UNL     1      37.549  43.039  63.105  1.00  0.00    -0.272 OA
ENDROOT
BRANCH   2   4
HETATM    4  C   UNL     1      36.821  43.694  65.272  1.00  0.00     0.195 C 
HETATM    5  C   UNL     1      35.845  42.561  65.382  1.00  0.00     0.247 C 
HETATM    6  O   UNL     1      36.099  41.369  65.401  1.00  0.00    -0.271 OA
HETATM    7  N   UNL     1      34.593  43.113  65.561  1.00  0.00    -0.290 N 
HETATM    8  N   UNL     1      34.571  44.505  65.441  1.00  0.00    -0.228 NA
HETATM    9  H   UNL     1      33.758  42.531  65.567  1.00  0.00     0.183 HD
HETATM   10  C   UNL     1      35.895  44.852  64.838  1.00  0.00     0.134 C 
HETATM   11  H   UNL     1      34.552  44.886  66.397  1.00  0.00     0.147 HD
BRANCH  10  12
HETATM   12  C   UNL     1      36.331  46.261  65.229  1.00  0.00    -0.004 A 
HETATM   13  C   UNL     1      36.787  47.187  64.272  1.00  0.00     0.073 A 
HETATM   14  C   UNL     1      37.195  48.472  64.631  1.00  0.00     0.037 A 
HETATM   15  C   UNL     1      37.173  48.863  65.965  1.00  0.00     0.003 A 
HETATM   16  C   UNL     1      36.757  47.961  66.938  1.00  0.00     0.001 A 
HETATM   17  C   UNL     1      36.348  46.674  66.574  1.00  0.00     0.012 A 
BRANCH  13  18
HETATM   18  O   UNL     1      36.856  46.898  62.937  1.00  0.00    -0.360 OA
HETATM   19  H   UNL     1      36.054  47.242  62.497  1.00  0.00     0.217 HD
ENDBRANCH  13  18
ENDBRANCH  10  12
ENDBRANCH   2   4
BRANCH   1  20
HETATM   20  C   UNL     1      40.204  42.833  63.679  1.00  0.00     0.164 C 
BRANCH  20  21
HETATM   21  C   UNL     1      40.285  41.333  63.858  1.00  0.00    -0.040 A 
HETATM   22  C   UNL     1      39.672  40.471  62.937  1.00  0.00     0.009 A 
HETATM   23  C   UNL     1      39.732  39.088  63.116  1.00  0.00     0.001 A 
HETATM   24  C   UNL     1      40.407  38.553  64.211  1.00  0.00     0.000 A 
HETATM   25  C   UNL     1      41.028  39.399  65.128  1.00  0.00     0.001 A 
HETATM   26  C   UNL     1      40.970  40.783  64.951  1.00  0.00     0.009 A 
ENDBRANCH  20  21
ENDBRANCH   1  20
BRANCH   1  27
HETATM   27  C   UNL     1      39.749  43.959  65.879  1.00  0.00     0.164 C 
BRANCH  27  28
HETATM   28  C   UNL     1      40.108  45.429  65.901  1.00  0.00    -0.040 A 
HETATM   29  C   UNL     1      40.314  46.146  64.711  1.00  0.00     0.009 A 
HETATM   30  C   UNL     1      40.621  47.507  64.746  1.00  0.00     0.001 A 
HETATM   31  C   UNL     1      40.713  48.171  65.968  1.00  0.00     0.000 A 
HETATM   32  C   UNL     1      40.495  47.475  67.155  1.00  0.00     0.001 A 
HETATM   33  C   UNL     1      40.190  46.113  67.122  1.00  0.00     0.009 A 
ENDBRANCH  27  28
ENDBRANCH   1  27
TORSDOF 7
ENDMDL
MODEL 5
REMARK VINA RESULT:      -7.8     11.705     13.116
REMARK  7 active torsions:
REMARK  status: ('A' for Active; 'I' for Inactive)
REMARK    1  A    between atoms: C_4  and  C_5 
REMARK    2  A    between atoms: C_5  and  N_6 
REMARK       I    between atoms: N_6  and  C_7 
REMARK    3  A    between atoms: N_6  and  C_22 
REMARK    4  A    between atoms: C_7  and  C_8 
REMARK    5  A    between atoms: C_13  and  C_14 
REMARK    6  A    between atoms: C_15  and  O_16 
REMARK    7  A    between atoms: C_22  and  C_23 
ROOT
HETATM    1  N   UNL     1      30.429  48.933  41.082  1.00  0.00    -0.343 N 
HETATM    2  C   UNL     1      29.666  50.057  40.775  1.00  0.00     0.235 C 
HETATM    3  O   UNL     1      29.273  50.820  41.663  1.00  0.00    -0.272 OA
ENDROOT
BRANCH   2   4
HETATM    4  C   UNL     1      29.346  50.380  39.327  1.00  0.00     0.195 C 
HETATM    5  C   UNL     1      30.114  51.582  38.864  1.00  0.00     0.247 C 
HETATM    6  O   UNL     1      31.285  51.840  39.087  1.00  0.00    -0.271 OA
HETATM    7  N   UNL     1      29.278  52.313  38.043  1.00  0.00    -0.290 N 
HETATM    8  N   UNL     1      27.968  51.828  38.003  1.00  0.00    -0.228 NA
HETATM    9  H   UNL     1      29.557  53.224  37.687  1.00  0.00     0.183 HD
HETATM   10  C   UNL     1      27.889  50.858  39.139  1.00  0.00     0.134 C 
HETATM   11  H   UNL     1      27.876  51.294  37.128  1.00  0.00     0.147 HD
BRANCH  10  12
HETATM   12  C   UNL     1      26.843  49.780  38.876  1.00  0.00    -0.004 A 
HETATM   13  C   UNL     1      26.245  49.057  39.926  1.00  0.00     0.073 A 
HETATM   14  C   UNL     1      25.296  48.064  39.686  1.00  0.00     0.037 A 
HETATM   15  C   UNL     1      24.927  47.753  38.381  1.00  0.00     0.003 A 
HETATM   16  C   UNL     1      25.521  48.428  37.321  1.00  0.00     0.001 A 
HETATM   17  C   UNL     1      26.473  49.424  37.566  1.00  0.00     0.012 A 
BRANCH  13  18
HETATM   18  O   UNL     1      26.546  49.279  41.242  1.00  0.00    -0.360 OA
HETATM   19  H   UNL     1      27.119  50.069  41.307  1.00  0.00     0.217 HD
ENDBRANCH  13  18
ENDBRANCH  10  12
ENDBRANCH   2   4
BRANCH   1  20
HETATM   20  C   UNL     1      31.003  48.863  42.438  1.00  0.00     0.164 C 
BRANCH  20  21
HETATM   21  C   UNL     1      32.194  49.777  42.624  1.00  0.00    -0.040 A 
HETATM   22  C   UNL     1      32.168  50.795  43.588  1.00  0.00     0.009 A 
HETATM   23  C   UNL     1      33.261  51.649  43.744  1.00  0.00     0.001 A 
HETATM   24  C   UNL     1      34.391  51.491  42.943  1.00  0.00     0.000 A 
HETATM   25  C   UNL     1      34.432  50.477  41.989  1.00  0.00     0.001 A 
HETATM   26  C   UNL     1      33.340  49.621  41.831  1.00  0.00     0.009 A 
ENDBRANCH  20  21
ENDBRANCH   1  20
BRANCH   1  27
HETATM   27  C   UNL     1      30.872  47.917  40.113  1.00  0.00     0.164 C 
BRANCH  27  28
HETATM   28  C   UNL     1      29.766  47.041  39.566  1.00  0.00    -0.040 A 
HETATM   29  C   UNL     1      28.841  46.418  40.419  1.00  0.00     0.009 A 
HETATM   30  C   UNL     1      27.812  45.632  39.899  1.00  0.00     0.001 A 
HETATM   31  C   UNL     1      27.687  45.470  38.520  1.00  0.00     0.000 A 
HETATM   32  C   UNL     1      28.588  46.095  37.662  1.00  0.00     0.001 A 
HETATM   33  C   UNL     1      29.620  46.880  38.181  1.00  0.00     0.009 A 
ENDBRANCH  27  28
ENDBRANCH   1  27
TORSDOF 7
ENDMDL
MODEL 6
REMARK VINA RESULT:      -7.8      5.636      9.034
REMARK  7 active torsions:
REMARK  status: ('A' for Active; 'I' for Inactive)
REMARK    1  A    between atoms: C_4  and  C_5 
REMARK    2  A    between atoms: C_5  and  N_6 
REMARK       I    between atoms: N_6  and  C_7 
REMARK    3  A    between atoms: N_6  and  C_22 
REMARK    4  A    between atoms: C_7  and  C_8 
REMARK    5  A    between atoms: C_13  and  C_14 
REMARK    6  A    between atoms: C_15  and  O_16 
REMARK    7  A    between atoms: C_22  and  C_23 
ROOT
HETATM    1  N   UNL     1      20.550  48.620  49.011  1.00  0.00    -0.343 N 
HETATM    2  C   UNL     1      19.490  47.732  49.175  1.00  0.00     0.235 C 
HETATM    3  O   UNL     1      18.776  47.775  50.181  1.00  0.00    -0.272 OA
ENDROOT
BRANCH   2   4
HETATM    4  C   UNL     1      19.172  46.725  48.084  1.00  0.00     0.195 C 
HETATM    5  C   UNL     1      17.690  46.583  47.901  1.00  0.00     0.247 C 
HETATM    6  O   UNL     1      16.861  47.476  47.880  1.00  0.00    -0.271 OA
HETATM    7  N   UNL     1      17.433  45.249  47.657  1.00  0.00    -0.290 N 
HETATM    8  N   UNL     1      18.554  44.426  47.796  1.00  0.00    -0.228 NA
HETATM    9  H   UNL     1      16.479  44.901  47.594  1.00  0.00     0.183 HD
HETATM   10  C   UNL     1      19.570  45.285  48.480  1.00  0.00     0.134 C 
HETATM   11  H   UNL     1      18.898  44.230  46.846  1.00  0.00     0.147 HD
BRANCH  10  12
HETATM   12  C   UNL     1      20.989  44.847  48.135  1.00  0.00    -0.004 A 
HETATM   13  C   UNL     1      21.861  44.328  49.111  1.00  0.00     0.073 A 
HETATM   14  C   UNL     1      23.163  43.937  48.798  1.00  0.00     0.037 A 
HETATM   15  C   UNL     1      23.637  44.070  47.498  1.00  0.00     0.003 A 
HETATM   16  C   UNL     1      22.811  44.607  46.517  1.00  0.00     0.001 A 
HETATM   17  C   UNL     1      21.506  44.997  46.835  1.00  0.00     0.012 A 
BRANCH  13  18
HETATM   18  O   UNL     1      21.495  44.168  50.420  1.00  0.00    -0.360 OA
HETATM   19  H   UNL     1      20.756  44.775  50.618  1.00  0.00     0.217 HD
ENDBRANCH  13  18
ENDBRANCH  10  12
ENDBRANCH   2   4
BRANCH   1  20
HETATM   20  C   UNL     1      20.593  49.787  49.910  1.00  0.00     0.164 C 
BRANCH  20  21
HETATM   21  C   UNL     1      19.623  50.877  49.511  1.00  0.00    -0.040 A 
HETATM   22  C   UNL     1      18.418  51.050  50.208  1.00  0.00     0.009 A 
HETATM   23  C   UNL     1      17.517  52.045  49.824  1.00  0.00     0.001 A 
HETATM   24  C   UNL     1      17.812  52.878  48.747  1.00  0.00     0.000 A 
HETATM   25  C   UNL     1      19.011  52.722  48.054  1.00  0.00     0.001 A 
HETATM   26  C   UNL     1      19.914  51.728  48.435  1.00  0.00     0.009 A 
ENDBRANCH  20  21
ENDBRANCH   1  20
BRANCH   1  27
HETATM   27  C   UNL     1      21.510  48.598  47.895  1.00  0.00     0.164 C 
BRANCH  27  28
HETATM   28  C   UNL     1      22.964  48.679  48.310  1.00  0.00    -0.040 A 
HETATM   29  C   UNL     1      23.775  49.756  47.918  1.00  0.00     0.009 A 
HETATM   30  C   UNL     1      25.106  49.828  48.328  1.00  0.00     0.001 A 
HETATM   31  C   UNL     1      25.640  48.834  49.146  1.00  0.00     0.000 A 
HETATM   32  C   UNL     1      24.841  47.768  49.556  1.00  0.00     0.001 A 
HETATM   33  C   UNL     1      23.509  47.693  49.145  1.00  0.00     0.009 A 
ENDBRANCH  27  28
ENDBRANCH   1  27
TORSDOF 7
ENDMDL
MODEL 7
REMARK VINA RESULT:      -7.7     11.698     13.988
REMARK  7 active torsions:
REMARK  status: ('A' for Active; 'I' for Inactive)
REMARK    1  A    between atoms: C_4  and  C_5 
REMARK    2  A    between atoms: C_5  and  N_6 
REMARK       I    between atoms: N_6  and  C_7 
REMARK    3  A    between atoms: N_6  and  C_22 
REMARK    4  A    between atoms: C_7  and  C_8 
REMARK    5  A    between atoms: C_13  and  C_14 
REMARK    6  A    between atoms: C_15  and  O_16 
REMARK    7  A    between atoms: C_22  and  C_23 
ROOT
HETATM    1  N   UNL     1      29.075  47.320  39.311  1.00  0.00    -0.343 N 
HETATM    2  C   UNL     1      27.855  47.788  38.831  1.00  0.00     0.235 C 
HETATM    3  O   UNL     1      27.476  47.519  37.687  1.00  0.00    -0.272 OA
ENDROOT
BRANCH   2   4
HETATM    4  C   UNL     1      26.949  48.604  39.736  1.00  0.00     0.195 C 
HETATM    5  C   UNL     1      25.600  47.962  39.864  1.00  0.00     0.247 C 
HETATM    6  O   UNL     1      25.359  46.776  40.013  1.00  0.00    -0.271 OA
HETATM    7  N   UNL     1      24.663  48.975  39.883  1.00  0.00    -0.290 N 
HETATM    8  N   UNL     1      25.201  50.241  39.634  1.00  0.00    -0.228 NA
HETATM    9  H   UNL     1      23.667  48.770  39.869  1.00  0.00     0.183 HD
HETATM   10  C   UNL     1      26.579  49.971  39.119  1.00  0.00     0.134 C 
HETATM   11  H   UNL     1      25.293  50.709  40.547  1.00  0.00     0.147 HD
BRANCH  10  12
HETATM   12  C   UNL     1      27.520  51.134  39.417  1.00  0.00    -0.004 A 
HETATM   13  C   UNL     1      27.783  51.554  40.735  1.00  0.00     0.073 A 
HETATM   14  C   UNL     1      28.635  52.624  41.008  1.00  0.00     0.037 A 
HETATM   15  C   UNL     1      29.238  53.319  39.964  1.00  0.00     0.003 A 
HETATM   16  C   UNL     1      28.974  52.948  38.651  1.00  0.00     0.001 A 
HETATM   17  C   UNL     1      28.120  51.874  38.382  1.00  0.00     0.012 A 
BRANCH  13  18
HETATM   18  O   UNL     1      27.233  50.945  41.829  1.00  0.00    -0.360 OA
HETATM   19  H   UNL     1      26.411  51.414  42.073  1.00  0.00     0.217 HD
ENDBRANCH  13  18
ENDBRANCH  10  12
ENDBRANCH   2   4
BRANCH   1  20
HETATM   20  C   UNL     1      29.737  46.257  38.534  1.00  0.00     0.164 C 
BRANCH  20  21
HETATM   21  C   UNL     1      29.173  44.881  38.814  1.00  0.00    -0.040 A 
HETATM   22  C   UNL     1      29.533  43.786  38.016  1.00  0.00     0.009 A 
HETATM   23  C   UNL     1      28.994  42.523  38.265  1.00  0.00     0.001 A 
HETATM   24  C   UNL     1      28.097  42.340  39.315  1.00  0.00     0.000 A 
HETATM   25  C   UNL     1      27.739  43.419  40.121  1.00  0.00     0.001 A 
HETATM   26  C   UNL     1      28.276  44.683  39.875  1.00  0.00     0.009 A 
ENDBRANCH  20  21
ENDBRANCH   1  20
BRANCH   1  27
HETATM   27  C   UNL     1      29.656  47.654  40.622  1.00  0.00     0.164 C 
BRANCH  27  28
HETATM   28  C   UNL     1      30.523  48.894  40.632  1.00  0.00    -0.040 A 
HETATM   29  C   UNL     1      31.024  49.442  39.440  1.00  0.00     0.009 A 
HETATM   30  C   UNL     1      31.803  50.600  39.463  1.00  0.00     0.001 A 
HETATM   31  C   UNL     1      32.079  51.232  40.674  1.00  0.00     0.000 A 
HETATM   32  C   UNL     1      31.574  50.708  41.862  1.00  0.00     0.001 A 
HETATM   33  C   UNL     1      30.797  49.548  41.842  1.00  0.00     0.009 A 
ENDBRANCH  27  28
ENDBRANCH   1  27
TORSDOF 7
ENDMDL
MODEL 8
REMARK VINA RESULT:      -7.6     10.631     13.237
REMARK  7 active torsions:
REMARK  status: ('A' for Active; 'I' for Inactive)
REMARK    1  A    between atoms: C_4  and  C_5 
REMARK    2  A    between atoms: C_5  and  N_6 
REMARK       I    between atoms: N_6  and  C_7 
REMARK    3  A    between atoms: N_6  and  C_22 
REMARK    4  A    between atoms: C_7  and  C_8 
REMARK    5  A    between atoms: C_13  and  C_14 
REMARK    6  A    between atoms: C_15  and  O_16 
REMARK    7  A    between atoms: C_22  and  C_23 
ROOT
HETATM    1  N   UNL     1      27.754  47.036  40.042  1.00  0.00    -0.343 N 
HETATM    2  C   UNL     1      26.976  47.583  39.025  1.00  0.00     0.235 C 
HETATM    3  O   UNL     1      26.740  46.947  37.993  1.00  0.00    -0.272 OA
ENDROOT
BRANCH   2   4
HETATM    4  C   UNL     1      26.367  48.963  39.198  1.00  0.00     0.195 C 
HETATM    5  C   UNL     1      24.999  49.027  38.587  1.00  0.00     0.247 C 
HETATM    6  O   UNL     1      24.120  48.185  38.660  1.00  0.00    -0.271 OA
HETATM    7  N   UNL     1      24.869  50.269  37.999  1.00  0.00    -0.290 N 
HETATM    8  N   UNL     1      26.048  51.020  38.007  1.00  0.00    -0.228 NA
HETATM    9  H   UNL     1      24.052  50.502  37.440  1.00  0.00     0.183 HD
HETATM   10  C   UNL     1      27.116  50.041  38.382  1.00  0.00     0.134 C 
HETATM   11  H   UNL     1      25.962  51.700  38.775  1.00  0.00     0.147 HD
BRANCH  10  12
HETATM   12  C   UNL     1      28.285  50.735  39.074  1.00  0.00    -0.004 A 
HETATM   13  C   UNL     1      28.105  51.498  40.243  1.00  0.00     0.073 A 
HETATM   14  C   UNL     1      29.172  52.142  40.871  1.00  0.00     0.037 A 
HETATM   15  C   UNL     1      30.452  52.053  40.334  1.00  0.00     0.003 A 
HETATM   16  C   UNL     1      30.657  51.332  39.164  1.00  0.00     0.001 A 
HETATM   17  C   UNL     1      29.584  50.688  38.538  1.00  0.00     0.012 A 
BRANCH  13  18
HETATM   18  O   UNL     1      26.886  51.656  40.844  1.00  0.00    -0.360 OA
HETATM   19  H   UNL     1      27.024  51.907  41.778  1.00  0.00     0.217 HD
ENDBRANCH  13  18
ENDBRANCH  10  12
ENDBRANCH   2   4
BRANCH   1  20
HETATM   20  C   UNL     1      28.015  45.587  39.980  1.00  0.00     0.164 C 
BRANCH  20  21
HETATM   21  C   UNL     1      27.201  44.795  40.981  1.00  0.00    -0.040 A 
HETATM   22  C   UNL     1      26.237  45.429  41.778  1.00  0.00     0.009 A 
HETATM   23  C   UNL     1      25.503  44.699  42.713  1.00  0.00     0.001 A 
HETATM   24  C   UNL     1      25.720  43.331  42.859  1.00  0.00     0.000 A 
HETATM   25  C   UNL     1      26.668  42.688  42.066  1.00  0.00     0.001 A 
HETATM   26  C   UNL     1      27.404  43.415  41.129  1.00  0.00     0.009 A 
ENDBRANCH  20  21
ENDBRANCH   1  20
BRANCH   1  27
HETATM   27  C   UNL     1      28.164  47.739  41.269  1.00  0.00     0.164 C 
BRANCH  27  28
HETATM   28  C   UNL     1      29.631  48.106  41.325  1.00  0.00    -0.040 A 
HETATM   29  C   UNL     1      30.159  48.836  42.403  1.00  0.00     0.009 A 
HETATM   30  C   UNL     1      31.518  49.146  42.453  1.00  0.00     0.001 A 
HETATM   31  C   UNL     1      32.369  48.720  41.435  1.00  0.00     0.000 A 
HETATM   32  C   UNL     1      31.862  47.982  40.368  1.00  0.00     0.001 A 
HETATM   33  C   UNL     1      30.502  47.672  40.315  1.00  0.00     0.009 A 
ENDBRANCH  27  28
ENDBRANCH   1  27
TORSDOF 7
ENDMDL
MODEL 9
REMARK VINA RESULT:      -7.4      7.190     11.121
REMARK  7 active torsions:
REMARK  status: ('A' for Active; 'I' for Inactive)
REMARK    1  A    between atoms: C_4  and  C_5 
REMARK    2  A    between atoms: C_5  and  N_6 
REMARK       I    between atoms: N_6  and  C_7 
REMARK    3  A    between atoms: N_6  and  C_22 
REMARK    4  A    between atoms: C_7  and  C_8 
REMARK    5  A    between atoms: C_13  and  C_14 
REMARK    6  A    between atoms: C_15  and  O_16 
REMARK    7  A    between atoms: C_22  and  C_23 
ROOT
HETATM    1  N   UNL     1      18.548  46.886  47.407  1.00  0.00    -0.343 N 
HETATM    2  C   UNL     1      19.593  46.947  48.326  1.00  0.00     0.235 C 
HETATM    3  O   UNL     1      19.645  46.166  49.282  1.00  0.00    -0.272 OA
ENDROOT
BRANCH   2   4
HETATM    4  C   UNL     1      20.712  47.954  48.132  1.00  0.00     0.195 C 
HETATM    5  C   UNL     1      22.051  47.279  48.161  1.00  0.00     0.247 C 
HETATM    6  O   UNL     1      22.358  46.227  47.628  1.00  0.00    -0.271 OA
HETATM    7  N   UNL     1      22.921  48.121  48.826  1.00  0.00    -0.290 N 
HETATM    8  N   UNL     1      22.299  49.238  49.390  1.00  0.00    -0.228 NA
HETATM    9  H   UNL     1      23.869  47.827  49.048  1.00  0.00     0.183 HD
HETATM   10  C   UNL     1      20.837  48.930  49.324  1.00  0.00     0.134 C 
HETATM   11  H   UNL     1      22.481  50.030  48.758  1.00  0.00     0.147 HD
BRANCH  10  12
HETATM   12  C   UNL     1      20.004  50.206  49.254  1.00  0.00    -0.004 A 
HETATM   13  C   UNL     1      18.921  50.431  50.125  1.00  0.00     0.073 A 
HETATM   14  C   UNL     1      18.153  51.593  50.055  1.00  0.00     0.037 A 
HETATM   15  C   UNL     1      18.436  52.560  49.096  1.00  0.00     0.003 A 
HETATM   16  C   UNL     1      19.480  52.353  48.202  1.00  0.00     0.001 A 
HETATM   17  C   UNL     1      20.249  51.187  48.276  1.00  0.00     0.012 A 
BRANCH  13  18
HETATM   18  O   UNL     1      18.554  49.539  51.095  1.00  0.00    -0.360 OA
HETATM   19  H   UNL     1      19.161  49.632  51.856  1.00  0.00     0.217 HD
ENDBRANCH  13  18
ENDBRANCH  10  12
ENDBRANCH   2   4
BRANCH   1  20
HETATM   20  C   UNL     1      17.698  45.682  47.437  1.00  0.00     0.164 C 
BRANCH  20  21
HETATM   21  C   UNL     1      18.021  44.701  46.332  1.00  0.00    -0.040 A 
HETATM   22  C   UNL     1      19.259  44.043  46.300  1.00  0.00     0.009 A 
HETATM   23  C   UNL     1      19.560  43.154  45.268  1.00  0.00     0.001 A 
HETATM   24  C   UNL     1      18.628  42.909  44.261  1.00  0.00     0.000 A 
HETATM   25  C   UNL     1      17.391  43.550  44.287  1.00  0.00     0.001 A 
HETATM   26  C   UNL     1      17.086  44.440  45.319  1.00  0.00     0.009 A 
ENDBRANCH  20  21
ENDBRANCH   1  20
BRANCH   1  27
HETATM   27  C   UNL     1      18.348  47.820  46.287  1.00  0.00     0.164 C 
BRANCH  27  28
HETATM   28  C   UNL     1      17.451  48.999  46.601  1.00  0.00    -0.040 A 
HETATM   29  C   UNL     1      17.471  50.159  45.811  1.00  0.00     0.009 A 
HETATM   30  C   UNL     1      16.623  51.229  46.098  1.00  0.00     0.001 A 
HETATM   31  C   UNL     1      15.734  51.147  47.169  1.00  0.00     0.000 A 
HETATM   32  C   UNL     1      15.693  49.994  47.951  1.00  0.00     0.001 A 
HETATM   33  C   UNL     1      16.543  48.924  47.667  1.00  0.00     0.009 A 
ENDBRANCH  27  28
ENDBRANCH   1  27
TORSDOF 7
ENDMDL
MODEL 10
REMARK VINA RESULT:      -7.4      2.270      4.511
REMARK  7 active torsions:
REMARK  status: ('A' for Active; 'I' for Inactive)
REMARK    1  A    between atoms: C_4  and  C_5 
REMARK    2  A    between atoms: C_5  and  N_6 
REMARK       I    between atoms: N_6  and  C_7 
REMARK    3  A    between atoms: N_6  and  C_22 
REMARK    4  A    between atoms: C_7  and  C_8 
REMARK    5  A    between atoms: C_13  and  C_14 
REMARK    6  A    between atoms: C_15  and  O_16 
REMARK    7  A    between atoms: C_22  and  C_23 
ROOT
HETATM    1  N   UNL     1      26.317  44.509  51.060  1.00  0.00    -0.343 N 
HETATM    2  C   UNL     1      25.260  43.610  50.937  1.00  0.00     0.235 C 
HETATM    3  O   UNL     1      24.695  43.152  51.935  1.00  0.00    -0.272 OA
ENDROOT
BRANCH   2   4
HETATM    4  C   UNL     1      24.759  43.217  49.559  1.00  0.00     0.195 C 
HETATM    5  C   UNL     1      23.431  43.851  49.270  1.00  0.00     0.247 C 
HETATM    6  O   UNL     1      23.094  44.998  49.511  1.00  0.00    -0.271 OA
HETATM    7  N   UNL     1      22.674  42.925  48.582  1.00  0.00    -0.290 N 
HETATM    8  N   UNL     1      23.276  41.666  48.489  1.00  0.00    -0.228 NA
HETATM    9  H   UNL     1      21.698  43.103  48.362  1.00  0.00     0.183 HD
HETATM   10  C   UNL     1      24.406  41.716  49.468  1.00  0.00     0.134 C 
HETATM   11  H   UNL     1      23.681  41.600  47.545  1.00  0.00     0.147 HD
BRANCH  10  12
HETATM   12  C   UNL     1      25.532  40.771  49.062  1.00  0.00    -0.004 A 
HETATM   13  C   UNL     1      26.351  40.141  50.019  1.00  0.00     0.073 A 
HETATM   14  C   UNL     1      27.388  39.285  49.648  1.00  0.00     0.037 A 
HETATM   15  C   UNL     1      27.647  39.045  48.303  1.00  0.00     0.003 A 
HETATM   16  C   UNL     1      26.875  39.675  47.333  1.00  0.00     0.001 A 
HETATM   17  C   UNL     1      25.836  40.533  47.709  1.00  0.00     0.012 A 
BRANCH  13  18
HETATM   18  O   UNL     1      26.186  40.319  51.366  1.00  0.00    -0.360 OA
HETATM   19  H   UNL     1      26.073  41.273  51.547  1.00  0.00     0.217 HD
ENDBRANCH  13  18
ENDBRANCH  10  12
ENDBRANCH   2   4
BRANCH   1  20
HETATM   20  C   UNL     1      26.524  45.122  52.385  1.00  0.00     0.164 C 
BRANCH  20  21
HETATM   21  C   UNL     1      27.708  44.542  53.126  1.00  0.00    -0.040 A 
HETATM   22  C   UNL     1      28.088  45.053  54.375  1.00  0.00     0.009 A 
HETATM   23  C   UNL     1      29.193  44.529  55.047  1.00  0.00     0.001 A 
HETATM   24  C   UNL     1      29.925  43.487  54.482  1.00  0.00     0.000 A 
HETATM   25  C   UNL     1      29.552  42.965  53.245  1.00  0.00     0.001 A 
HETATM   26  C   UNL     1      28.447  43.487  52.571  1.00  0.00     0.009 A 
ENDBRANCH  20  21
ENDBRANCH   1  20
BRANCH   1  27
HETATM   27  C   UNL     1      27.110  45.045  49.942  1.00  0.00     0.164 C 
BRANCH  27  28
HETATM   28  C   UNL     1      26.841  46.498  49.616  1.00  0.00    -0.040 A 
HETATM   29  C   UNL     1      25.552  47.044  49.731  1.00  0.00     0.009 A 
HETATM   30  C   UNL     1      25.324  48.391  49.449  1.00  0.00     0.001 A 
HETATM   31  C   UNL     1      26.381  49.213  49.063  1.00  0.00     0.000 A 
HETATM   32  C   UNL     1      27.668  48.688  48.960  1.00  0.00     0.001 A 
HETATM   33  C   UNL     1      27.898  47.339  49.239  1.00  0.00     0.009 A 
ENDBRANCH  27  28
ENDBRANCH   1  27
TORSDOF 7
ENDMDL
