MODEL 1
REMARK VINA RESULT:     -10.1      0.000      0.000
REMARK  8 active torsions:
REMARK  status: ('A' for Active; 'I' for Inactive)
REMARK    1  A    between atoms: C_4  and  C_5 
REMARK    2  A    between atoms: C_5  and  N_6 
REMARK    3  A    between atoms: C_11  and  C_12 
REMARK       I    between atoms: C_12  and  N_13 
REMARK    4  A    between atoms: C_15  and  N_16 
REMARK       I    between atoms: N_16  and  C_17 
REMARK    5  A    between atoms: C_17  and  C_18 
REMARK    6  A    between atoms: C_18  and  C_19 
REMARK    7  A    between atoms: C_19  and  S_20 
REMARK    8  A    between atoms: S_20  and  C_21 
ROOT
HETATM    1  N   UNL     1      27.944  43.766  54.654  1.00  0.00    -0.063 N 
HETATM    2  H   UNL     1      27.867  43.259  55.540  1.00  0.00     0.280 HD
HETATM    3  C   UNL     1      26.948  44.917  54.751  1.00  0.00     0.282 C 
HETATM    4  C   UNL     1      26.613  45.455  53.405  1.00  0.00     0.018 C 
HETATM    5  C   UNL     1      26.878  44.833  52.202  1.00  0.00    -0.023 C 
HETATM    6  C   UNL     1      26.498  45.660  51.076  1.00  0.00     0.073 C 
HETATM    7  C   UNL     1      25.764  46.760  51.508  1.00  0.00     0.093 C 
HETATM    8  S   UNL     1      25.785  46.915  53.204  1.00  0.00    -0.074 SA
HETATM    9  C   UNL     1      27.540  43.481  52.156  1.00  0.00     0.068 C 
HETATM   10  C   UNL     1      27.546  42.800  53.541  1.00  0.00     0.240 C 
ENDROOT
BRANCH   7  11
HETATM   11  N   UNL     1      25.024  47.634  50.723  1.00  0.00    -0.320 N 
HETATM   12  C   UNL     1      24.045  47.304  49.801  1.00  0.00     0.223 C 
HETATM   13  O   UNL     1      23.508  46.211  49.657  1.00  0.00    -0.273 OA
HETATM   14  H   UNL     1      25.257  48.622  50.807  1.00  0.00     0.169 HD
BRANCH  12  15
HETATM   15  C   UNL     1      23.640  48.478  48.928  1.00  0.00     0.113 C 
BRANCH  15  16
HETATM   16  C   UNL     1      22.194  48.903  49.147  1.00  0.00     0.088 C 
BRANCH  16  17
HETATM   17  S   UNL     1      22.080  50.698  49.489  1.00  0.00    -0.130 SA
BRANCH  17  18
HETATM   18  C   UNL     1      20.325  51.032  49.439  1.00  0.00     0.000 A 
HETATM   19  C   UNL     1      19.360  50.368  50.201  1.00  0.00     0.020 A 
HETATM   20  C   UNL     1      18.004  50.702  50.084  1.00  0.00     0.025 A 
HETATM   21  C   UNL     1      17.607  51.703  49.204  1.00  0.00     0.034 A 
HETATM   22 CL   UNL     1      15.943  52.111  49.063  1.00  0.00    -0.084 Cl
HETATM   23  C   UNL     1      18.553  52.373  48.436  1.00  0.00     0.025 A 
HETATM   24  C   UNL     1      19.904  52.038  48.553  1.00  0.00     0.020 A 
ENDBRANCH  17  18
ENDBRANCH  16  17
ENDBRANCH  15  16
ENDBRANCH  12  15
ENDBRANCH   7  11
BRANCH   6  25
HETATM   25  C   UNL     1      26.799  45.331  49.684  1.00  0.00     0.252 C 
HETATM   26  N   UNL     1      26.012  44.376  49.107  1.00  0.00    -0.366 N 
HETATM   27  H   UNL     1      25.130  44.089  49.511  1.00  0.00     0.159 HD
HETATM   28  H   UNL     1      26.116  44.251  48.107  1.00  0.00     0.159 HD
HETATM   29  O   UNL     1      27.646  45.927  49.029  1.00  0.00    -0.268 OA
ENDBRANCH   6  25
BRANCH   1  30
HETATM   30  C   UNL     1      29.391  44.196  54.544  1.00  0.00     0.273 C 
BRANCH  30  31
HETATM   31  C   UNL     1      30.107  44.374  55.854  1.00  0.00    -0.033 A 
HETATM   32  C   UNL     1      31.087  43.468  56.288  1.00  0.00     0.009 A 
HETATM   33  C   UNL     1      31.739  43.666  57.507  1.00  0.00     0.001 A 
HETATM   34  C   UNL     1      31.434  44.775  58.294  1.00  0.00     0.000 A 
HETATM   35  C   UNL     1      30.475  45.689  57.865  1.00  0.00     0.001 A 
HETATM   36  C   UNL     1      29.815  45.490  56.654  1.00  0.00     0.009 A 
ENDBRANCH  30  31
ENDBRANCH   1  30
TORSDOF 8
ENDMDL
MODEL 2
REMARK VINA RESULT:      -9.6      3.892     11.111
REMARK  8 active torsions:
REMARK  status: ('A' for Active; 'I' for Inactive)
REMARK    1  A    between atoms: C_4  and  C_5 
REMARK    2  A    between atoms: C_5  and  N_6 
REMARK    3  A    between atoms: C_11  and  C_12 
REMARK       I    between atoms: C_12  and  N_13 
REMARK    4  A    between atoms: C_15  and  N_16 
REMARK       I    between atoms: N_16  and  C_17 
REMARK    5  A    between atoms: C_17  and  C_18 
REMARK    6  A    between atoms: C_18  and  C_19 
REMARK    7  A    between atoms: C_19  and  S_20 
REMARK    8  A    between atoms: S_20  and  C_21 
ROOT
HETATM    1  N   UNL     1      21.826  48.430  48.230  1.00  0.00    -0.063 N 
HETATM    2  H   UNL     1      21.746  49.257  47.631  1.00  0.00     0.280 HD
HETATM    3  C   UNL     1      23.233  48.483  48.819  1.00  0.00     0.282 C 
HETATM    4  C   UNL     1      23.656  47.148  49.325  1.00  0.00     0.018 C 
HETATM    5  C   UNL     1      23.042  45.947  49.035  1.00  0.00    -0.023 C 
HETATM    6  C   UNL     1      23.651  44.847  49.753  1.00  0.00     0.073 C 
HETATM    7  C   UNL     1      24.829  45.261  50.365  1.00  0.00     0.093 C 
HETATM    8  S   UNL     1      25.023  46.952  50.299  1.00  0.00    -0.074 SA
HETATM    9  C   UNL     1      21.850  45.886  48.116  1.00  0.00     0.068 C 
HETATM   10  C   UNL     1      21.661  47.204  47.335  1.00  0.00     0.240 C 
ENDROOT
BRANCH   7  11
HETATM   11  N   UNL     1      25.809  44.455  50.928  1.00  0.00    -0.320 N 
HETATM   12  C   UNL     1      26.626  43.552  50.269  1.00  0.00     0.223 C 
HETATM   13  O   UNL     1      26.781  43.446  49.057  1.00  0.00    -0.273 OA
HETATM   14  H   UNL     1      25.908  44.506  51.940  1.00  0.00     0.169 HD
BRANCH  12  15
HETATM   15  C   UNL     1      27.386  42.645  51.221  1.00  0.00     0.113 C 
BRANCH  15  16
HETATM   16  C   UNL     1      27.730  43.329  52.538  1.00  0.00     0.088 C 
BRANCH  16  17
HETATM   17  S   UNL     1      29.310  42.699  53.213  1.00  0.00    -0.130 SA
BRANCH  17  18
HETATM   18  C   UNL     1      29.626  43.757  54.619  1.00  0.00     0.000 A 
HETATM   19  C   UNL     1      28.897  44.906  54.938  1.00  0.00     0.020 A 
HETATM   20  C   UNL     1      29.230  45.673  56.062  1.00  0.00     0.025 A 
HETATM   21  C   UNL     1      30.292  45.292  56.876  1.00  0.00     0.034 A 
HETATM   22 CL   UNL     1      30.696  46.234  58.256  1.00  0.00    -0.084 Cl
HETATM   23  C   UNL     1      31.029  44.152  56.574  1.00  0.00     0.025 A 
HETATM   24  C   UNL     1      30.697  43.390  55.450  1.00  0.00     0.020 A 
ENDBRANCH  17  18
ENDBRANCH  16  17
ENDBRANCH  15  16
ENDBRANCH  12  15
ENDBRANCH   7  11
BRANCH   6  25
HETATM   25  C   UNL     1      23.118  43.486  49.763  1.00  0.00     0.252 C 
HETATM   26  N   UNL     1      23.619  42.636  48.819  1.00  0.00    -0.366 N 
HETATM   27  H   UNL     1      24.468  42.839  48.308  1.00  0.00     0.159 HD
HETATM   28  H   UNL     1      23.368  41.659  48.914  1.00  0.00     0.159 HD
HETATM   29  O   UNL     1      22.334  43.086  50.615  1.00  0.00    -0.268 OA
ENDBRANCH   6  25
BRANCH   1  30
HETATM   30  C   UNL     1      20.715  48.544  49.250  1.00  0.00     0.273 C 
BRANCH  30  31
HETATM   31  C   UNL     1      19.953  49.840  49.224  1.00  0.00    -0.033 A 
HETATM   32  C   UNL     1      18.790  50.028  49.987  1.00  0.00     0.009 A 
HETATM   33  C   UNL     1      18.110  51.247  49.946  1.00  0.00     0.001 A 
HETATM   34  C   UNL     1      18.591  52.292  49.161  1.00  0.00     0.000 A 
HETATM   35  C   UNL     1      19.753  52.123  48.414  1.00  0.00     0.001 A 
HETATM   36  C   UNL     1      20.430  50.905  48.444  1.00  0.00     0.009 A 
ENDBRANCH  30  31
ENDBRANCH   1  30
TORSDOF 8
ENDMDL
MODEL 3
REMARK VINA RESULT:      -9.3      6.411      8.749
REMARK  8 active torsions:
REMARK  status: ('A' for Active; 'I' for Inactive)
REMARK    1  A    between atoms: C_4  and  C_5 
REMARK    2  A    between atoms: C_5  and  N_6 
REMARK    3  A    between atoms: C_11  and  C_12 
REMARK       I    between atoms: C_12  and  N_13 
REMARK    4  A    between atoms: C_15  and  N_16 
REMARK       I    between atoms: N_16  and  C_17 
REMARK    5  A    between atoms: C_17  and  C_18 
REMARK    6  A    between atoms: C_18  and  C_19 
REMARK    7  A    between atoms: C_19  and  S_20 
REMARK    8  A    between atoms: S_20  and  C_21 
ROOT
HETATM    1  N   UNL     1      27.362  45.450  54.636  1.00  0.00    -0.063 N 
HETATM    2  H   UNL     1      27.020  46.072  55.374  1.00  0.00     0.280 HD
HETATM    3  C   UNL     1      26.610  45.860  53.373  1.00  0.00     0.282 C 
HETATM    4  C   UNL     1      26.647  44.779  52.349  1.00  0.00     0.018 C 
HETATM    5  C   UNL     1      27.009  43.468  52.578  1.00  0.00    -0.023 C 
HETATM    6  C   UNL     1      27.019  42.694  51.354  1.00  0.00     0.073 C 
HETATM    7  C   UNL     1      26.445  43.421  50.315  1.00  0.00     0.093 C 
HETATM    8  S   UNL     1      26.175  45.046  50.748  1.00  0.00    -0.074 SA
HETATM    9  C   UNL     1      27.390  42.996  53.956  1.00  0.00     0.068 C 
HETATM   10  C   UNL     1      27.000  44.023  55.041  1.00  0.00     0.240 C 
ENDROOT
BRANCH   7  11
HETATM   11  N   UNL     1      26.054  42.941  49.073  1.00  0.00    -0.320 N 
HETATM   12  C   UNL     1      24.828  42.389  48.741  1.00  0.00     0.223 C 
HETATM   13  O   UNL     1      23.804  42.410  49.413  1.00  0.00    -0.273 OA
HETATM   14  H   UNL     1      26.760  42.962  48.340  1.00  0.00     0.169 HD
BRANCH  12  15
HETATM   15  C   UNL     1      24.836  41.721  47.377  1.00  0.00     0.113 C 
BRANCH  15  16
HETATM   16  C   UNL     1      24.651  40.211  47.460  1.00  0.00     0.088 C 
BRANCH  16  17
HETATM   17  S   UNL     1      25.968  39.336  46.538  1.00  0.00    -0.130 SA
BRANCH  17  18
HETATM   18  C   UNL     1      27.026  38.681  47.821  1.00  0.00     0.000 A 
HETATM   19  C   UNL     1      26.684  37.641  48.690  1.00  0.00     0.020 A 
HETATM   20  C   UNL     1      27.585  37.204  49.670  1.00  0.00     0.025 A 
HETATM   21  C   UNL     1      28.835  37.804  49.784  1.00  0.00     0.034 A 
HETATM   22 CL   UNL     1      29.939  37.264  50.986  1.00  0.00    -0.084 Cl
HETATM   23  C   UNL     1      29.192  38.841  48.929  1.00  0.00     0.025 A 
HETATM   24  C   UNL     1      28.291  39.277  47.954  1.00  0.00     0.020 A 
ENDBRANCH  17  18
ENDBRANCH  16  17
ENDBRANCH  15  16
ENDBRANCH  12  15
ENDBRANCH   7  11
BRANCH   6  25
HETATM   25  C   UNL     1      27.508  41.319  51.262  1.00  0.00     0.252 C 
HETATM   26  N   UNL     1      28.837  41.135  51.517  1.00  0.00    -0.366 N 
HETATM   27  H   UNL     1      29.400  41.839  51.977  1.00  0.00     0.159 HD
HETATM   28  H   UNL     1      29.150  40.176  51.603  1.00  0.00     0.159 HD
HETATM   29  O   UNL     1      26.769  40.364  51.058  1.00  0.00    -0.268 OA
ENDBRANCH   6  25
BRANCH   1  30
HETATM   30  C   UNL     1      28.858  45.662  54.571  1.00  0.00     0.273 C 
BRANCH  30  31
HETATM   31  C   UNL     1      29.615  45.266  55.809  1.00  0.00    -0.033 A 
HETATM   32  C   UNL     1      30.575  44.242  55.790  1.00  0.00     0.009 A 
HETATM   33  C   UNL     1      31.265  43.903  56.956  1.00  0.00     0.001 A 
HETATM   34  C   UNL     1      31.019  44.591  58.142  1.00  0.00     0.000 A 
HETATM   35  C   UNL     1      30.082  45.620  58.168  1.00  0.00     0.001 A 
HETATM   36  C   UNL     1      29.383  45.955  57.009  1.00  0.00     0.009 A 
ENDBRANCH  30  31
ENDBRANCH   1  30
TORSDOF 8
ENDMDL
MODEL 4
REMARK VINA RESULT:      -9.1      2.073      2.373
REMARK  8 active torsions:
REMARK  status: ('A' for Active; 'I' for Inactive)
REMARK    1  A    between atoms: C_4  and  C_5 
REMARK    2  A    between atoms: C_5  and  N_6 
REMARK    3  A    between atoms: C_11  and  C_12 
REMARK       I    between atoms: C_12  and  N_13 
REMARK    4  A    between atoms: C_15  and  N_16 
REMARK       I    between atoms: N_16  and  C_17 
REMARK    5  A    between atoms: C_17  and  C_18 
REMARK    6  A    between atoms: C_18  and  C_19 
REMARK    7  A    between atoms: C_19  and  S_20 
REMARK    8  A    between atoms: S_20  and  C_21 
ROOT
HETATM    1  N   UNL     1      27.286  45.339  55.108  1.00  0.00    -0.063 N 
HETATM    2  H   UNL     1      27.209  45.603  56.094  1.00  0.00     0.280 HD
HETATM    3  C   UNL     1      26.343  46.273  54.357  1.00  0.00     0.282 C 
HETATM    4  C   UNL     1      25.998  45.728  53.016  1.00  0.00     0.018 C 
HETATM    5  C   UNL     1      26.208  44.430  52.597  1.00  0.00    -0.023 C 
HETATM    6  C   UNL     1      25.837  44.248  51.210  1.00  0.00     0.073 C 
HETATM    7  C   UNL     1      25.160  45.368  50.737  1.00  0.00     0.093 C 
HETATM    8  S   UNL     1      25.229  46.666  51.838  1.00  0.00    -0.074 SA
HETATM    9  C   UNL     1      26.810  43.405  53.521  1.00  0.00     0.068 C 
HETATM   10  C   UNL     1      26.821  43.890  54.987  1.00  0.00     0.240 C 
ENDROOT
BRANCH   7  11
HETATM   11  N   UNL     1      24.440  45.475  49.556  1.00  0.00    -0.320 N 
HETATM   12  C   UNL     1      23.333  44.731  49.183  1.00  0.00     0.223 C 
HETATM   13  O   UNL     1      22.664  43.995  49.900  1.00  0.00    -0.273 OA
HETATM   14  H   UNL     1      24.790  46.145  48.875  1.00  0.00     0.169 HD
BRANCH  12  15
HETATM   15  C   UNL     1      22.967  44.916  47.721  1.00  0.00     0.113 C 
BRANCH  15  16
HETATM   16  C   UNL     1      22.306  46.260  47.445  1.00  0.00     0.088 C 
BRANCH  16  17
HETATM   17  S   UNL     1      20.672  46.369  48.265  1.00  0.00    -0.130 SA
BRANCH  17  18
HETATM   18  C   UNL     1      20.355  48.126  48.355  1.00  0.00     0.000 A 
HETATM   19  C   UNL     1      21.123  49.044  49.078  1.00  0.00     0.020 A 
HETATM   20  C   UNL     1      20.787  50.403  49.089  1.00  0.00     0.025 A 
HETATM   21  C   UNL     1      19.681  50.854  48.375  1.00  0.00     0.034 A 
HETATM   22 CL   UNL     1      19.273  52.523  48.390  1.00  0.00    -0.084 Cl
HETATM   23  C   UNL     1      18.905  49.956  47.650  1.00  0.00     0.025 A 
HETATM   24  C   UNL     1      19.242  48.599  47.643  1.00  0.00     0.020 A 
ENDBRANCH  17  18
ENDBRANCH  16  17
ENDBRANCH  15  16
ENDBRANCH  12  15
ENDBRANCH   7  11
BRANCH   6  25
HETATM   25  C   UNL     1      26.091  43.023  50.452  1.00  0.00     0.252 C 
HETATM   26  N   UNL     1      25.229  41.989  50.674  1.00  0.00    -0.366 N 
HETATM   27  H   UNL     1      24.335  42.120  51.131  1.00  0.00     0.159 HD
HETATM   28  H   UNL     1      25.306  41.196  50.048  1.00  0.00     0.159 HD
HETATM   29  O   UNL     1      26.966  42.940  49.599  1.00  0.00    -0.268 OA
ENDBRANCH   6  25
BRANCH   1  30
HETATM   30  C   UNL     1      28.747  45.500  54.746  1.00  0.00     0.273 C 
BRANCH  30  31
HETATM   31  C   UNL     1      29.719  44.947  55.751  1.00  0.00    -0.033 A 
HETATM   32  C   UNL     1      30.499  43.814  55.476  1.00  0.00     0.009 A 
HETATM   33  C   UNL     1      31.399  43.329  56.429  1.00  0.00     0.001 A 
HETATM   34  C   UNL     1      31.542  43.980  57.652  1.00  0.00     0.000 A 
HETATM   35  C   UNL     1      30.786  45.116  57.929  1.00  0.00     0.001 A 
HETATM   36  C   UNL     1      29.879  45.597  56.986  1.00  0.00     0.009 A 
ENDBRANCH  30  31
ENDBRANCH   1  30
TORSDOF 8
ENDMDL
MODEL 5
REMARK VINA RESULT:      -9.1      2.015      2.747
REMARK  8 active torsions:
REMARK  status: ('A' for Active; 'I' for Inactive)
REMARK    1  A    between atoms: C_4  and  C_5 
REMARK    2  A    between atoms: C_5  and  N_6 
REMARK    3  A    between atoms: C_11  and  C_12 
REMARK       I    between atoms: C_12  and  N_13 
REMARK    4  A    between atoms: C_15  and  N_16 
REMARK       I    between atoms: N_16  and  C_17 
REMARK    5  A    between atoms: C_17  and  C_18 
REMARK    6  A    between atoms: C_18  and  C_19 
REMARK    7  A    between atoms: C_19  and  S_20 
REMARK    8  A    between atoms: S_20  and  C_21 
ROOT
HETATM    1  N   UNL     1      27.488  42.487  52.259  1.00  0.00    -0.063 N 
HETATM    2  H   UNL     1      28.072  41.645  52.261  1.00  0.00     0.280 HD
HETATM    3  C   UNL     1      26.244  42.123  51.454  1.00  0.00     0.282 C 
HETATM    4  C   UNL     1      25.535  43.342  50.978  1.00  0.00     0.018 C 
HETATM    5  C   UNL     1      26.056  44.619  50.958  1.00  0.00    -0.023 C 
HETATM    6  C   UNL     1      25.078  45.590  50.513  1.00  0.00     0.073 C 
HETATM    7  C   UNL     1      23.950  44.947  50.012  1.00  0.00     0.093 C 
HETATM    8  S   UNL     1      23.975  43.274  50.330  1.00  0.00    -0.074 SA
HETATM    9  C   UNL     1      27.464  44.890  51.418  1.00  0.00     0.068 C 
HETATM   10  C   UNL     1      28.281  43.588  51.560  1.00  0.00     0.240 C 
ENDROOT
BRANCH   7  11
HETATM   11  N   UNL     1      22.919  45.516  49.277  1.00  0.00    -0.320 N 
HETATM   12  C   UNL     1      22.664  45.346  47.927  1.00  0.00     0.223 C 
HETATM   13  O   UNL     1      23.165  44.511  47.182  1.00  0.00    -0.273 OA
HETATM   14  H   UNL     1      22.311  46.159  49.779  1.00  0.00     0.169 HD
BRANCH  12  15
HETATM   15  C   UNL     1      21.631  46.325  47.396  1.00  0.00     0.113 C 
BRANCH  15  16
HETATM   16  C   UNL     1      21.038  47.204  48.489  1.00  0.00     0.088 C 
BRANCH  16  17
HETATM   17  S   UNL     1      21.782  48.877  48.463  1.00  0.00    -0.130 SA
BRANCH  17  18
HETATM   18  C   UNL     1      20.434  49.951  48.936  1.00  0.00     0.000 A 
HETATM   19  C   UNL     1      19.396  49.601  49.804  1.00  0.00     0.020 A 
HETATM   20  C   UNL     1      18.380  50.517  50.108  1.00  0.00     0.025 A 
HETATM   21  C   UNL     1      18.398  51.789  49.546  1.00  0.00     0.034 A 
HETATM   22 CL   UNL     1      17.151  52.911  49.922  1.00  0.00    -0.084 Cl
HETATM   23  C   UNL     1      19.422  52.155  48.679  1.00  0.00     0.025 A 
HETATM   24  C   UNL     1      20.434  51.239  48.377  1.00  0.00     0.020 A 
ENDBRANCH  17  18
ENDBRANCH  16  17
ENDBRANCH  15  16
ENDBRANCH  12  15
ENDBRANCH   7  11
BRANCH   6  25
HETATM   25  C   UNL     1      25.295  47.035  50.537  1.00  0.00     0.252 C 
HETATM   26  N   UNL     1      25.975  47.559  49.476  1.00  0.00    -0.366 N 
HETATM   27  H   UNL     1      26.107  47.046  48.614  1.00  0.00     0.159 HD
HETATM   28  H   UNL     1      25.998  48.570  49.410  1.00  0.00     0.159 HD
HETATM   29  O   UNL     1      24.826  47.763  51.404  1.00  0.00    -0.268 OA
ENDBRANCH   6  25
BRANCH   1  30
HETATM   30  C   UNL     1      27.222  42.813  53.713  1.00  0.00     0.273 C 
BRANCH  30  31
HETATM   31  C   UNL     1      28.374  43.435  54.451  1.00  0.00    -0.033 A 
HETATM   32  C   UNL     1      28.288  44.724  54.999  1.00  0.00     0.009 A 
HETATM   33  C   UNL     1      29.375  45.271  55.686  1.00  0.00     0.001 A 
HETATM   34  C   UNL     1      30.546  44.533  55.847  1.00  0.00     0.000 A 
HETATM   35  C   UNL     1      30.636  43.247  55.322  1.00  0.00     0.001 A 
HETATM   36  C   UNL     1      29.558  42.701  54.627  1.00  0.00     0.009 A 
ENDBRANCH  30  31
ENDBRANCH   1  30
TORSDOF 8
ENDMDL
MODEL 6
REMARK VINA RESULT:      -9.0      2.056      2.424
REMARK  8 active torsions:
REMARK  status: ('A' for Active; 'I' for Inactive)
REMARK    1  A    between atoms: C_4  and  C_5 
REMARK    2  A    between atoms: C_5  and  N_6 
REMARK    3  A    between atoms: C_11  and  C_12 
REMARK       I    between atoms: C_12  and  N_13 
REMARK    4  A    between atoms: C_15  and  N_16 
REMARK       I    between atoms: N_16  and  C_17 
REMARK    5  A    between atoms: C_17  and  C_18 
REMARK    6  A    between atoms: C_18  and  C_19 
REMARK    7  A    between atoms: C_19  and  S_20 
REMARK    8  A    between atoms: S_20  and  C_21 
ROOT
HETATM    1  N   UNL     1      27.178  45.845  54.424  1.00  0.00    -0.063 N 
HETATM    2  H   UNL     1      27.437  46.395  55.249  1.00  0.00     0.280 HD
HETATM    3  C   UNL     1      26.768  46.863  53.364  1.00  0.00     0.282 C 
HETATM    4  C   UNL     1      25.945  46.229  52.298  1.00  0.00     0.018 C 
HETATM    5  C   UNL     1      25.342  44.991  52.377  1.00  0.00    -0.023 C 
HETATM    6  C   UNL     1      24.684  44.635  51.137  1.00  0.00     0.073 C 
HETATM    7  C   UNL     1      24.645  45.728  50.278  1.00  0.00     0.093 C 
HETATM    8  S   UNL     1      25.602  47.019  50.843  1.00  0.00    -0.074 SA
HETATM    9  C   UNL     1      25.454  44.151  53.622  1.00  0.00     0.068 C 
HETATM   10  C   UNL     1      25.993  44.967  54.817  1.00  0.00     0.240 C 
ENDROOT
BRANCH   7  11
HETATM   11  N   UNL     1      23.894  45.855  49.117  1.00  0.00    -0.320 N 
HETATM   12  C   UNL     1      22.979  46.850  48.820  1.00  0.00     0.223 C 
HETATM   13  O   UNL     1      22.814  47.904  49.425  1.00  0.00    -0.273 OA
HETATM   14  H   UNL     1      24.000  45.113  48.429  1.00  0.00     0.169 HD
BRANCH  12  15
HETATM   15  C   UNL     1      22.142  46.532  47.594  1.00  0.00     0.113 C 
BRANCH  15  16
HETATM   16  C   UNL     1      21.019  47.537  47.370  1.00  0.00     0.088 C 
BRANCH  16  17
HETATM   17  S   UNL     1      19.517  47.061  48.302  1.00  0.00    -0.130 SA
BRANCH  17  18
HETATM   18  C   UNL     1      18.836  48.623  48.841  1.00  0.00     0.000 A 
HETATM   19  C   UNL     1      19.260  49.339  49.965  1.00  0.00     0.020 A 
HETATM   20  C   UNL     1      18.655  50.555  50.306  1.00  0.00     0.025 A 
HETATM   21  C   UNL     1      17.623  51.064  49.524  1.00  0.00     0.034 A 
HETATM   22 CL   UNL     1      16.884  52.557  49.946  1.00  0.00    -0.084 Cl
HETATM   23  C   UNL     1      17.187  50.365  48.404  1.00  0.00     0.025 A 
HETATM   24  C   UNL     1      17.791  49.151  48.066  1.00  0.00     0.020 A 
ENDBRANCH  17  18
ENDBRANCH  16  17
ENDBRANCH  15  16
ENDBRANCH  12  15
ENDBRANCH   7  11
BRANCH   6  25
HETATM   25  C   UNL     1      24.095  43.323  50.874  1.00  0.00     0.252 C 
HETATM   26  N   UNL     1      24.939  42.255  50.966  1.00  0.00    -0.366 N 
HETATM   27  H   UNL     1      25.841  42.318  51.421  1.00  0.00     0.159 HD
HETATM   28  H   UNL     1      24.510  41.338  50.934  1.00  0.00     0.159 HD
HETATM   29  O   UNL     1      22.898  43.162  50.669  1.00  0.00    -0.268 OA
ENDBRANCH   6  25
BRANCH   1  30
HETATM   30  C   UNL     1      28.400  45.026  54.068  1.00  0.00     0.273 C 
BRANCH  30  31
HETATM   31  C   UNL     1      29.344  44.757  55.206  1.00  0.00    -0.033 A 
HETATM   32  C   UNL     1      30.184  43.633  55.218  1.00  0.00     0.009 A 
HETATM   33  C   UNL     1      31.055  43.415  56.287  1.00  0.00     0.001 A 
HETATM   34  C   UNL     1      31.109  44.323  57.343  1.00  0.00     0.000 A 
HETATM   35  C   UNL     1      30.293  45.451  57.334  1.00  0.00     0.001 A 
HETATM   36  C   UNL     1      29.415  45.667  56.273  1.00  0.00     0.009 A 
ENDBRANCH  30  31
ENDBRANCH   1  30
TORSDOF 8
ENDMDL
MODEL 7
REMARK VINA RESULT:      -8.7      2.413      3.907
REMARK  8 active torsions:
REMARK  status: ('A' for Active; 'I' for Inactive)
REMARK    1  A    between atoms: C_4  and  C_5 
REMARK    2  A    between atoms: C_5  and  N_6 
REMARK    3  A    between atoms: C_11  and  C_12 
REMARK       I    between atoms: C_12  and  N_13 
REMARK    4  A    between atoms: C_15  and  N_16 
REMARK       I    between atoms: N_16  and  C_17 
REMARK    5  A    between atoms: C_17  and  C_18 
REMARK    6  A    between atoms: C_18  and  C_19 
REMARK    7  A    between atoms: C_19  and  S_20 
REMARK    8  A    between atoms: S_20  and  C_21 
ROOT
HETATM    1  N   UNL     1      26.720  44.472  50.776  1.00  0.00    -0.063 N 
HETATM    2  H   UNL     1      27.470  43.774  50.774  1.00  0.00     0.280 HD
HETATM    3  C   UNL     1      25.501  43.767  50.188  1.00  0.00     0.282 C 
HETATM    4  C   UNL     1      24.492  44.749  49.705  1.00  0.00     0.018 C 
HETATM    5  C   UNL     1      24.716  46.095  49.497  1.00  0.00    -0.023 C 
HETATM    6  C   UNL     1      23.504  46.784  49.104  1.00  0.00     0.073 C 
HETATM    7  C   UNL     1      22.494  45.870  48.825  1.00  0.00     0.093 C 
HETATM    8  S   UNL     1      22.920  44.287  49.290  1.00  0.00    -0.074 SA
HETATM    9  C   UNL     1      26.074  46.701  49.729  1.00  0.00     0.068 C 
HETATM   10  C   UNL     1      27.167  45.620  49.875  1.00  0.00     0.240 C 
ENDROOT
BRANCH   7  11
HETATM   11  N   UNL     1      21.285  46.124  48.192  1.00  0.00    -0.320 N 
HETATM   12  C   UNL     1      21.094  46.454  46.861  1.00  0.00     0.223 C 
HETATM   13  O   UNL     1      21.920  46.381  45.957  1.00  0.00    -0.273 OA
HETATM   14  H   UNL     1      20.456  46.104  48.781  1.00  0.00     0.169 HD
BRANCH  12  15
HETATM   15  C   UNL     1      19.682  46.932  46.571  1.00  0.00     0.113 C 
BRANCH  15  16
HETATM   16  C   UNL     1      19.133  47.842  47.663  1.00  0.00     0.088 C 
BRANCH  16  17
HETATM   17  S   UNL     1      19.822  49.532  47.516  1.00  0.00    -0.130 SA
BRANCH  17  18
HETATM   18  C   UNL     1      18.615  50.558  48.345  1.00  0.00     0.000 A 
HETATM   19  C   UNL     1      18.916  51.670  49.137  1.00  0.00     0.020 A 
HETATM   20  C   UNL     1      17.895  52.407  49.750  1.00  0.00     0.025 A 
HETATM   21  C   UNL     1      16.566  52.037  49.572  1.00  0.00     0.034 A 
HETATM   22 CL   UNL     1      15.315  52.944  50.324  1.00  0.00    -0.084 Cl
HETATM   23  C   UNL     1      16.247  50.933  48.788  1.00  0.00     0.025 A 
HETATM   24  C   UNL     1      17.269  50.198  48.180  1.00  0.00     0.020 A 
ENDBRANCH  17  18
ENDBRANCH  16  17
ENDBRANCH  15  16
ENDBRANCH  12  15
ENDBRANCH   7  11
BRANCH   6  25
HETATM   25  C   UNL     1      23.402  48.236  48.965  1.00  0.00     0.252 C 
HETATM   26  N   UNL     1      22.714  48.888  49.947  1.00  0.00    -0.366 N 
HETATM   27  H   UNL     1      22.501  48.453  50.836  1.00  0.00     0.159 HD
HETATM   28  H   UNL     1      22.766  49.899  49.938  1.00  0.00     0.159 HD
HETATM   29  O   UNL     1      23.966  48.859  48.074  1.00  0.00    -0.268 OA
ENDBRANCH   6  25
BRANCH   1  30
HETATM   30  C   UNL     1      26.560  44.907  52.216  1.00  0.00     0.273 C 
BRANCH  30  31
HETATM   31  C   UNL     1      27.678  44.502  53.136  1.00  0.00    -0.033 A 
HETATM   32  C   UNL     1      28.565  43.466  52.806  1.00  0.00     0.009 A 
HETATM   33  C   UNL     1      29.599  43.119  53.679  1.00  0.00     0.001 A 
HETATM   34  C   UNL     1      29.768  43.812  54.876  1.00  0.00     0.000 A 
HETATM   35  C   UNL     1      28.904  44.853  55.205  1.00  0.00     0.001 A 
HETATM   36  C   UNL     1      27.865  45.196  54.342  1.00  0.00     0.009 A 
ENDBRANCH  30  31
ENDBRANCH   1  30
TORSDOF 8
ENDMDL
MODEL 8
REMARK VINA RESULT:      -8.7      7.180      9.633
REMARK  8 active torsions:
REMARK  status: ('A' for Active; 'I' for Inactive)
REMARK    1  A    between atoms: C_4  and  C_5 
REMARK    2  A    between atoms: C_5  and  N_6 
REMARK    3  A    between atoms: C_11  and  C_12 
REMARK       I    between atoms: C_12  and  N_13 
REMARK    4  A    between atoms: C_15  and  N_16 
REMARK       I    between atoms: N_16  and  C_17 
REMARK    5  A    between atoms: C_17  and  C_18 
REMARK    6  A    between atoms: C_18  and  C_19 
REMARK    7  A    between atoms: C_19  and  S_20 
REMARK    8  A    between atoms: S_20  and  C_21 
ROOT
HETATM    1  N   UNL     1      27.752  43.359  53.891  1.00  0.00    -0.063 N 
HETATM    2  H   UNL     1      27.379  43.732  54.770  1.00  0.00     0.280 HD
HETATM    3  C   UNL     1      26.830  43.886  52.797  1.00  0.00     0.282 C 
HETATM    4  C   UNL     1      26.955  43.080  51.552  1.00  0.00     0.018 C 
HETATM    5  C   UNL     1      27.553  41.840  51.454  1.00  0.00    -0.023 C 
HETATM    6  C   UNL     1      27.580  41.366  50.086  1.00  0.00     0.073 C 
HETATM    7  C   UNL     1      26.800  42.182  49.273  1.00  0.00     0.093 C 
HETATM    8  S   UNL     1      26.299  43.596  50.081  1.00  0.00    -0.074 SA
HETATM    9  C   UNL     1      28.132  41.160  52.665  1.00  0.00     0.068 C 
HETATM   10  C   UNL     1      27.676  41.837  53.976  1.00  0.00     0.240 C 
ENDROOT
BRANCH   7  11
HETATM   11  N   UNL     1      26.382  41.919  47.976  1.00  0.00    -0.320 N 
HETATM   12  C   UNL     1      25.217  41.280  47.587  1.00  0.00     0.223 C 
HETATM   13  O   UNL     1      24.250  41.016  48.294  1.00  0.00    -0.273 OA
HETATM   14  H   UNL     1      27.023  42.191  47.233  1.00  0.00     0.169 HD
BRANCH  12  15
HETATM   15  C   UNL     1      25.210  40.917  46.113  1.00  0.00     0.113 C 
BRANCH  15  16
HETATM   16  C   UNL     1      26.612  40.746  45.542  1.00  0.00     0.088 C 
BRANCH  16  17
HETATM   17  S   UNL     1      27.147  38.997  45.626  1.00  0.00    -0.130 SA
BRANCH  17  18
HETATM   18  C   UNL     1      28.516  38.913  44.480  1.00  0.00     0.000 A 
HETATM   19  C   UNL     1      29.263  37.764  44.205  1.00  0.00     0.020 A 
HETATM   20  C   UNL     1      30.325  37.805  43.292  1.00  0.00     0.025 A 
HETATM   21  C   UNL     1      30.644  38.996  42.647  1.00  0.00     0.034 A 
HETATM   22 CL   UNL     1      31.946  39.042  41.526  1.00  0.00    -0.084 Cl
HETATM   23  C   UNL     1      29.913  40.149  42.909  1.00  0.00     0.025 A 
HETATM   24  C   UNL     1      28.855  40.106  43.823  1.00  0.00     0.020 A 
ENDBRANCH  17  18
ENDBRANCH  16  17
ENDBRANCH  15  16
ENDBRANCH  12  15
ENDBRANCH   7  11
BRANCH   6  25
HETATM   25  C   UNL     1      28.284  40.159  49.656  1.00  0.00     0.252 C 
HETATM   26  N   UNL     1      27.928  38.999  50.281  1.00  0.00    -0.366 N 
HETATM   27  H   UNL     1      27.076  38.918  50.821  1.00  0.00     0.159 HD
HETATM   28  H   UNL     1      28.300  38.143  49.888  1.00  0.00     0.159 HD
HETATM   29  O   UNL     1      29.087  40.153  48.730  1.00  0.00    -0.268 OA
ENDBRANCH   6  25
BRANCH   1  30
HETATM   30  C   UNL     1      29.179  43.854  53.801  1.00  0.00     0.273 C 
BRANCH  30  31
HETATM   31  C   UNL     1      29.867  44.068  55.120  1.00  0.00    -0.033 A 
HETATM   32  C   UNL     1      30.777  43.133  55.638  1.00  0.00     0.009 A 
HETATM   33  C   UNL     1      31.405  43.366  56.863  1.00  0.00     0.001 A 
HETATM   34  C   UNL     1      31.147  44.537  57.573  1.00  0.00     0.000 A 
HETATM   35  C   UNL     1      30.259  45.479  57.061  1.00  0.00     0.001 A 
HETATM   36  C   UNL     1      29.622  45.247  55.843  1.00  0.00     0.009 A 
ENDBRANCH  30  31
ENDBRANCH   1  30
TORSDOF 8
ENDMDL
MODEL 9
REMARK VINA RESULT:      -8.4      3.170      4.791
REMARK  8 active torsions:
REMARK  status: ('A' for Active; 'I' for Inactive)
REMARK    1  A    between atoms: C_4  and  C_5 
REMARK    2  A    between atoms: C_5  and  N_6 
REMARK    3  A    between atoms: C_11  and  C_12 
REMARK       I    between atoms: C_12  and  N_13 
REMARK    4  A    between atoms: C_15  and  N_16 
REMARK       I    between atoms: N_16  and  C_17 
REMARK    5  A    between atoms: C_17  and  C_18 
REMARK    6  A    between atoms: C_18  and  C_19 
REMARK    7  A    between atoms: C_19  and  S_20 
REMARK    8  A    between atoms: S_20  and  C_21 
ROOT
HETATM    1  N   UNL     1      26.038  45.619  51.091  1.00  0.00    -0.063 N 
HETATM    2  H   UNL     1      26.956  45.202  51.273  1.00  0.00     0.280 HD
HETATM    3  C   UNL     1      25.291  44.607  50.227  1.00  0.00     0.282 C 
HETATM    4  C   UNL     1      24.154  45.246  49.510  1.00  0.00     0.018 C 
HETATM    5  C   UNL     1      23.960  46.604  49.359  1.00  0.00    -0.023 C 
HETATM    6  C   UNL     1      22.714  46.895  48.682  1.00  0.00     0.073 C 
HETATM    7  C   UNL     1      22.157  45.728  48.168  1.00  0.00     0.093 C 
HETATM    8  S   UNL     1      22.965  44.336  48.726  1.00  0.00    -0.074 SA
HETATM    9  C   UNL     1      24.948  47.596  49.913  1.00  0.00     0.068 C 
HETATM   10  C   UNL     1      26.273  46.917  50.324  1.00  0.00     0.240 C 
ENDROOT
BRANCH   7  11
HETATM   11  N   UNL     1      21.113  45.628  47.259  1.00  0.00    -0.320 N 
HETATM   12  C   UNL     1      21.186  45.779  45.884  1.00  0.00     0.223 C 
HETATM   13  O   UNL     1      22.203  45.821  45.201  1.00  0.00    -0.273 OA
HETATM   14  H   UNL     1      20.188  45.466  47.652  1.00  0.00     0.169 HD
BRANCH  12  15
HETATM   15  C   UNL     1      19.818  45.878  45.231  1.00  0.00     0.113 C 
BRANCH  15  16
HETATM   16  C   UNL     1      18.833  46.701  46.052  1.00  0.00     0.088 C 
BRANCH  16  17
HETATM   17  S   UNL     1      18.348  48.225  45.160  1.00  0.00    -0.130 SA
BRANCH  17  18
HETATM   18  C   UNL     1      18.290  49.469  46.443  1.00  0.00     0.000 A 
HETATM   19  C   UNL     1      18.458  50.842  46.236  1.00  0.00     0.020 A 
HETATM   20  C   UNL     1      18.401  51.737  47.312  1.00  0.00     0.025 A 
HETATM   21  C   UNL     1      18.174  51.265  48.601  1.00  0.00     0.034 A 
HETATM   22 CL   UNL     1      18.103  52.366  49.918  1.00  0.00    -0.084 Cl
HETATM   23  C   UNL     1      18.006  49.903  48.825  1.00  0.00     0.025 A 
HETATM   24  C   UNL     1      18.065  49.011  47.750  1.00  0.00     0.020 A 
ENDBRANCH  17  18
ENDBRANCH  16  17
ENDBRANCH  15  16
ENDBRANCH  12  15
ENDBRANCH   7  11
BRANCH   6  25
HETATM   25  C   UNL     1      22.170  48.242  48.518  1.00  0.00     0.252 C 
HETATM   26  N   UNL     1      21.319  48.671  49.495  1.00  0.00    -0.366 N 
HETATM   27  H   UNL     1      21.253  48.208  50.393  1.00  0.00     0.159 HD
HETATM   28  H   UNL     1      21.059  49.649  49.468  1.00  0.00     0.159 HD
HETATM   29  O   UNL     1      22.514  48.991  47.611  1.00  0.00    -0.268 OA
ENDBRANCH   6  25
BRANCH   1  30
HETATM   30  C   UNL     1      25.415  45.864  52.448  1.00  0.00     0.273 C 
BRANCH  30  31
HETATM   31  C   UNL     1      26.387  46.178  53.551  1.00  0.00    -0.033 A 
HETATM   32  C   UNL     1      27.380  45.265  53.941  1.00  0.00     0.009 A 
HETATM   33  C   UNL     1      28.272  45.590  54.965  1.00  0.00     0.001 A 
HETATM   34  C   UNL     1      28.195  46.830  55.595  1.00  0.00     0.000 A 
HETATM   35  C   UNL     1      27.226  47.750  55.205  1.00  0.00     0.001 A 
HETATM   36  C   UNL     1      26.326  47.427  54.190  1.00  0.00     0.009 A 
ENDBRANCH  30  31
ENDBRANCH   1  30
TORSDOF 8
ENDMDL
MODEL 10
REMARK VINA RESULT:      -8.3      7.363     10.368
REMARK  8 active torsions:
REMARK  status: ('A' for Active; 'I' for Inactive)
REMARK    1  A    between atoms: C_4  and  C_5 
REMARK    2  A    between atoms: C_5  and  N_6 
REMARK    3  A    between atoms: C_11  and  C_12 
REMARK       I    between atoms: C_12  and  N_13 
REMARK    4  A    between atoms: C_15  and  N_16 
REMARK       I    between atoms: N_16  and  C_17 
REMARK    5  A    between atoms: C_17  and  C_18 
REMARK    6  A    between atoms: C_18  and  C_19 
REMARK    7  A    between atoms: C_19  and  S_20 
REMARK    8  A    between atoms: S_20  and  C_21 
ROOT
HETATM    1  N   UNL     1      27.826  43.854  53.872  1.00  0.00    -0.063 N 
HETATM    2  H   UNL     1      27.447  44.474  54.595  1.00  0.00     0.280 HD
HETATM    3  C   UNL     1      27.121  44.251  52.579  1.00  0.00     0.282 C 
HETATM    4  C   UNL     1      27.213  43.169  51.561  1.00  0.00     0.018 C 
HETATM    5  C   UNL     1      27.582  41.863  51.807  1.00  0.00    -0.023 C 
HETATM    6  C   UNL     1      27.650  41.086  50.587  1.00  0.00     0.073 C 
HETATM    7  C   UNL     1      27.110  41.803  49.525  1.00  0.00     0.093 C 
HETATM    8  S   UNL     1      26.801  43.426  49.942  1.00  0.00    -0.074 SA
HETATM    9  C   UNL     1      27.913  41.399  53.201  1.00  0.00     0.068 C 
HETATM   10  C   UNL     1      27.468  42.424  54.267  1.00  0.00     0.240 C 
ENDROOT
BRANCH   7  11
HETATM   11  N   UNL     1      26.774  41.316  48.269  1.00  0.00    -0.320 N 
HETATM   12  C   UNL     1      27.629  41.106  47.200  1.00  0.00     0.223 C 
HETATM   13  O   UNL     1      28.854  41.113  47.224  1.00  0.00    -0.273 OA
HETATM   14  H   UNL     1      25.786  41.131  48.107  1.00  0.00     0.169 HD
BRANCH  12  15
HETATM   15  C   UNL     1      26.889  40.830  45.903  1.00  0.00     0.113 C 
BRANCH  15  16
HETATM   16  C   UNL     1      27.815  40.794  44.693  1.00  0.00     0.088 C 
BRANCH  16  17
HETATM   17  S   UNL     1      27.308  39.485  43.517  1.00  0.00    -0.130 SA
BRANCH  17  18
HETATM   18  C   UNL     1      28.449  38.149  43.848  1.00  0.00     0.000 A 
HETATM   19  C   UNL     1      28.624  37.534  45.091  1.00  0.00     0.020 A 
HETATM   20  C   UNL     1      29.551  36.495  45.248  1.00  0.00     0.025 A 
HETATM   21  C   UNL     1      30.306  36.065  44.162  1.00  0.00     0.034 A 
HETATM   22 CL   UNL     1      31.442  34.789  44.358  1.00  0.00    -0.084 Cl
HETATM   23  C   UNL     1      30.146  36.666  42.918  1.00  0.00     0.025 A 
HETATM   24  C   UNL     1      29.222  37.703  42.765  1.00  0.00     0.020 A 
ENDBRANCH  17  18
ENDBRANCH  16  17
ENDBRANCH  15  16
ENDBRANCH  12  15
ENDBRANCH   7  11
BRANCH   6  25
HETATM   25  C   UNL     1      28.161  39.718  50.519  1.00  0.00     0.252 C 
HETATM   26  N   UNL     1      29.282  39.457  51.252  1.00  0.00    -0.366 N 
HETATM   27  H   UNL     1      29.604  40.077  51.984  1.00  0.00     0.159 HD
HETATM   28  H   UNL     1      29.553  38.484  51.329  1.00  0.00     0.159 HD
HETATM   29  O   UNL     1      27.581  38.822  49.917  1.00  0.00    -0.268 OA
ENDBRANCH   6  25
BRANCH   1  30
HETATM   30  C   UNL     1      29.322  44.085  53.867  1.00  0.00     0.273 C 
BRANCH  30  31
HETATM   31  C   UNL     1      29.951  44.237  55.224  1.00  0.00    -0.033 A 
HETATM   32  C   UNL     1      29.637  45.316  56.065  1.00  0.00     0.009 A 
HETATM   33  C   UNL     1      30.233  45.425  57.324  1.00  0.00     0.001 A 
HETATM   34  C   UNL     1      31.131  44.452  57.760  1.00  0.00     0.000 A 
HETATM   35  C   UNL     1      31.437  43.369  56.941  1.00  0.00     0.001 A 
HETATM   36  C   UNL     1      30.851  43.262  55.680  1.00  0.00     0.009 A 
ENDBRANCH  30  31
ENDBRANCH   1  30
TORSDOF 8
ENDMDL
