MODEL 1
REMARK VINA RESULT:     -11.5      0.000      0.000
REMARK  4 active torsions:
REMARK  status: ('A' for Active; 'I' for Inactive)
REMARK    1  A    between atoms: C_4  and  C_5 
REMARK    2  A    between atoms: N_8  and  C_9 
REMARK    3  A    between atoms: C_12  and  C_13 
REMARK       I    between atoms: C_13  and  N_14 
REMARK    4  A    between atoms: N_14  and  N_15 
ROOT
HETATM    1  C   UNL     1      26.311  44.703  50.234  1.00  0.00     0.034 A 
HETATM    2  C   UNL     1      27.015  45.859  49.880  1.00  0.00     0.030 A 
HETATM    3  C   UNL     1      26.350  47.066  49.599  1.00  0.00     0.019 A 
HETATM    4  C   UNL     1      24.955  47.130  49.660  1.00  0.00     0.033 A 
HETATM    5  C   UNL     1      24.239  45.977  49.995  1.00  0.00     0.019 A 
HETATM    6  C   UNL     1      24.909  44.782  50.268  1.00  0.00     0.030 A 
ENDROOT
BRANCH   4   7
HETATM    7  C   UNL     1      24.178  48.384  49.445  1.00  0.00     0.271 C 
HETATM    8  N   UNL     1      22.800  48.292  49.561  1.00  0.00    -0.242 N 
HETATM    9  H   UNL     1      22.339  47.436  49.868  1.00  0.00     0.192 HD
HETATM   10  O   UNL     1      24.790  49.423  49.201  1.00  0.00    -0.266 OA
BRANCH   8  11
HETATM   11  N   UNL     1      22.047  49.418  49.369  1.00  0.00    -0.166 NA
HETATM   12  C   UNL     1      20.826  49.258  48.975  1.00  0.00     0.157 A 
HETATM   13  C   UNL     1      20.073  47.959  48.687  1.00  0.00     0.277 A 
HETATM   14  C   UNL     1      19.878  50.336  48.719  1.00  0.00     0.027 A 
HETATM   15  O   UNL     1      20.548  46.847  48.787  1.00  0.00    -0.266 OA
HETATM   16  N   UNL     1      18.802  48.343  48.312  1.00  0.00    -0.321 N 
HETATM   17  C   UNL     1      18.685  49.732  48.328  1.00  0.00     0.048 A 
HETATM   18  H   UNL     1      18.074  47.691  48.062  1.00  0.00     0.169 HD
HETATM   19  C   UNL     1      17.575  50.486  48.014  1.00  0.00     0.030 A 
HETATM   20  C   UNL     1      17.698  51.879  48.101  1.00  0.00     0.002 A 
HETATM   21  C   UNL     1      18.911  52.483  48.496  1.00  0.00     0.001 A 
HETATM   22  C   UNL     1      20.025  51.704  48.813  1.00  0.00     0.016 A 
ENDBRANCH   8  11
ENDBRANCH   4   7
BRANCH   1  23
HETATM   23  N   UNL     1      26.905  43.471  50.558  1.00  0.00    -0.335 N 
HETATM   24  C   UNL     1      27.634  43.111  51.639  1.00  0.00     0.171 A 
HETATM   25  N   UNL     1      28.125  43.878  52.587  1.00  0.00    -0.223 NA
HETATM   26  S   UNL     1      27.993  41.427  51.837  1.00  0.00    -0.061 SA
HETATM   27  C   UNL     1      28.796  43.126  53.541  1.00  0.00     0.076 A 
HETATM   28  C   UNL     1      28.826  41.770  53.289  1.00  0.00     0.085 A 
HETATM   29  H   UNL     1      26.619  42.709  49.955  1.00  0.00     0.168 HD
BRANCH  27  30
HETATM   30  C   UNL     1      29.443  43.755  54.688  1.00  0.00    -0.007 A 
HETATM   31  C   UNL     1      30.564  43.185  55.311  1.00  0.00     0.014 A 
HETATM   32  C   UNL     1      31.175  43.821  56.396  1.00  0.00     0.001 A 
HETATM   33  C   UNL     1      30.672  45.031  56.870  1.00  0.00     0.000 A 
HETATM   34  C   UNL     1      29.553  45.602  56.267  1.00  0.00     0.001 A 
HETATM   35  C   UNL     1      28.940  44.965  55.185  1.00  0.00     0.014 A 
ENDBRANCH  27  30
ENDBRANCH   1  23
TORSDOF 4
ENDMDL
MODEL 2
REMARK VINA RESULT:     -10.5      1.384      2.531
REMARK  4 active torsions:
REMARK  status: ('A' for Active; 'I' for Inactive)
REMARK    1  A    between atoms: C_4  and  C_5 
REMARK    2  A    between atoms: N_8  and  C_9 
REMARK    3  A    between atoms: C_12  and  C_13 
REMARK       I    between atoms: C_13  and  N_14 
REMARK    4  A    between atoms: N_14  and  N_15 
ROOT
HETATM    1  C   UNL     1      25.643  42.882  50.171  1.00  0.00     0.034 A 
HETATM    2  C   UNL     1      25.812  44.105  49.510  1.00  0.00     0.030 A 
HETATM    3  C   UNL     1      24.709  44.871  49.093  1.00  0.00     0.019 A 
HETATM    4  C   UNL     1      23.408  44.416  49.328  1.00  0.00     0.033 A 
HETATM    5  C   UNL     1      23.226  43.189  49.971  1.00  0.00     0.019 A 
HETATM    6  C   UNL     1      24.329  42.432  50.377  1.00  0.00     0.030 A 
ENDROOT
BRANCH   4   7
HETATM    7  C   UNL     1      22.187  45.199  48.981  1.00  0.00     0.271 C 
HETATM    8  N   UNL     1      22.324  46.577  48.927  1.00  0.00    -0.242 N 
HETATM    9  H   UNL     1      23.230  47.035  49.028  1.00  0.00     0.192 HD
HETATM   10  O   UNL     1      21.144  44.591  48.744  1.00  0.00    -0.266 OA
BRANCH   8  11
HETATM   11  N   UNL     1      21.229  47.335  48.617  1.00  0.00    -0.166 NA
HETATM   12  C   UNL     1      21.320  48.613  48.790  1.00  0.00     0.157 A 
HETATM   13  C   UNL     1      22.506  49.430  49.301  1.00  0.00     0.277 A 
HETATM   14  C   UNL     1      20.260  49.575  48.513  1.00  0.00     0.027 A 
HETATM   15  O   UNL     1      23.574  48.963  49.640  1.00  0.00    -0.266 OA
HETATM   16  N   UNL     1      22.087  50.744  49.282  1.00  0.00    -0.321 N 
HETATM   17  C   UNL     1      20.774  50.833  48.824  1.00  0.00     0.048 A 
HETATM   18  H   UNL     1      22.667  51.518  49.568  1.00  0.00     0.169 HD
HETATM   19  C   UNL     1      20.012  51.972  48.668  1.00  0.00     0.030 A 
HETATM   20  C   UNL     1      18.706  51.810  48.189  1.00  0.00     0.002 A 
HETATM   21  C   UNL     1      18.192  50.533  47.878  1.00  0.00     0.001 A 
HETATM   22  C   UNL     1      18.978  49.390  48.040  1.00  0.00     0.016 A 
ENDBRANCH   8  11
ENDBRANCH   4   7
BRANCH   1  23
HETATM   23  N   UNL     1      26.693  42.076  50.644  1.00  0.00    -0.335 N 
HETATM   24  C   UNL     1      27.505  42.239  51.713  1.00  0.00     0.171 A 
HETATM   25  N   UNL     1      27.636  43.292  52.488  1.00  0.00    -0.223 NA
HETATM   26  S   UNL     1      28.528  40.909  52.151  1.00  0.00    -0.061 SA
HETATM   27  C   UNL     1      28.558  43.058  53.499  1.00  0.00     0.076 A 
HETATM   28  C   UNL     1      29.145  41.810  53.466  1.00  0.00     0.085 A 
HETATM   29  H   UNL     1      26.747  41.171  50.193  1.00  0.00     0.168 HD
BRANCH  27  30
HETATM   30  C   UNL     1      28.887  44.087  54.481  1.00  0.00    -0.007 A 
HETATM   31  C   UNL     1      28.056  45.198  54.696  1.00  0.00     0.014 A 
HETATM   32  C   UNL     1      28.388  46.158  55.658  1.00  0.00     0.001 A 
HETATM   33  C   UNL     1      29.552  46.019  56.410  1.00  0.00     0.000 A 
HETATM   34  C   UNL     1      30.390  44.926  56.199  1.00  0.00     0.001 A 
HETATM   35  C   UNL     1      30.062  43.968  55.236  1.00  0.00     0.014 A 
ENDBRANCH  27  30
ENDBRANCH   1  23
TORSDOF 4
ENDMDL
MODEL 3
REMARK VINA RESULT:     -10.4      3.173     10.872
REMARK  4 active torsions:
REMARK  status: ('A' for Active; 'I' for Inactive)
REMARK    1  A    between atoms: C_4  and  C_5 
REMARK    2  A    between atoms: N_8  and  C_9 
REMARK    3  A    between atoms: C_12  and  C_13 
REMARK       I    between atoms: C_13  and  N_14 
REMARK    4  A    between atoms: N_14  and  N_15 
ROOT
HETATM    1  C   UNL     1      24.409  43.973  49.039  1.00  0.00     0.034 A 
HETATM    2  C   UNL     1      25.489  44.847  49.208  1.00  0.00     0.030 A 
HETATM    3  C   UNL     1      26.501  44.590  50.150  1.00  0.00     0.019 A 
HETATM    4  C   UNL     1      26.441  43.445  50.950  1.00  0.00     0.033 A 
HETATM    5  C   UNL     1      25.358  42.572  50.803  1.00  0.00     0.019 A 
HETATM    6  C   UNL     1      24.356  42.840  49.868  1.00  0.00     0.030 A 
ENDROOT
BRANCH   4   7
HETATM    7  C   UNL     1      27.506  43.062  51.922  1.00  0.00     0.271 C 
HETATM    8  N   UNL     1      27.891  44.029  52.837  1.00  0.00    -0.242 N 
HETATM    9  H   UNL     1      27.413  44.927  52.909  1.00  0.00     0.192 HD
HETATM   10  O   UNL     1      27.964  41.922  51.876  1.00  0.00    -0.266 OA
BRANCH   8  11
HETATM   11  N   UNL     1      28.867  43.723  53.745  1.00  0.00    -0.166 NA
HETATM   12  C   UNL     1      29.011  44.516  54.756  1.00  0.00     0.157 A 
HETATM   13  C   UNL     1      28.225  45.780  55.103  1.00  0.00     0.277 A 
HETATM   14  C   UNL     1      29.993  44.350  55.820  1.00  0.00     0.027 A 
HETATM   15  O   UNL     1      27.321  46.239  54.435  1.00  0.00    -0.266 OA
HETATM   16  N   UNL     1      28.765  46.240  56.286  1.00  0.00    -0.321 N 
HETATM   17  C   UNL     1      29.800  45.407  56.708  1.00  0.00     0.048 A 
HETATM   18  H   UNL     1      28.442  47.068  56.762  1.00  0.00     0.169 HD
HETATM   19  C   UNL     1      30.579  45.539  57.838  1.00  0.00     0.030 A 
HETATM   20  C   UNL     1      31.569  44.571  58.053  1.00  0.00     0.002 A 
HETATM   21  C   UNL     1      31.759  43.504  57.148  1.00  0.00     0.001 A 
HETATM   22  C   UNL     1      30.960  43.385  56.009  1.00  0.00     0.016 A 
ENDBRANCH   8  11
ENDBRANCH   4   7
BRANCH   1  23
HETATM   23  N   UNL     1      23.377  44.147  48.100  1.00  0.00    -0.335 N 
HETATM   24  C   UNL     1      22.654  45.247  47.793  1.00  0.00     0.171 A 
HETATM   25  N   UNL     1      22.610  46.400  48.422  1.00  0.00    -0.223 NA
HETATM   26  S   UNL     1      21.634  45.168  46.393  1.00  0.00    -0.061 SA
HETATM   27  C   UNL     1      21.762  47.291  47.777  1.00  0.00     0.076 A 
HETATM   28  C   UNL     1      21.143  46.784  46.654  1.00  0.00     0.085 A 
HETATM   29  H   UNL     1      23.266  43.364  47.468  1.00  0.00     0.168 HD
BRANCH  27  30
HETATM   30  C   UNL     1      21.536  48.635  48.296  1.00  0.00    -0.007 A 
HETATM   31  C   UNL     1      20.463  48.928  49.153  1.00  0.00     0.014 A 
HETATM   32  C   UNL     1      20.282  50.222  49.651  1.00  0.00     0.001 A 
HETATM   33  C   UNL     1      21.168  51.236  49.295  1.00  0.00     0.000 A 
HETATM   34  C   UNL     1      22.231  50.962  48.437  1.00  0.00     0.001 A 
HETATM   35  C   UNL     1      22.411  49.669  47.937  1.00  0.00     0.014 A 
ENDBRANCH  27  30
ENDBRANCH   1  23
TORSDOF 4
ENDMDL
MODEL 4
REMARK VINA RESULT:     -10.3      2.963     10.958
REMARK  4 active torsions:
REMARK  status: ('A' for Active; 'I' for Inactive)
REMARK    1  A    between atoms: C_4  and  C_5 
REMARK    2  A    between atoms: N_8  and  C_9 
REMARK    3  A    between atoms: C_12  and  C_13 
REMARK       I    between atoms: C_13  and  N_14 
REMARK    4  A    between atoms: N_14  and  N_15 
ROOT
HETATM    1  C   UNL     1      22.329  44.770  49.034  1.00  0.00     0.034 A 
HETATM    2  C   UNL     1      23.371  45.685  48.846  1.00  0.00     0.030 A 
HETATM    3  C   UNL     1      24.614  45.525  49.485  1.00  0.00     0.019 A 
HETATM    4  C   UNL     1      24.830  44.438  50.337  1.00  0.00     0.033 A 
HETATM    5  C   UNL     1      23.791  43.526  50.548  1.00  0.00     0.019 A 
HETATM    6  C   UNL     1      22.559  43.698  49.912  1.00  0.00     0.030 A 
ENDROOT
BRANCH   4   7
HETATM    7  C   UNL     1      26.136  44.156  50.998  1.00  0.00     0.271 C 
HETATM    8  N   UNL     1      26.088  43.681  52.298  1.00  0.00    -0.242 N 
HETATM    9  H   UNL     1      25.208  43.445  52.756  1.00  0.00     0.192 HD
HETATM   10  O   UNL     1      27.172  44.337  50.359  1.00  0.00    -0.266 OA
BRANCH   8  11
HETATM   11  N   UNL     1      27.263  43.412  52.945  1.00  0.00    -0.166 NA
HETATM   12  C   UNL     1      27.657  44.256  53.842  1.00  0.00     0.157 A 
HETATM   13  C   UNL     1      26.982  45.546  54.308  1.00  0.00     0.277 A 
HETATM   14  C   UNL     1      28.877  44.135  54.630  1.00  0.00     0.027 A 
HETATM   15  O   UNL     1      25.937  45.979  53.867  1.00  0.00    -0.266 OA
HETATM   16  N   UNL     1      27.803  46.061  55.289  1.00  0.00    -0.321 N 
HETATM   17  C   UNL     1      28.913  45.239  55.479  1.00  0.00     0.048 A 
HETATM   18  H   UNL     1      27.609  46.917  55.785  1.00  0.00     0.169 HD
HETATM   19  C   UNL     1      29.952  45.422  56.367  1.00  0.00     0.030 A 
HETATM   20  C   UNL     1      30.967  44.456  56.376  1.00  0.00     0.002 A 
HETATM   21  C   UNL     1      30.924  43.341  55.512  1.00  0.00     0.001 A 
HETATM   22  C   UNL     1      29.863  43.170  54.620  1.00  0.00     0.016 A 
ENDBRANCH   8  11
ENDBRANCH   4   7
BRANCH   1  23
HETATM   23  N   UNL     1      21.073  44.847  48.408  1.00  0.00    -0.335 N 
HETATM   24  C   UNL     1      20.271  45.914  48.190  1.00  0.00     0.171 A 
HETATM   25  N   UNL     1      20.383  47.133  48.667  1.00  0.00    -0.223 NA
HETATM   26  S   UNL     1      18.902  45.685  47.151  1.00  0.00    -0.061 SA
HETATM   27  C   UNL     1      19.371  47.954  48.187  1.00  0.00     0.076 A 
HETATM   28  C   UNL     1      18.472  47.328  47.349  1.00  0.00     0.085 A 
HETATM   29  H   UNL     1      20.805  43.997  47.928  1.00  0.00     0.168 HD
BRANCH  27  30
HETATM   30  C   UNL     1      19.273  49.353  48.588  1.00  0.00    -0.007 A 
HETATM   31  C   UNL     1      18.240  49.814  49.420  1.00  0.00     0.014 A 
HETATM   32  C   UNL     1      18.182  51.157  49.804  1.00  0.00     0.001 A 
HETATM   33  C   UNL     1      19.153  52.053  49.359  1.00  0.00     0.000 A 
HETATM   34  C   UNL     1      20.177  51.610  48.525  1.00  0.00     0.001 A 
HETATM   35  C   UNL     1      20.234  50.269  48.138  1.00  0.00     0.014 A 
ENDBRANCH  27  30
ENDBRANCH   1  23
TORSDOF 4
ENDMDL
MODEL 5
REMARK VINA RESULT:     -10.1      2.967     11.352
REMARK  4 active torsions:
REMARK  status: ('A' for Active; 'I' for Inactive)
REMARK    1  A    between atoms: C_4  and  C_5 
REMARK    2  A    between atoms: N_8  and  C_9 
REMARK    3  A    between atoms: C_12  and  C_13 
REMARK       I    between atoms: C_13  and  N_14 
REMARK    4  A    between atoms: N_14  and  N_15 
ROOT
HETATM    1  C   UNL     1      23.923  45.908  49.558  1.00  0.00     0.034 A 
HETATM    2  C   UNL     1      24.417  47.192  49.817  1.00  0.00     0.030 A 
HETATM    3  C   UNL     1      25.093  47.490  51.014  1.00  0.00     0.019 A 
HETATM    4  C   UNL     1      25.278  46.499  51.982  1.00  0.00     0.033 A 
HETATM    5  C   UNL     1      24.772  45.217  51.743  1.00  0.00     0.019 A 
HETATM    6  C   UNL     1      24.098  44.933  50.553  1.00  0.00     0.030 A 
ENDROOT
BRANCH   4   7
HETATM    7  C   UNL     1      26.042  46.713  53.244  1.00  0.00     0.271 C 
HETATM    8  N   UNL     1      26.981  45.750  53.576  1.00  0.00    -0.242 N 
HETATM    9  H   UNL     1      27.210  44.979  52.949  1.00  0.00     0.192 HD
HETATM   10  O   UNL     1      25.819  47.727  53.904  1.00  0.00    -0.266 OA
BRANCH   8  11
HETATM   11  N   UNL     1      27.703  45.904  54.728  1.00  0.00    -0.166 NA
HETATM   12  C   UNL     1      28.676  45.078  54.936  1.00  0.00     0.157 A 
HETATM   13  C   UNL     1      29.159  43.923  54.060  1.00  0.00     0.277 A 
HETATM   14  C   UNL     1      29.551  45.090  56.103  1.00  0.00     0.027 A 
HETATM   15  O   UNL     1      28.661  43.603  53.000  1.00  0.00    -0.266 OA
HETATM   16  N   UNL     1      30.231  43.371  54.730  1.00  0.00    -0.321 N 
HETATM   17  C   UNL     1      30.462  44.050  55.926  1.00  0.00     0.048 A 
HETATM   18  H   UNL     1      30.758  42.584  54.386  1.00  0.00     0.169 HD
HETATM   19  C   UNL     1      31.439  43.792  56.864  1.00  0.00     0.030 A 
HETATM   20  C   UNL     1      31.474  44.614  57.998  1.00  0.00     0.002 A 
HETATM   21  C   UNL     1      30.546  45.664  58.170  1.00  0.00     0.001 A 
HETATM   22  C   UNL     1      29.564  45.913  57.209  1.00  0.00     0.016 A 
ENDBRANCH   8  11
ENDBRANCH   4   7
BRANCH   1  23
HETATM   23  N   UNL     1      23.265  45.527  48.376  1.00  0.00    -0.335 N 
HETATM   24  C   UNL     1      22.156  46.036  47.791  1.00  0.00     0.171 A 
HETATM   25  N   UNL     1      21.303  46.910  48.276  1.00  0.00    -0.223 NA
HETATM   26  S   UNL     1      21.772  45.486  46.193  1.00  0.00    -0.061 SA
HETATM   27  C   UNL     1      20.305  47.199  47.355  1.00  0.00     0.076 A 
HETATM   28  C   UNL     1      20.403  46.509  46.165  1.00  0.00     0.085 A 
HETATM   29  H   UNL     1      23.788  44.868  47.813  1.00  0.00     0.168 HD
BRANCH  27  30
HETATM   30  C   UNL     1      19.229  48.133  47.669  1.00  0.00    -0.007 A 
HETATM   31  C   UNL     1      18.288  48.530  46.706  1.00  0.00     0.014 A 
HETATM   32  C   UNL     1      17.256  49.412  47.041  1.00  0.00     0.001 A 
HETATM   33  C   UNL     1      17.155  49.907  48.339  1.00  0.00     0.000 A 
HETATM   34  C   UNL     1      18.088  49.529  49.302  1.00  0.00     0.001 A 
HETATM   35  C   UNL     1      19.122  48.651  48.967  1.00  0.00     0.014 A 
ENDBRANCH  27  30
ENDBRANCH   1  23
TORSDOF 4
ENDMDL
MODEL 6
REMARK VINA RESULT:      -9.8      1.779      2.372
REMARK  4 active torsions:
REMARK  status: ('A' for Active; 'I' for Inactive)
REMARK    1  A    between atoms: C_4  and  C_5 
REMARK    2  A    between atoms: N_8  and  C_9 
REMARK    3  A    between atoms: C_12  and  C_13 
REMARK       I    between atoms: C_13  and  N_14 
REMARK    4  A    between atoms: N_14  and  N_15 
ROOT
HETATM    1  C   UNL     1      25.253  43.374  49.796  1.00  0.00     0.034 A 
HETATM    2  C   UNL     1      23.870  43.164  49.840  1.00  0.00     0.030 A 
HETATM    3  C   UNL     1      22.961  44.205  49.579  1.00  0.00     0.019 A 
HETATM    4  C   UNL     1      23.429  45.487  49.276  1.00  0.00     0.033 A 
HETATM    5  C   UNL     1      24.808  45.714  49.247  1.00  0.00     0.019 A 
HETATM    6  C   UNL     1      25.703  44.674  49.512  1.00  0.00     0.030 A 
ENDROOT
BRANCH   4   7
HETATM    7  C   UNL     1      22.536  46.626  48.919  1.00  0.00     0.271 C 
HETATM    8  N   UNL     1      21.173  46.415  49.049  1.00  0.00    -0.242 N 
HETATM    9  H   UNL     1      20.795  45.559  49.454  1.00  0.00     0.192 HD
HETATM   10  O   UNL     1      23.047  47.684  48.555  1.00  0.00    -0.266 OA
BRANCH   8  11
HETATM   11  N   UNL     1      20.316  47.432  48.729  1.00  0.00    -0.166 NA
HETATM   12  C   UNL     1      19.122  47.109  48.353  1.00  0.00     0.157 A 
HETATM   13  C   UNL     1      18.503  45.719  48.211  1.00  0.00     0.277 A 
HETATM   14  C   UNL     1      18.077  48.054  47.976  1.00  0.00     0.027 A 
HETATM   15  O   UNL     1      19.083  44.677  48.435  1.00  0.00    -0.266 OA
HETATM   16  N   UNL     1      17.206  45.931  47.792  1.00  0.00    -0.321 N 
HETATM   17  C   UNL     1      16.954  47.295  47.652  1.00  0.00     0.048 A 
HETATM   18  H   UNL     1      16.549  45.187  47.615  1.00  0.00     0.169 HD
HETATM   19  C   UNL     1      15.779  47.896  47.252  1.00  0.00     0.030 A 
HETATM   20  C   UNL     1      15.765  49.296  47.183  1.00  0.00     0.002 A 
HETATM   21  C   UNL     1      16.907  50.057  47.512  1.00  0.00     0.001 A 
HETATM   22  C   UNL     1      18.088  49.432  47.916  1.00  0.00     0.016 A 
ENDBRANCH   8  11
ENDBRANCH   4   7
BRANCH   1  23
HETATM   23  N   UNL     1      26.221  42.379  50.015  1.00  0.00    -0.335 N 
HETATM   24  C   UNL     1      27.140  42.257  51.001  1.00  0.00     0.171 A 
HETATM   25  N   UNL     1      27.480  43.137  51.915  1.00  0.00    -0.223 NA
HETATM   26  S   UNL     1      28.007  40.759  51.105  1.00  0.00    -0.061 SA
HETATM   27  C   UNL     1      28.448  42.623  52.768  1.00  0.00     0.076 A 
HETATM   28  C   UNL     1      28.854  41.339  52.471  1.00  0.00     0.085 A 
HETATM   29  H   UNL     1      26.111  41.566  49.422  1.00  0.00     0.168 HD
BRANCH  27  30
HETATM   30  C   UNL     1      29.000  43.420  53.859  1.00  0.00    -0.007 A 
HETATM   31  C   UNL     1      30.168  43.038  54.538  1.00  0.00     0.014 A 
HETATM   32  C   UNL     1      30.684  43.832  55.567  1.00  0.00     0.001 A 
HETATM   33  C   UNL     1      30.039  45.012  55.929  1.00  0.00     0.000 A 
HETATM   34  C   UNL     1      28.873  45.397  55.270  1.00  0.00     0.001 A 
HETATM   35  C   UNL     1      28.354  44.603  54.244  1.00  0.00     0.014 A 
ENDBRANCH  27  30
ENDBRANCH   1  23
TORSDOF 4
ENDMDL
MODEL 7
REMARK VINA RESULT:      -9.7      5.297     12.894
REMARK  4 active torsions:
REMARK  status: ('A' for Active; 'I' for Inactive)
REMARK    1  A    between atoms: C_4  and  C_5 
REMARK    2  A    between atoms: N_8  and  C_9 
REMARK    3  A    between atoms: C_12  and  C_13 
REMARK       I    between atoms: C_13  and  N_14 
REMARK    4  A    between atoms: N_14  and  N_15 
ROOT
HETATM    1  C   UNL     1      17.558  52.347  48.860  1.00  0.00     0.034 A 
HETATM    2  C   UNL     1      18.648  52.638  48.031  1.00  0.00     0.030 A 
HETATM    3  C   UNL     1      19.936  52.149  48.314  1.00  0.00     0.019 A 
HETATM    4  C   UNL     1      20.154  51.360  49.447  1.00  0.00     0.033 A 
HETATM    5  C   UNL     1      19.078  51.077  50.292  1.00  0.00     0.019 A 
HETATM    6  C   UNL     1      17.803  51.572  50.005  1.00  0.00     0.030 A 
ENDROOT
BRANCH   4   7
HETATM    7  C   UNL     1      21.471  50.745  49.781  1.00  0.00     0.271 C 
HETATM    8  N   UNL     1      22.078  49.993  48.788  1.00  0.00    -0.242 N 
HETATM    9  H   UNL     1      21.696  49.934  47.844  1.00  0.00     0.192 HD
HETATM   10  O   UNL     1      21.954  50.951  50.893  1.00  0.00    -0.266 OA
BRANCH   8  11
HETATM   11  N   UNL     1      23.286  49.408  49.051  1.00  0.00    -0.166 NA
HETATM   12  C   UNL     1      23.319  48.118  49.130  1.00  0.00     0.157 A 
HETATM   13  C   UNL     1      22.176  47.117  48.964  1.00  0.00     0.277 A 
HETATM   14  C   UNL     1      24.511  47.323  49.402  1.00  0.00     0.027 A 
HETATM   15  O   UNL     1      21.022  47.415  48.733  1.00  0.00    -0.266 OA
HETATM   16  N   UNL     1      22.745  45.872  49.131  1.00  0.00    -0.321 N 
HETATM   17  C   UNL     1      24.111  45.989  49.389  1.00  0.00     0.048 A 
HETATM   18  H   UNL     1      22.227  45.009  49.074  1.00  0.00     0.169 HD
HETATM   19  C   UNL     1      25.014  44.972  49.612  1.00  0.00     0.030 A 
HETATM   20  C   UNL     1      26.345  45.337  49.854  1.00  0.00     0.002 A 
HETATM   21  C   UNL     1      26.743  46.691  49.867  1.00  0.00     0.001 A 
HETATM   22  C   UNL     1      25.814  47.708  49.637  1.00  0.00     0.016 A 
ENDBRANCH   8  11
ENDBRANCH   4   7
BRANCH   1  23
HETATM   23  N   UNL     1      16.239  52.773  48.627  1.00  0.00    -0.335 N 
HETATM   24  C   UNL     1      15.543  53.796  49.176  1.00  0.00     0.171 A 
HETATM   25  N   UNL     1      15.868  54.549  50.202  1.00  0.00    -0.223 NA
HETATM   26  S   UNL     1      14.015  54.196  48.462  1.00  0.00    -0.061 SA
HETATM   27  C   UNL     1      14.898  55.513  50.442  1.00  0.00     0.076 A 
HETATM   28  C   UNL     1      13.815  55.464  49.590  1.00  0.00     0.085 A 
HETATM   29  H   UNL     1      15.803  52.332  47.828  1.00  0.00     0.168 HD
BRANCH  27  30
HETATM   30  C   UNL     1      15.025  56.462  51.543  1.00  0.00    -0.007 A 
HETATM   31  C   UNL     1      15.151  56.038  52.876  1.00  0.00     0.014 A 
HETATM   32  C   UNL     1      15.291  56.970  53.909  1.00  0.00     0.001 A 
HETATM   33  C   UNL     1      15.305  58.333  53.622  1.00  0.00     0.000 A 
HETATM   34  C   UNL     1      15.172  58.767  52.304  1.00  0.00     0.001 A 
HETATM   35  C   UNL     1      15.028  57.837  51.272  1.00  0.00     0.014 A 
ENDBRANCH  27  30
ENDBRANCH   1  23
TORSDOF 4
ENDMDL
MODEL 8
REMARK VINA RESULT:      -9.4      5.593     13.212
REMARK  4 active torsions:
REMARK  status: ('A' for Active; 'I' for Inactive)
REMARK    1  A    between atoms: C_4  and  C_5 
REMARK    2  A    between atoms: N_8  and  C_9 
REMARK    3  A    between atoms: C_12  and  C_13 
REMARK       I    between atoms: C_13  and  N_14 
REMARK    4  A    between atoms: N_14  and  N_15 
ROOT
HETATM    1  C   UNL     1      16.562  52.182  48.543  1.00  0.00     0.034 A 
HETATM    2  C   UNL     1      17.886  52.593  48.739  1.00  0.00     0.030 A 
HETATM    3  C   UNL     1      18.898  51.674  49.068  1.00  0.00     0.019 A 
HETATM    4  C   UNL     1      18.594  50.317  49.214  1.00  0.00     0.033 A 
HETATM    5  C   UNL     1      17.272  49.897  49.039  1.00  0.00     0.019 A 
HETATM    6  C   UNL     1      16.273  50.819  48.717  1.00  0.00     0.030 A 
ENDROOT
BRANCH   4   7
HETATM    7  C   UNL     1      19.618  49.269  49.493  1.00  0.00     0.271 C 
HETATM    8  N   UNL     1      20.929  49.575  49.162  1.00  0.00    -0.242 N 
HETATM    9  H   UNL     1      21.201  50.500  48.830  1.00  0.00     0.192 HD
HETATM   10  O   UNL     1      19.257  48.215  50.012  1.00  0.00    -0.266 OA
BRANCH   8  11
HETATM   11  N   UNL     1      21.901  48.642  49.396  1.00  0.00    -0.166 NA
HETATM   12  C   UNL     1      23.128  48.996  49.195  1.00  0.00     0.157 A 
HETATM   13  C   UNL     1      23.673  50.344  48.724  1.00  0.00     0.277 A 
HETATM   14  C   UNL     1      24.292  48.140  49.392  1.00  0.00     0.027 A 
HETATM   15  O   UNL     1      22.990  51.310  48.453  1.00  0.00    -0.266 OA
HETATM   16  N   UNL     1      25.044  50.198  48.688  1.00  0.00    -0.321 N 
HETATM   17  C   UNL     1      25.410  48.910  49.076  1.00  0.00     0.048 A 
HETATM   18  H   UNL     1      25.676  50.934  48.412  1.00  0.00     0.169 HD
HETATM   19  C   UNL     1      26.682  48.387  49.163  1.00  0.00     0.030 A 
HETATM   20  C   UNL     1      26.803  47.055  49.578  1.00  0.00     0.002 A 
HETATM   21  C   UNL     1      25.666  46.281  49.895  1.00  0.00     0.001 A 
HETATM   22  C   UNL     1      24.384  46.827  49.803  1.00  0.00     0.016 A 
ENDBRANCH   8  11
ENDBRANCH   4   7
BRANCH   1  23
HETATM   23  N   UNL     1      15.504  53.035  48.184  1.00  0.00    -0.335 N 
HETATM   24  C   UNL     1      15.078  54.185  48.755  1.00  0.00     0.171 A 
HETATM   25  N   UNL     1      15.437  54.710  49.905  1.00  0.00    -0.223 NA
HETATM   26  S   UNL     1      13.900  55.118  47.890  1.00  0.00    -0.061 SA
HETATM   27  C   UNL     1      14.790  55.918  50.127  1.00  0.00     0.076 A 
HETATM   28  C   UNL     1      13.912  56.292  49.132  1.00  0.00     0.085 A 
HETATM   29  H   UNL     1      15.099  52.823  47.281  1.00  0.00     0.168 HD
BRANCH  27  30
HETATM   30  C   UNL     1      15.014  56.686  51.348  1.00  0.00    -0.007 A 
HETATM   31  C   UNL     1      15.009  58.090  51.351  1.00  0.00     0.014 A 
HETATM   32  C   UNL     1      15.207  58.799  52.539  1.00  0.00     0.001 A 
HETATM   33  C   UNL     1      15.414  58.114  53.735  1.00  0.00     0.000 A 
HETATM   34  C   UNL     1      15.431  56.721  53.744  1.00  0.00     0.001 A 
HETATM   35  C   UNL     1      15.237  56.011  52.556  1.00  0.00     0.014 A 
ENDBRANCH  27  30
ENDBRANCH   1  23
TORSDOF 4
ENDMDL
MODEL 9
REMARK VINA RESULT:      -9.0      4.254     11.261
REMARK  4 active torsions:
REMARK  status: ('A' for Active; 'I' for Inactive)
REMARK    1  A    between atoms: C_4  and  C_5 
REMARK    2  A    between atoms: N_8  and  C_9 
REMARK    3  A    between atoms: C_12  and  C_13 
REMARK       I    between atoms: C_13  and  N_14 
REMARK    4  A    between atoms: N_14  and  N_15 
ROOT
HETATM    1  C   UNL     1      23.191  46.919  49.207  1.00  0.00     0.034 A 
HETATM    2  C   UNL     1      24.171  47.742  49.774  1.00  0.00     0.030 A 
HETATM    3  C   UNL     1      25.281  47.203  50.450  1.00  0.00     0.019 A 
HETATM    4  C   UNL     1      25.421  45.818  50.576  1.00  0.00     0.033 A 
HETATM    5  C   UNL     1      24.440  44.986  50.029  1.00  0.00     0.019 A 
HETATM    6  C   UNL     1      23.339  45.532  49.364  1.00  0.00     0.030 A 
ENDROOT
BRANCH   4   7
HETATM    7  C   UNL     1      26.600  45.165  51.214  1.00  0.00     0.271 C 
HETATM    8  N   UNL     1      26.623  45.137  52.600  1.00  0.00    -0.242 N 
HETATM    9  H   UNL     1      25.835  45.462  53.160  1.00  0.00     0.192 HD
HETATM   10  O   UNL     1      27.465  44.673  50.492  1.00  0.00    -0.266 OA
BRANCH   8  11
HETATM   11  N   UNL     1      27.687  44.551  53.228  1.00  0.00    -0.166 NA
HETATM   12  C   UNL     1      28.129  45.116  54.304  1.00  0.00     0.157 A 
HETATM   13  C   UNL     1      27.623  46.377  55.003  1.00  0.00     0.277 A 
HETATM   14  C   UNL     1      29.248  44.636  55.105  1.00  0.00     0.027 A 
HETATM   15  O   UNL     1      26.695  47.058  54.617  1.00  0.00    -0.266 OA
HETATM   16  N   UNL     1      28.429  46.537  56.110  1.00  0.00    -0.321 N 
HETATM   17  C   UNL     1      29.382  45.521  56.173  1.00  0.00     0.048 A 
HETATM   18  H   UNL     1      28.328  47.293  56.770  1.00  0.00     0.169 HD
HETATM   19  C   UNL     1      30.361  45.344  57.127  1.00  0.00     0.030 A 
HETATM   20  C   UNL     1      31.213  44.241  56.976  1.00  0.00     0.002 A 
HETATM   21  C   UNL     1      31.072  43.349  55.892  1.00  0.00     0.001 A 
HETATM   22  C   UNL     1      30.073  43.543  54.935  1.00  0.00     0.016 A 
ENDBRANCH   8  11
ENDBRANCH   4   7
BRANCH   1  23
HETATM   23  N   UNL     1      22.072  47.382  48.493  1.00  0.00    -0.335 N 
HETATM   24  C   UNL     1      21.564  46.974  47.308  1.00  0.00     0.171 A 
HETATM   25  N   UNL     1      22.092  46.150  46.431  1.00  0.00    -0.223 NA
HETATM   26  S   UNL     1      20.013  47.597  46.846  1.00  0.00    -0.061 SA
HETATM   27  C   UNL     1      21.245  45.962  45.347  1.00  0.00     0.076 A 
HETATM   28  C   UNL     1      20.068  46.677  45.406  1.00  0.00     0.085 A 
HETATM   29  H   UNL     1      21.487  48.018  49.020  1.00  0.00     0.168 HD
BRANCH  27  30
HETATM   30  C   UNL     1      21.619  45.100  44.231  1.00  0.00    -0.007 A 
HETATM   31  C   UNL     1      20.713  44.775  43.210  1.00  0.00     0.014 A 
HETATM   32  C   UNL     1      21.105  43.962  42.142  1.00  0.00     0.001 A 
HETATM   33  C   UNL     1      22.405  43.464  42.085  1.00  0.00     0.000 A 
HETATM   34  C   UNL     1      23.312  43.771  43.097  1.00  0.00     0.001 A 
HETATM   35  C   UNL     1      22.919  44.580  44.167  1.00  0.00     0.014 A 
ENDBRANCH  27  30
ENDBRANCH   1  23
TORSDOF 4
ENDMDL
MODEL 10
REMARK VINA RESULT:      -8.9      6.053     11.125
REMARK  4 active torsions:
REMARK  status: ('A' for Active; 'I' for Inactive)
REMARK    1  A    between atoms: C_4  and  C_5 
REMARK    2  A    between atoms: N_8  and  C_9 
REMARK    3  A    between atoms: C_12  and  C_13 
REMARK       I    between atoms: C_13  and  N_14 
REMARK    4  A    between atoms: N_14  and  N_15 
ROOT
HETATM    1  C   UNL     1      22.608  42.720  47.296  1.00  0.00     0.034 A 
HETATM    2  C   UNL     1      22.119  43.826  48.000  1.00  0.00     0.030 A 
HETATM    3  C   UNL     1      22.826  44.376  49.084  1.00  0.00     0.019 A 
HETATM    4  C   UNL     1      24.042  43.814  49.488  1.00  0.00     0.033 A 
HETATM    5  C   UNL     1      24.531  42.698  48.804  1.00  0.00     0.019 A 
HETATM    6  C   UNL     1      23.818  42.156  47.731  1.00  0.00     0.030 A 
ENDROOT
BRANCH   4   7
HETATM    7  C   UNL     1      24.886  44.377  50.580  1.00  0.00     0.271 C 
HETATM    8  N   UNL     1      25.457  43.470  51.458  1.00  0.00    -0.242 N 
HETATM    9  H   UNL     1      25.385  42.462  51.317  1.00  0.00     0.192 HD
HETATM   10  O   UNL     1      25.048  45.595  50.633  1.00  0.00    -0.266 OA
BRANCH   8  11
HETATM   11  N   UNL     1      26.237  43.941  52.477  1.00  0.00    -0.166 NA
HETATM   12  C   UNL     1      27.393  43.389  52.649  1.00  0.00     0.157 A 
HETATM   13  C   UNL     1      28.042  42.255  51.855  1.00  0.00     0.277 A 
HETATM   14  C   UNL     1      28.356  43.759  53.679  1.00  0.00     0.027 A 
HETATM   15  O   UNL     1      27.528  41.685  50.915  1.00  0.00    -0.266 OA
HETATM   16  N   UNL     1      29.277  42.054  52.436  1.00  0.00    -0.321 N 
HETATM   17  C   UNL     1      29.464  42.931  53.504  1.00  0.00     0.048 A 
HETATM   18  H   UNL     1      29.937  41.361  52.118  1.00  0.00     0.169 HD
HETATM   19  C   UNL     1      30.565  43.031  54.328  1.00  0.00     0.030 A 
HETATM   20  C   UNL     1      30.522  43.994  55.344  1.00  0.00     0.002 A 
HETATM   21  C   UNL     1      29.396  44.828  55.515  1.00  0.00     0.001 A 
HETATM   22  C   UNL     1      28.290  44.715  54.671  1.00  0.00     0.016 A 
ENDBRANCH   8  11
ENDBRANCH   4   7
BRANCH   1  23
HETATM   23  N   UNL     1      21.974  42.134  46.186  1.00  0.00    -0.335 N 
HETATM   24  C   UNL     1      21.185  41.038  46.109  1.00  0.00     0.171 A 
HETATM   25  N   UNL     1      20.950  40.133  47.032  1.00  0.00    -0.223 NA
HETATM   26  S   UNL     1      20.358  40.752  44.613  1.00  0.00    -0.061 SA
HETATM   27  C   UNL     1      20.058  39.172  46.575  1.00  0.00     0.076 A 
HETATM   28  C   UNL     1      19.635  39.352  45.275  1.00  0.00     0.085 A 
HETATM   29  H   UNL     1      22.004  42.706  45.352  1.00  0.00     0.168 HD
BRANCH  27  30
HETATM   30  C   UNL     1      19.652  38.051  47.416  1.00  0.00    -0.007 A 
HETATM   31  C   UNL     1      18.578  38.149  48.314  1.00  0.00     0.014 A 
HETATM   32  C   UNL     1      18.200  37.051  49.093  1.00  0.00     0.001 A 
HETATM   33  C   UNL     1      18.891  35.847  48.985  1.00  0.00     0.000 A 
HETATM   34  C   UNL     1      19.965  35.739  48.104  1.00  0.00     0.001 A 
HETATM   35  C   UNL     1      20.346  36.836  47.328  1.00  0.00     0.014 A 
ENDBRANCH  27  30
ENDBRANCH   1  23
TORSDOF 4
ENDMDL
