MODEL 1
REMARK VINA RESULT:      -6.9      0.000      0.000
REMARK  11 active torsions:
REMARK  status: ('A' for Active; 'I' for Inactive)
REMARK    1  A    between atoms: C_1  and  C_17 
REMARK    2  A    between atoms: C_1  and  S_18 
REMARK    3  A    between atoms: C_2  and  N_23 
REMARK    4  A    between atoms: C_3  and  C_13 
REMARK    5  A    between atoms: C_6  and  S_18 
REMARK    6  A    between atoms: C_6  and  S_19 
REMARK    7  A    between atoms: C_7  and  C_20 
REMARK    8  A    between atoms: C_7  and  C_21 
REMARK    9  A    between atoms: C_9  and  C_24 
REMARK   10  A    between atoms: C_16  and  C_17 
REMARK   11  A    between atoms: S_19  and  C_20 
ROOT
HETATM    1  C           1      19.466  47.843  49.656  0.00  0.00     0.092 C 
HETATM    2  C           1      21.197  48.563  48.144  0.00  0.00     0.156 C 
HETATM    3  C           1      19.313  47.049  48.389  0.00  0.00     0.127 C 
HETATM    4  C           1      19.999  47.945  47.335  0.00  0.00     0.136 C 
HETATM    5  C           1      19.116  49.054  46.874  0.00  0.00     0.079 C 
HETATM    6  N           1      18.371  49.847  46.471  0.00  0.00    -0.196 NA
HETATM    7  C           1      17.994  46.401  47.793  0.00  0.00     0.248 C 
HETATM    8  C           1      19.422  45.994  45.787  0.00  0.00     0.105 C 
HETATM    9  N           1      20.503  48.628  49.522  0.00  0.00    -0.350 N 
HETATM   10  N           1      18.343  45.451  46.599  0.00  0.00    -0.040 N 
HETATM   11  C           1      19.680  45.233  44.509  0.00  0.00     0.075 C 
HETATM   12  C           1      20.184  47.068  46.110  0.00  0.00     0.036 C 
HETATM   13  H           1      20.826  49.248  50.276  0.00  0.00     0.163 HD
HETATM   14  H           1      18.565  44.489  46.930  0.00  0.00     0.284 HD
HETATM   15  H           1      17.491  45.372  45.999  0.00  0.00     0.284 HD
ENDROOT
BRANCH   2  16
HETATM   16  S           1      21.618  50.266  47.649  0.00  0.00    -0.125 SA
BRANCH  16  17
HETATM   17  C           1      21.142  51.240  49.108  0.00  0.00     0.077 C 
BRANCH  17  18
HETATM   18  C           1      19.870  52.039  48.780  0.00  0.00     0.010 C 
BRANCH  18  19
HETATM   19  C           1      18.761  51.787  49.814  0.00  0.00    -0.004 C 
HETATM   20  C           1      17.467  52.532  49.458  0.00  0.00     0.005 C 
ENDBRANCH  18  19
ENDBRANCH  17  18
ENDBRANCH  16  17
ENDBRANCH   2  16
BRANCH   2  21
HETATM   21  S           1      22.592  47.388  48.217  0.00  0.00    -0.125 SA
BRANCH  21  22
HETATM   22  C           1      23.566  48.111  49.575  0.00  0.00     0.077 C 
BRANCH  22  23
HETATM   23  C           1      24.820  48.776  48.983  0.00  0.00     0.010 C 
BRANCH  23  24
HETATM   24  C           1      26.108  48.209  49.602  0.00  0.00    -0.004 C 
HETATM   25  C           1      27.356  48.950  49.104  0.00  0.00     0.005 C 
ENDBRANCH  23  24
ENDBRANCH  22  23
ENDBRANCH  21  22
ENDBRANCH   2  21
BRANCH   3  26
HETATM   26  C           1      20.025  45.747  48.545  0.00  0.00     0.105 C 
HETATM   27  N           1      20.384  45.083  49.424  0.00  0.00    -0.151 N 
ENDBRANCH   3  26
BRANCH   1  28
HETATM   28  N           1      18.774  47.718  50.709  0.00  0.00    -0.388 N 
HETATM   29  H           1      18.920  46.903  51.354  0.00  0.00     0.157 HD
HETATM   30  H           1      18.039  48.426  50.953  0.00  0.00     0.157 HD
ENDBRANCH   1  28
BRANCH   7  31
HETATM   31  C           1      16.874  47.364  47.430  0.00  0.00    -0.026 A 
HETATM   32  C           1      16.378  47.366  46.178  0.00  0.00     0.009 A 
HETATM   33  C           1      15.396  48.203  45.809  0.00  0.00     0.001 A 
HETATM   34  C           1      14.889  49.071  46.695  0.00  0.00     0.000 A 
HETATM   35  C           1      15.374  49.093  47.945  0.00  0.00     0.001 A 
HETATM   36  C           1      16.355  48.249  48.303  0.00  0.00     0.009 A 
ENDBRANCH   7  31
TORSDOF 11
ENDMDL
MODEL 2
REMARK VINA RESULT:      -6.6      1.904      3.797
REMARK  11 active torsions:
REMARK  status: ('A' for Active; 'I' for Inactive)
REMARK    1  A    between atoms: C_1  and  C_17 
REMARK    2  A    between atoms: C_1  and  S_18 
REMARK    3  A    between atoms: C_2  and  N_23 
REMARK    4  A    between atoms: C_3  and  C_13 
REMARK    5  A    between atoms: C_6  and  S_18 
REMARK    6  A    between atoms: C_6  and  S_19 
REMARK    7  A    between atoms: C_7  and  C_20 
REMARK    8  A    between atoms: C_7  and  C_21 
REMARK    9  A    between atoms: C_9  and  C_24 
REMARK   10  A    between atoms: C_16  and  C_17 
REMARK   11  A    between atoms: S_19  and  C_20 
ROOT
HETATM    1  C           1      19.168  48.790  49.950  0.00  0.00     0.092 C 
HETATM    2  C           1      20.999  49.420  48.517  0.00  0.00     0.156 C 
HETATM    3  C           1      18.626  48.906  48.553  0.00  0.00     0.127 C 
HETATM    4  C           1      19.636  49.852  47.868  0.00  0.00     0.136 C 
HETATM    5  C           1      19.385  51.284  48.200  0.00  0.00     0.079 C 
HETATM    6  N           1      19.104  52.391  48.404  0.00  0.00    -0.196 NA
HETATM    7  C           1      17.145  49.254  48.104  0.00  0.00     0.248 C 
HETATM    8  C           1      18.159  49.409  45.828  0.00  0.00     0.105 C 
HETATM    9  N           1      20.452  49.036  49.909  0.00  0.00    -0.350 N 
HETATM   10  N           1      16.969  49.013  46.567  0.00  0.00    -0.040 N 
HETATM   11  C           1      17.992  49.391  44.328  0.00  0.00     0.075 C 
HETATM   12  C           1      19.349  49.747  46.380  0.00  0.00     0.036 C 
HETATM   13  H           1      21.050  48.985  50.745  0.00  0.00     0.163 HD
HETATM   14  H           1      16.707  48.025  46.365  0.00  0.00     0.284 HD
HETATM   15  H           1      16.171  49.606  46.244  0.00  0.00     0.284 HD
ENDROOT
BRANCH   2  16
HETATM   16  S           1      22.177  50.794  48.739  0.00  0.00    -0.125 SA
BRANCH  16  17
HETATM   17  C           1      23.618  50.250  47.773  0.00  0.00     0.077 C 
BRANCH  17  18
HETATM   18  C           1      24.752  49.873  48.739  0.00  0.00     0.010 C 
BRANCH  18  19
HETATM   19  C           1      26.116  49.855  48.031  0.00  0.00    -0.004 C 
HETATM   20  C           1      27.215  49.257  48.920  0.00  0.00     0.005 C 
ENDBRANCH  18  19
ENDBRANCH  17  18
ENDBRANCH  16  17
ENDBRANCH   2  16
BRANCH   2  21
HETATM   21  S           1      21.659  47.933  47.689  0.00  0.00    -0.125 SA
BRANCH  21  22
HETATM   22  C           1      22.223  46.971  49.128  0.00  0.00     0.077 C 
BRANCH  22  23
HETATM   23  C           1      23.586  46.341  48.797  0.00  0.00     0.010 C 
BRANCH  23  24
HETATM   24  C           1      24.551  46.418  49.992  0.00  0.00    -0.004 C 
HETATM   25  C           1      25.891  45.735  49.690  0.00  0.00     0.005 C 
ENDBRANCH  23  24
ENDBRANCH  22  23
ENDBRANCH  21  22
ENDBRANCH   2  21
BRANCH   3  26
HETATM   26  C           1      18.627  47.555  47.919  0.00  0.00     0.105 C 
HETATM   27  N           1      18.390  46.470  48.248  0.00  0.00    -0.151 N 
ENDBRANCH   3  26
BRANCH   1  28
HETATM   28  N           1      18.525  48.429  50.979  0.00  0.00    -0.388 N 
HETATM   29  H           1      18.324  47.415  51.158  0.00  0.00     0.157 HD
HETATM   30  H           1      18.176  49.141  51.668  0.00  0.00     0.157 HD
ENDBRANCH   1  28
BRANCH   7  31
HETATM   31  C           1      16.619  50.620  48.517  0.00  0.00    -0.026 A 
HETATM   32  C           1      16.013  51.403  47.605  0.00  0.00     0.009 A 
HETATM   33  C           1      15.540  52.620  47.921  0.00  0.00     0.001 A 
HETATM   34  C           1      15.672  53.084  49.171  0.00  0.00     0.000 A 
HETATM   35  C           1      16.280  52.325  50.093  0.00  0.00     0.001 A 
HETATM   36  C           1      16.747  51.109  49.766  0.00  0.00     0.009 A 
ENDBRANCH   7  31
TORSDOF 11
ENDMDL
MODEL 3
REMARK VINA RESULT:      -6.5     24.247     26.389
REMARK  11 active torsions:
REMARK  status: ('A' for Active; 'I' for Inactive)
REMARK    1  A    between atoms: C_1  and  C_17 
REMARK    2  A    between atoms: C_1  and  S_18 
REMARK    3  A    between atoms: C_2  and  N_23 
REMARK    4  A    between atoms: C_3  and  C_13 
REMARK    5  A    between atoms: C_6  and  S_18 
REMARK    6  A    between atoms: C_6  and  S_19 
REMARK    7  A    between atoms: C_7  and  C_20 
REMARK    8  A    between atoms: C_7  and  C_21 
REMARK    9  A    between atoms: C_9  and  C_24 
REMARK   10  A    between atoms: C_16  and  C_17 
REMARK   11  A    between atoms: S_19  and  C_20 
ROOT
HETATM    1  C           1      38.719  46.973  65.361  0.00  0.00     0.092 C 
HETATM    2  C           1      38.520  46.221  67.641  0.00  0.00     0.156 C 
HETATM    3  C           1      37.532  46.053  65.429  0.00  0.00     0.127 C 
HETATM    4  C           1      37.834  45.191  66.674  0.00  0.00     0.136 C 
HETATM    5  C           1      38.803  44.096  66.382  0.00  0.00     0.079 C 
HETATM    6  N           1      39.485  43.201  66.098  0.00  0.00    -0.196 NA
HETATM    7  C           1      36.919  45.161  64.270  0.00  0.00     0.248 C 
HETATM    8  C           1      35.553  44.180  66.115  0.00  0.00     0.105 C 
HETATM    9  N           1      39.219  47.081  66.565  0.00  0.00    -0.350 N 
HETATM   10  N           1      35.540  44.564  64.711  0.00  0.00    -0.040 N 
HETATM   11  C           1      34.328  43.418  66.561  0.00  0.00     0.075 C 
HETATM   12  C           1      36.535  44.476  67.001  0.00  0.00     0.036 C 
HETATM   13  H           1      40.023  47.686  66.776  0.00  0.00     0.163 HD
HETATM   14  H           1      34.758  45.221  64.504  0.00  0.00     0.284 HD
HETATM   15  H           1      35.370  43.706  64.139  0.00  0.00     0.284 HD
ENDROOT
BRANCH   2  16
HETATM   16  S           1      39.813  45.490  68.699  0.00  0.00    -0.125 SA
BRANCH  16  17
HETATM   17  C           1      41.313  46.371  68.170  0.00  0.00     0.077 C 
BRANCH  17  18
HETATM   18  C           1      42.170  45.425  67.313  0.00  0.00     0.010 C 
BRANCH  18  19
HETATM   19  C           1      42.730  46.139  66.071  0.00  0.00    -0.004 C 
HETATM   20  C           1      42.156  45.558  64.771  0.00  0.00     0.005 C 
ENDBRANCH  18  19
ENDBRANCH  17  18
ENDBRANCH  16  17
ENDBRANCH   2  16
BRANCH   2  21
HETATM   21  S           1      37.263  47.225  68.503  0.00  0.00    -0.125 SA
BRANCH  21  22
HETATM   22  C           1      38.087  48.849  68.522  0.00  0.00     0.077 C 
BRANCH  22  23
HETATM   23  C           1      37.198  49.862  67.781  0.00  0.00     0.010 C 
BRANCH  23  24
HETATM   24  C           1      37.922  50.470  66.569  0.00  0.00    -0.004 C 
HETATM   25  C           1      37.683  51.982  66.460  0.00  0.00     0.005 C 
ENDBRANCH  23  24
ENDBRANCH  22  23
ENDBRANCH  21  22
ENDBRANCH   2  21
BRANCH   3  26
HETATM   26  C           1      36.297  46.869  65.617  0.00  0.00     0.105 C 
HETATM   27  N           1      35.892  47.885  65.235  0.00  0.00    -0.151 N 
ENDBRANCH   3  26
BRANCH   1  28
HETATM   28  N           1      39.118  47.611  64.343  0.00  0.00    -0.388 N 
HETATM   29  H           1      39.308  47.115  63.438  0.00  0.00     0.157 HD
HETATM   30  H           1      39.272  48.649  64.389  0.00  0.00     0.157 HD
ENDBRANCH   1  28
BRANCH   7  31
HETATM   31  C           1      37.830  44.089  63.691  0.00  0.00    -0.026 A 
HETATM   32  C           1      37.425  42.805  63.684  0.00  0.00     0.009 A 
HETATM   33  C           1      38.197  41.824  63.191  0.00  0.00     0.001 A 
HETATM   34  C           1      39.408  42.112  62.695  0.00  0.00     0.000 A 
HETATM   35  C           1      39.836  43.382  62.700  0.00  0.00     0.001 A 
HETATM   36  C           1      39.053  44.355  63.194  0.00  0.00     0.009 A 
ENDBRANCH   7  31
TORSDOF 11
ENDMDL
MODEL 4
REMARK VINA RESULT:      -6.3     11.355     14.388
REMARK  11 active torsions:
REMARK  status: ('A' for Active; 'I' for Inactive)
REMARK    1  A    between atoms: C_1  and  C_17 
REMARK    2  A    between atoms: C_1  and  S_18 
REMARK    3  A    between atoms: C_2  and  N_23 
REMARK    4  A    between atoms: C_3  and  C_13 
REMARK    5  A    between atoms: C_6  and  S_18 
REMARK    6  A    between atoms: C_6  and  S_19 
REMARK    7  A    between atoms: C_7  and  C_20 
REMARK    8  A    between atoms: C_7  and  C_21 
REMARK    9  A    between atoms: C_9  and  C_24 
REMARK   10  A    between atoms: C_16  and  C_17 
REMARK   11  A    between atoms: S_19  and  C_20 
ROOT
HETATM    1  C           1      28.023  51.901  41.159  0.00  0.00     0.092 C 
HETATM    2  C           1      28.081  49.722  40.136  0.00  0.00     0.156 C 
HETATM    3  C           1      29.296  51.813  40.365  0.00  0.00     0.127 C 
HETATM    4  C           1      29.539  50.290  40.273  0.00  0.00     0.136 C 
HETATM    5  C           1      30.149  49.739  41.516  0.00  0.00     0.079 C 
HETATM    6  N           1      30.707  49.361  42.460  0.00  0.00    -0.196 NA
HETATM    7  C           1      30.661  52.580  40.616  0.00  0.00     0.248 C 
HETATM    8  C           1      31.540  51.033  38.865  0.00  0.00     0.105 C 
HETATM    9  N           1      27.364  50.783  40.999  0.00  0.00    -0.350 N 
HETATM   10  N           1      31.629  52.383  39.402  0.00  0.00    -0.040 N 
HETATM   11  C           1      32.583  50.710  37.822  0.00  0.00     0.075 C 
HETATM   12  C           1      30.608  50.111  39.209  0.00  0.00     0.036 C 
HETATM   13  H           1      26.441  50.621  41.423  0.00  0.00     0.163 HD
HETATM   14  H           1      31.462  53.098  38.663  0.00  0.00     0.284 HD
HETATM   15  H           1      32.604  52.534  39.748  0.00  0.00     0.284 HD
ENDROOT
BRANCH   2  16
HETATM   16  S           1      27.845  48.100  40.934  0.00  0.00    -0.125 SA
BRANCH  16  17
HETATM   17  C           1      27.989  46.940  39.542  0.00  0.00     0.077 C 
BRANCH  17  18
HETATM   18  C           1      29.407  46.348  39.531  0.00  0.00     0.010 C 
BRANCH  18  19
HETATM   19  C           1      29.440  44.972  38.846  0.00  0.00    -0.004 C 
HETATM   20  C           1      29.137  45.073  37.344  0.00  0.00     0.005 C 
ENDBRANCH  18  19
ENDBRANCH  17  18
ENDBRANCH  16  17
ENDBRANCH   2  16
BRANCH   2  21
HETATM   21  S           1      27.505  49.848  38.408  0.00  0.00    -0.125 SA
BRANCH  21  22
HETATM   22  C           1      25.702  49.836  38.656  0.00  0.00     0.077 C 
BRANCH  22  23
HETATM   23  C           1      25.107  48.640  37.894  0.00  0.00     0.010 C 
BRANCH  23  24
HETATM   24  C           1      25.891  48.343  36.605  0.00  0.00    -0.004 C 
HETATM   25  C           1      25.915  46.843  36.281  0.00  0.00     0.005 C 
ENDBRANCH  23  24
ENDBRANCH  22  23
ENDBRANCH  21  22
ENDBRANCH   2  21
BRANCH   3  26
HETATM   26  C           1      29.069  52.412  39.018  0.00  0.00     0.105 C 
HETATM   27  N           1      28.681  53.420  38.598  0.00  0.00    -0.151 N 
ENDBRANCH   3  26
BRANCH   1  28
HETATM   28  N           1      27.606  52.910  41.800  0.00  0.00    -0.388 N 
HETATM   29  H           1      27.495  53.840  41.327  0.00  0.00     0.157 HD
HETATM   30  H           1      27.368  52.834  42.821  0.00  0.00     0.157 HD
ENDBRANCH   1  28
BRANCH   7  31
HETATM   31  C           1      31.360  52.297  41.938  0.00  0.00    -0.026 A 
HETATM   32  C           1      32.595  51.760  41.935  0.00  0.00     0.009 A 
HETATM   33  C           1      33.248  51.486  43.076  0.00  0.00     0.001 A 
HETATM   34  C           1      32.667  51.741  44.256  0.00  0.00     0.000 A 
HETATM   35  C           1      31.434  52.267  44.282  0.00  0.00     0.001 A 
HETATM   36  C           1      30.792  52.539  43.135  0.00  0.00     0.009 A 
ENDBRANCH   7  31
TORSDOF 11
ENDMDL
MODEL 5
REMARK VINA RESULT:      -6.1      2.730      6.154
REMARK  11 active torsions:
REMARK  status: ('A' for Active; 'I' for Inactive)
REMARK    1  A    between atoms: C_1  and  C_17 
REMARK    2  A    between atoms: C_1  and  S_18 
REMARK    3  A    between atoms: C_2  and  N_23 
REMARK    4  A    between atoms: C_3  and  C_13 
REMARK    5  A    between atoms: C_6  and  S_18 
REMARK    6  A    between atoms: C_6  and  S_19 
REMARK    7  A    between atoms: C_7  and  C_20 
REMARK    8  A    between atoms: C_7  and  C_21 
REMARK    9  A    between atoms: C_9  and  C_24 
REMARK   10  A    between atoms: C_16  and  C_17 
REMARK   11  A    between atoms: S_19  and  C_20 
ROOT
HETATM    1  C           1      17.303  48.026  48.659  0.00  0.00     0.092 C 
HETATM    2  C           1      17.395  49.978  47.251  0.00  0.00     0.156 C 
HETATM    3  C           1      18.741  48.456  48.582  0.00  0.00     0.127 C 
HETATM    4  C           1      18.792  49.258  47.264  0.00  0.00     0.136 C 
HETATM    5  C           1      18.880  48.373  46.067  0.00  0.00     0.079 C 
HETATM    6  N           1      19.042  47.660  45.166  0.00  0.00    -0.196 NA
HETATM    7  C           1      20.040  47.560  48.739  0.00  0.00     0.248 C 
HETATM    8  C           1      21.224  49.616  47.964  0.00  0.00     0.105 C 
HETATM    9  N           1      16.587  48.874  47.966  0.00  0.00    -0.350 N 
HETATM   10  N           1      21.316  48.460  48.844  0.00  0.00    -0.040 N 
HETATM   11  C           1      22.497  50.423  47.865  0.00  0.00     0.075 C 
HETATM   12  C           1      20.115  50.003  47.289  0.00  0.00     0.036 C 
HETATM   13  H           1      15.563  48.803  47.897  0.00  0.00     0.163 HD
HETATM   14  H           1      21.498  48.747  49.830  0.00  0.00     0.284 HD
HETATM   15  H           1      22.135  47.885  48.544  0.00  0.00     0.284 HD
ENDROOT
BRANCH   2  16
HETATM   16  S           1      16.693  50.193  45.582  0.00  0.00    -0.125 SA
BRANCH  16  17
HETATM   17  C           1      17.132  51.911  45.179  0.00  0.00     0.077 C 
BRANCH  17  18
HETATM   18  C           1      17.555  51.982  43.702  0.00  0.00     0.010 C 
BRANCH  18  19
HETATM   19  C           1      18.491  50.822  43.326  0.00  0.00    -0.004 C 
HETATM   20  C           1      19.146  51.038  41.954  0.00  0.00     0.005 C 
ENDBRANCH  18  19
ENDBRANCH  17  18
ENDBRANCH  16  17
ENDBRANCH   2  16
BRANCH   2  21
HETATM   21  S           1      17.439  51.476  48.294  0.00  0.00    -0.125 SA
BRANCH  21  22
HETATM   22  C           1      15.766  51.432  49.011  0.00  0.00     0.077 C 
BRANCH  22  23
HETATM   23  C           1      15.270  52.876  49.194  0.00  0.00     0.010 C 
BRANCH  23  24
HETATM   24  C           1      14.303  52.996  50.383  0.00  0.00    -0.004 C 
HETATM   25  C           1      14.681  54.156  51.314  0.00  0.00     0.005 C 
ENDBRANCH  23  24
ENDBRANCH  22  23
ENDBRANCH  21  22
ENDBRANCH   2  21
BRANCH   3  26
HETATM   26  C           1      19.051  49.320  49.758  0.00  0.00     0.105 C 
HETATM   27  N           1      18.815  49.316  50.893  0.00  0.00    -0.151 N 
ENDBRANCH   3  26
BRANCH   1  28
HETATM   28  N           1      16.840  47.068  49.345  0.00  0.00    -0.388 N 
HETATM   29  H           1      17.095  46.959  50.357  0.00  0.00     0.157 HD
HETATM   30  H           1      16.197  46.361  48.910  0.00  0.00     0.157 HD
ENDBRANCH   1  28
BRANCH   7  31
HETATM   31  C           1      20.223  46.453  47.711  0.00  0.00    -0.026 A 
HETATM   32  C           1      21.331  46.434  46.945  0.00  0.00     0.009 A 
HETATM   33  C           1      21.532  45.482  46.019  0.00  0.00     0.001 A 
HETATM   34  C           1      20.614  44.524  45.835  0.00  0.00     0.000 A 
HETATM   35  C           1      19.499  44.529  46.580  0.00  0.00     0.001 A 
HETATM   36  C           1      19.310  45.485  47.504  0.00  0.00     0.009 A 
ENDBRANCH   7  31
TORSDOF 11
ENDMDL
MODEL 6
REMARK VINA RESULT:      -5.8     10.055     12.737
REMARK  11 active torsions:
REMARK  status: ('A' for Active; 'I' for Inactive)
REMARK    1  A    between atoms: C_1  and  C_17 
REMARK    2  A    between atoms: C_1  and  S_18 
REMARK    3  A    between atoms: C_2  and  N_23 
REMARK    4  A    between atoms: C_3  and  C_13 
REMARK    5  A    between atoms: C_6  and  S_18 
REMARK    6  A    between atoms: C_6  and  S_19 
REMARK    7  A    between atoms: C_7  and  C_20 
REMARK    8  A    between atoms: C_7  and  C_21 
REMARK    9  A    between atoms: C_9  and  C_24 
REMARK   10  A    between atoms: C_16  and  C_17 
REMARK   11  A    between atoms: S_19  and  C_20 
ROOT
HETATM    1  C           1      26.985  48.920  38.110  0.00  0.00     0.092 C 
HETATM    2  C           1      28.446  49.050  40.020  0.00  0.00     0.156 C 
HETATM    3  C           1      26.606  47.802  39.040  0.00  0.00     0.127 C 
HETATM    4  C           1      27.895  47.586  39.863  0.00  0.00     0.136 C 
HETATM    5  C           1      28.907  46.776  39.126  0.00  0.00     0.079 C 
HETATM    6  N           1      29.631  46.066  38.563  0.00  0.00    -0.196 NA
HETATM    7  C           1      25.939  46.410  38.677  0.00  0.00     0.248 C 
HETATM    8  C           1      26.445  45.852  41.057  0.00  0.00     0.105 C 
HETATM    9  N           1      27.952  49.603  38.666  0.00  0.00    -0.350 N 
HETATM   10  N           1      25.487  45.665  39.977  0.00  0.00    -0.040 N 
HETATM   11  C           1      26.178  45.005  42.277  0.00  0.00     0.075 C 
HETATM   12  C           1      27.489  46.716  41.039  0.00  0.00     0.036 C 
HETATM   13  H           1      28.359  50.440  38.227  0.00  0.00     0.163 HD
HETATM   14  H           1      24.528  45.953  40.266  0.00  0.00     0.284 HD
HETATM   15  H           1      25.439  44.645  39.756  0.00  0.00     0.284 HD
ENDROOT
BRANCH   2  16
HETATM   16  S           1      30.266  49.154  40.037  0.00  0.00    -0.125 SA
BRANCH  16  17
HETATM   17  C           1      30.657  49.102  41.811  0.00  0.00     0.077 C 
BRANCH  17  18
HETATM   18  C           1      32.030  49.754  42.038  0.00  0.00     0.010 C 
BRANCH  18  19
HETATM   19  C           1      32.072  50.539  43.359  0.00  0.00    -0.004 C 
HETATM   20  C           1      33.240  51.534  43.397  0.00  0.00     0.005 C 
ENDBRANCH  18  19
ENDBRANCH  17  18
ENDBRANCH  16  17
ENDBRANCH   2  16
BRANCH   2  21
HETATM   21  S           1      27.588  49.912  41.381  0.00  0.00    -0.125 SA
BRANCH  21  22
HETATM   22  C           1      27.608  51.623  40.758  0.00  0.00     0.077 C 
BRANCH  22  23
HETATM   23  C           1      28.764  52.380  41.431  0.00  0.00     0.010 C 
BRANCH  23  24
HETATM   24  C           1      29.686  53.044  40.395  0.00  0.00    -0.004 C 
HETATM   25  C           1      31.013  53.499  41.018  0.00  0.00     0.005 C 
ENDBRANCH  23  24
ENDBRANCH  22  23
ENDBRANCH  21  22
ENDBRANCH   2  21
BRANCH   3  26
HETATM   26  C           1      25.477  48.253  39.904  0.00  0.00     0.105 C 
HETATM   27  N           1      24.449  48.765  39.749  0.00  0.00    -0.151 N 
ENDBRANCH   3  26
BRANCH   1  28
HETATM   28  N           1      26.414  49.216  37.019  0.00  0.00    -0.388 N 
HETATM   29  H           1      25.484  48.800  36.769  0.00  0.00     0.157 HD
HETATM   30  H           1      26.866  49.880  36.342  0.00  0.00     0.157 HD
ENDBRANCH   1  28
BRANCH   7  31
HETATM   31  C           1      26.740  45.497  37.762  0.00  0.00    -0.026 A 
HETATM   32  C           1      27.120  45.939  36.548  0.00  0.00     0.009 A 
HETATM   33  C           1      27.821  45.166  35.703  0.00  0.00     0.001 A 
HETATM   34  C           1      28.154  43.918  36.058  0.00  0.00     0.000 A 
HETATM   35  C           1      27.778  43.454  37.258  0.00  0.00     0.001 A 
HETATM   36  C           1      27.079  44.237  38.096  0.00  0.00     0.009 A 
ENDBRANCH   7  31
TORSDOF 11
ENDMDL
MODEL 7
REMARK VINA RESULT:      -5.8     24.107     27.234
REMARK  11 active torsions:
REMARK  status: ('A' for Active; 'I' for Inactive)
REMARK    1  A    between atoms: C_1  and  C_17 
REMARK    2  A    between atoms: C_1  and  S_18 
REMARK    3  A    between atoms: C_2  and  N_23 
REMARK    4  A    between atoms: C_3  and  C_13 
REMARK    5  A    between atoms: C_6  and  S_18 
REMARK    6  A    between atoms: C_6  and  S_19 
REMARK    7  A    between atoms: C_7  and  C_20 
REMARK    8  A    between atoms: C_7  and  C_21 
REMARK    9  A    between atoms: C_9  and  C_24 
REMARK   10  A    between atoms: C_16  and  C_17 
REMARK   11  A    between atoms: S_19  and  C_20 
ROOT
HETATM    1  C           1      38.940  44.007  66.931  0.00  0.00     0.092 C 
HETATM    2  C           1      37.519  44.540  65.061  0.00  0.00     0.156 C 
HETATM    3  C           1      39.125  45.468  66.630  0.00  0.00     0.127 C 
HETATM    4  C           1      38.702  45.570  65.148  0.00  0.00     0.136 C 
HETATM    5  C           1      39.782  45.131  64.220  0.00  0.00     0.079 C 
HETATM    6  N           1      40.675  44.871  63.526  0.00  0.00    -0.196 NA
HETATM    7  C           1      40.398  46.371  66.908  0.00  0.00     0.248 C 
HETATM    8  C           1      39.171  48.054  65.532  0.00  0.00     0.105 C 
HETATM    9  N           1      38.048  43.530  66.102  0.00  0.00    -0.350 N 
HETATM   10  N           1      40.059  47.881  66.673  0.00  0.00    -0.040 N 
HETATM   11  C           1      38.958  49.492  65.124  0.00  0.00     0.075 C 
HETATM   12  C           1      38.538  47.054  64.871  0.00  0.00     0.036 C 
HETATM   13  H           1      37.731  42.552  66.137  0.00  0.00     0.163 HD
HETATM   14  H           1      39.665  48.321  67.531  0.00  0.00     0.284 HD
HETATM   15  H           1      40.956  48.378  66.467  0.00  0.00     0.284 HD
ENDROOT
BRANCH   2  16
HETATM   16  S           1      37.406  43.682  63.457  0.00  0.00    -0.125 SA
BRANCH  16  17
HETATM   17  C           1      37.842  41.969  63.884  0.00  0.00     0.077 C 
BRANCH  17  18
HETATM   18  C           1      38.839  41.435  62.843  0.00  0.00     0.010 C 
BRANCH  18  19
HETATM   19  C           1      39.649  40.250  63.393  0.00  0.00    -0.004 C 
HETATM   20  C           1      38.917  39.540  64.541  0.00  0.00     0.005 C 
ENDBRANCH  18  19
ENDBRANCH  17  18
ENDBRANCH  16  17
ENDBRANCH   2  16
BRANCH   2  21
HETATM   21  S           1      35.971  45.291  65.671  0.00  0.00    -0.125 SA
BRANCH  21  22
HETATM   22  C           1      35.325  43.935  66.701  0.00  0.00     0.077 C 
BRANCH  22  23
HETATM   23  C           1      34.575  42.943  65.797  0.00  0.00     0.010 C 
BRANCH  23  24
HETATM   24  C           1      33.118  42.754  66.251  0.00  0.00    -0.004 C 
HETATM   25  C           1      33.003  42.646  67.778  0.00  0.00     0.005 C 
ENDBRANCH  23  24
ENDBRANCH  22  23
ENDBRANCH  21  22
ENDBRANCH   2  21
BRANCH   3  26
HETATM   26  C           1      38.221  46.262  67.511  0.00  0.00     0.105 C 
HETATM   27  N           1      37.864  46.217  68.613  0.00  0.00    -0.151 N 
ENDBRANCH   3  26
BRANCH   1  28
HETATM   28  N           1      39.478  43.361  67.879  0.00  0.00    -0.388 N 
HETATM   29  H           1      40.110  42.546  67.683  0.00  0.00     0.157 HD
HETATM   30  H           1      39.296  43.628  68.878  0.00  0.00     0.157 HD
ENDBRANCH   1  28
BRANCH   7  31
HETATM   31  C           1      41.679  45.970  66.192  0.00  0.00    -0.026 A 
HETATM   32  C           1      42.201  44.746  66.399  0.00  0.00     0.009 A 
HETATM   33  C           1      43.333  44.350  65.797  0.00  0.00     0.001 A 
HETATM   34  C           1      43.977  45.184  64.970  0.00  0.00     0.000 A 
HETATM   35  C           1      43.481  46.411  64.756  0.00  0.00     0.001 A 
HETATM   36  C           1      42.347  46.795  65.363  0.00  0.00     0.009 A 
ENDBRANCH   7  31
TORSDOF 11
ENDMDL
MODEL 8
REMARK VINA RESULT:      -5.8     24.027     26.951
REMARK  11 active torsions:
REMARK  status: ('A' for Active; 'I' for Inactive)
REMARK    1  A    between atoms: C_1  and  C_17 
REMARK    2  A    between atoms: C_1  and  S_18 
REMARK    3  A    between atoms: C_2  and  N_23 
REMARK    4  A    between atoms: C_3  and  C_13 
REMARK    5  A    between atoms: C_6  and  S_18 
REMARK    6  A    between atoms: C_6  and  S_19 
REMARK    7  A    between atoms: C_7  and  C_20 
REMARK    8  A    between atoms: C_7  and  C_21 
REMARK    9  A    between atoms: C_9  and  C_24 
REMARK   10  A    between atoms: C_16  and  C_17 
REMARK   11  A    between atoms: S_19  and  C_20 
ROOT
HETATM    1  C           1      40.700  45.225  64.395  0.00  0.00     0.092 C 
HETATM    2  C           1      38.784  43.822  64.798  0.00  0.00     0.156 C 
HETATM    3  C           1      40.344  45.358  65.849  0.00  0.00     0.127 C 
HETATM    4  C           1      38.852  44.962  65.877  0.00  0.00     0.136 C 
HETATM    5  C           1      37.962  46.077  65.446  0.00  0.00     0.079 C 
HETATM    6  N           1      37.296  46.994  65.195  0.00  0.00    -0.196 NA
HETATM    7  C           1      40.611  46.589  66.813  0.00  0.00     0.248 C 
HETATM    8  C           1      39.146  45.325  68.391  0.00  0.00     0.105 C 
HETATM    9  N           1      39.874  44.370  63.851  0.00  0.00    -0.350 N 
HETATM   10  N           1      40.309  46.196  68.298  0.00  0.00    -0.040 N 
HETATM   11  C           1      38.678  45.065  69.802  0.00  0.00     0.075 C 
HETATM   12  C           1      38.514  44.746  67.342  0.00  0.00     0.036 C 
HETATM   13  H           1      39.941  44.091  62.863  0.00  0.00     0.163 HD
HETATM   14  H           1      41.142  45.768  68.754  0.00  0.00     0.284 HD
HETATM   15  H           1      40.101  47.076  68.822  0.00  0.00     0.284 HD
ENDROOT
BRANCH   2  16
HETATM   16  S           1      37.213  43.775  63.874  0.00  0.00    -0.125 SA
BRANCH  16  17
HETATM   17  C           1      36.252  42.523  64.776  0.00  0.00     0.077 C 
BRANCH  17  18
HETATM   18  C           1      35.277  43.234  65.728  0.00  0.00     0.010 C 
BRANCH  18  19
HETATM   19  C           1      33.931  42.495  65.813  0.00  0.00    -0.004 C 
HETATM   20  C           1      33.330  42.561  67.224  0.00  0.00     0.005 C 
ENDBRANCH  18  19
ENDBRANCH  17  18
ENDBRANCH  16  17
ENDBRANCH   2  16
BRANCH   2  21
HETATM   21  S           1      39.335  42.234  65.509  0.00  0.00    -0.125 SA
BRANCH  21  22
HETATM   22  C           1      40.247  41.534  64.098  0.00  0.00     0.077 C 
BRANCH  22  23
HETATM   23  C           1      39.243  40.871  63.141  0.00  0.00     0.010 C 
BRANCH  23  24
HETATM   24  C           1      39.635  39.419  62.825  0.00  0.00    -0.004 C 
HETATM   25  C           1      40.547  38.824  63.907  0.00  0.00     0.005 C 
ENDBRANCH  23  24
ENDBRANCH  22  23
ENDBRANCH  21  22
ENDBRANCH   2  21
BRANCH   3  26
HETATM   26  C           1      41.177  44.406  66.641  0.00  0.00     0.105 C 
HETATM   27  N           1      42.273  44.032  66.626  0.00  0.00    -0.151 N 
ENDBRANCH   3  26
BRANCH   1  28
HETATM   28  N           1      41.682  45.769  63.809  0.00  0.00    -0.388 N 
HETATM   29  H           1      42.657  45.659  64.179  0.00  0.00     0.157 HD
HETATM   30  H           1      41.535  46.345  62.943  0.00  0.00     0.157 HD
ENDBRANCH   1  28
BRANCH   7  31
HETATM   31  C           1      39.935  47.900  66.436  0.00  0.00    -0.026 A 
HETATM   32  C           1      39.110  48.499  67.314  0.00  0.00     0.009 A 
HETATM   33  C           1      38.485  49.651  67.023  0.00  0.00     0.001 A 
HETATM   34  C           1      38.672  50.229  65.829  0.00  0.00     0.000 A 
HETATM   35  C           1      39.482  49.645  64.935  0.00  0.00     0.001 A 
HETATM   36  C           1      40.103  48.494  65.239  0.00  0.00     0.009 A 
ENDBRANCH   7  31
TORSDOF 11
ENDMDL
MODEL 9
REMARK VINA RESULT:      -5.7      2.554      6.071
REMARK  11 active torsions:
REMARK  status: ('A' for Active; 'I' for Inactive)
REMARK    1  A    between atoms: C_1  and  C_17 
REMARK    2  A    between atoms: C_1  and  S_18 
REMARK    3  A    between atoms: C_2  and  N_23 
REMARK    4  A    between atoms: C_3  and  C_13 
REMARK    5  A    between atoms: C_6  and  S_18 
REMARK    6  A    between atoms: C_6  and  S_19 
REMARK    7  A    between atoms: C_7  and  C_20 
REMARK    8  A    between atoms: C_7  and  C_21 
REMARK    9  A    between atoms: C_9  and  C_24 
REMARK   10  A    between atoms: C_16  and  C_17 
REMARK   11  A    between atoms: S_19  and  C_20 
ROOT
HETATM    1  C           1      17.289  47.911  48.646  0.00  0.00     0.092 C 
HETATM    2  C           1      17.551  49.838  47.224  0.00  0.00     0.156 C 
HETATM    3  C           1      18.731  48.330  48.719  0.00  0.00     0.127 C 
HETATM    4  C           1      18.931  49.109  47.400  0.00  0.00     0.136 C 
HETATM    5  C           1      19.141  48.202  46.235  0.00  0.00     0.079 C 
HETATM    6  N           1      19.394  47.472  45.370  0.00  0.00    -0.196 NA
HETATM    7  C           1      19.997  47.429  49.031  0.00  0.00     0.248 C 
HETATM    8  C           1      21.276  49.463  48.355  0.00  0.00     0.105 C 
HETATM    9  N           1      16.660  48.752  47.866  0.00  0.00    -0.350 N 
HETATM   10  N           1      21.262  48.322  49.259  0.00  0.00    -0.040 N 
HETATM   11  C           1      22.559  50.259  48.381  0.00  0.00     0.075 C 
HETATM   12  C           1      20.250  49.845  47.556  0.00  0.00     0.036 C 
HETATM   13  H           1      15.649  48.687  47.687  0.00  0.00     0.163 HD
HETATM   14  H           1      21.339  48.625  50.253  0.00  0.00     0.284 HD
HETATM   15  H           1      22.104  47.736  49.059  0.00  0.00     0.284 HD
ENDROOT
BRANCH   2  16
HETATM   16  S           1      17.035  50.028  45.486  0.00  0.00    -0.125 SA
BRANCH  16  17
HETATM   17  C           1      15.445  49.149  45.438  0.00  0.00     0.077 C 
BRANCH  17  18
HETATM   18  C           1      14.312  50.177  45.284  0.00  0.00     0.010 C 
BRANCH  18  19
HETATM   19  C           1      14.840  51.525  44.766  0.00  0.00    -0.004 C 
HETATM   20  C           1      14.125  52.711  45.429  0.00  0.00     0.005 C 
ENDBRANCH  18  19
ENDBRANCH  17  18
ENDBRANCH  16  17
ENDBRANCH   2  16
BRANCH   2  21
HETATM   21  S           1      17.494  51.353  48.240  0.00  0.00    -0.125 SA
BRANCH  21  22
HETATM   22  C           1      15.751  51.337  48.767  0.00  0.00     0.077 C 
BRANCH  22  23
HETATM   23  C           1      15.273  52.788  48.937  0.00  0.00     0.010 C 
BRANCH  23  24
HETATM   24  C           1      15.921  53.459  50.159  0.00  0.00    -0.004 C 
HETATM   25  C           1      15.293  54.826  50.463  0.00  0.00     0.005 C 
ENDBRANCH  23  24
ENDBRANCH  22  23
ENDBRANCH  21  22
ENDBRANCH   2  21
BRANCH   3  26
HETATM   26  C           1      18.919  49.213  49.907  0.00  0.00     0.105 C 
HETATM   27  N           1      18.673  49.167  51.039  0.00  0.00    -0.151 N 
ENDBRANCH   3  26
BRANCH   1  28
HETATM   28  N           1      16.747  46.968  49.294  0.00  0.00    -0.388 N 
HETATM   29  H           1      16.415  46.102  48.805  0.00  0.00     0.157 HD
HETATM   30  H           1      16.615  47.041  50.334  0.00  0.00     0.157 HD
ENDBRANCH   1  28
BRANCH   7  31
HETATM   31  C           1      20.282  46.303  48.047  0.00  0.00    -0.026 A 
HETATM   32  C           1      21.474  46.250  47.424  0.00  0.00     0.009 A 
HETATM   33  C           1      21.767  45.281  46.542  0.00  0.00     0.001 A 
HETATM   34  C           1      20.858  44.337  46.259  0.00  0.00     0.000 A 
HETATM   35  C           1      19.661  44.376  46.862  0.00  0.00     0.001 A 
HETATM   36  C           1      19.381  45.349  47.743  0.00  0.00     0.009 A 
ENDBRANCH   7  31
TORSDOF 11
ENDMDL
MODEL 10
REMARK VINA RESULT:      -5.6      8.926     11.236
REMARK  11 active torsions:
REMARK  status: ('A' for Active; 'I' for Inactive)
REMARK    1  A    between atoms: C_1  and  C_17 
REMARK    2  A    between atoms: C_1  and  S_18 
REMARK    3  A    between atoms: C_2  and  N_23 
REMARK    4  A    between atoms: C_3  and  C_13 
REMARK    5  A    between atoms: C_6  and  S_18 
REMARK    6  A    between atoms: C_6  and  S_19 
REMARK    7  A    between atoms: C_7  and  C_20 
REMARK    8  A    between atoms: C_7  and  C_21 
REMARK    9  A    between atoms: C_9  and  C_24 
REMARK   10  A    between atoms: C_16  and  C_17 
REMARK   11  A    between atoms: S_19  and  C_20 
ROOT
HETATM    1  C           1      26.570  38.334  49.641  0.00  0.00     0.092 C 
HETATM    2  C           1      26.469  40.740  49.628  0.00  0.00     0.156 C 
HETATM    3  C           1      27.115  38.799  48.319  0.00  0.00     0.127 C 
HETATM    4  C           1      26.476  40.195  48.155  0.00  0.00     0.136 C 
HETATM    5  C           1      25.068  40.119  47.670  0.00  0.00     0.079 C 
HETATM    6  N           1      24.010  40.026  47.205  0.00  0.00    -0.196 NA
HETATM    7  C           1      27.121  38.023  46.936  0.00  0.00     0.248 C 
HETATM    8  C           1      27.879  40.217  46.017  0.00  0.00     0.105 C 
HETATM    9  N           1      26.259  39.390  50.347  0.00  0.00    -0.350 N 
HETATM   10  N           1      28.016  38.773  45.893  0.00  0.00    -0.040 N 
HETATM   11  C           1      28.557  41.001  44.920  0.00  0.00     0.075 C 
HETATM   12  C           1      27.236  40.861  47.022  0.00  0.00     0.036 C 
HETATM   13  H           1      25.893  39.323  51.306  0.00  0.00     0.163 HD
HETATM   14  H           1      29.013  38.478  45.966  0.00  0.00     0.284 HD
HETATM   15  H           1      27.690  38.495  44.940  0.00  0.00     0.284 HD
ENDROOT
BRANCH   2  16
HETATM   16  S           1      25.040  41.806  50.012  0.00  0.00    -0.125 SA
BRANCH  16  17
HETATM   17  C           1      25.787  43.460  50.114  0.00  0.00     0.077 C 
BRANCH  17  18
HETATM   18  C           1      25.542  44.031  51.520  0.00  0.00     0.010 C 
BRANCH  18  19
HETATM   19  C           1      26.548  45.143  51.862  0.00  0.00    -0.004 C 
HETATM   20  C           1      26.787  45.253  53.374  0.00  0.00     0.005 C 
ENDBRANCH  18  19
ENDBRANCH  17  18
ENDBRANCH  16  17
ENDBRANCH   2  16
BRANCH   2  21
HETATM   21  S           1      28.106  41.418  50.067  0.00  0.00    -0.125 SA
BRANCH  21  22
HETATM   22  C           1      28.307  40.745  51.747  0.00  0.00     0.077 C 
BRANCH  22  23
HETATM   23  C           1      28.325  41.913  52.747  0.00  0.00     0.010 C 
BRANCH  23  24
HETATM   24  C           1      29.734  42.509  52.896  0.00  0.00    -0.004 C 
HETATM   25  C           1      29.947  43.135  54.281  0.00  0.00     0.005 C 
ENDBRANCH  23  24
ENDBRANCH  22  23
ENDBRANCH  21  22
ENDBRANCH   2  21
BRANCH   3  26
HETATM   26  C           1      28.601  38.887  48.413  0.00  0.00     0.105 C 
HETATM   27  N           1      29.455  38.257  48.879  0.00  0.00    -0.151 N 
ENDBRANCH   3  26
BRANCH   1  28
HETATM   28  N           1      26.505  37.136  50.048  0.00  0.00    -0.388 N 
HETATM   29  H           1      26.378  36.345  49.371  0.00  0.00     0.157 HD
HETATM   30  H           1      26.571  36.916  51.072  0.00  0.00     0.157 HD
ENDBRANCH   1  28
BRANCH   7  31
HETATM   31  C           1      25.760  37.674  46.353  0.00  0.00    -0.026 A 
HETATM   32  C           1      24.921  36.884  47.050  0.00  0.00     0.009 A 
HETATM   33  C           1      23.714  36.542  46.573  0.00  0.00     0.001 A 
HETATM   34  C           1      23.320  36.984  45.371  0.00  0.00     0.000 A 
HETATM   35  C           1      24.144  37.763  44.655  0.00  0.00     0.001 A 
HETATM   36  C           1      25.348  38.100  45.144  0.00  0.00     0.009 A 
ENDBRANCH   7  31
TORSDOF 11
ENDMDL
