MODEL 1
REMARK VINA RESULT:     -10.0      0.000      0.000
REMARK  8 active torsions:
REMARK  status: ('A' for Active; 'I' for Inactive)
REMARK    1  A    between atoms: O_2  and  C_3 
REMARK    2  A    between atoms: C_5  and  C_6 
REMARK    3  A    between atoms: N_7  and  N_8 
REMARK    4  A    between atoms: C_19  and  C_20 
REMARK       I    between atoms: C_20  and  N_21 
REMARK    5  A    between atoms: N_21  and  C_22 
REMARK    6  A    between atoms: C_22  and  C_23 
REMARK    7  A    between atoms: C_23  and  C_24 
REMARK    8  A    between atoms: C_31  and  N_32 
ROOT
HETATM    1  N   UNL     1      25.994  44.396  50.202  1.00  0.00    -0.197 N 
HETATM    2  C   UNL     1      26.147  45.100  51.388  1.00  0.00     0.183 A 
HETATM    3  C   UNL     1      25.292  46.195  51.323  1.00  0.00     0.125 A 
HETATM    4  N   UNL     1      25.282  47.150  52.290  1.00  0.00    -0.242 NA
HETATM    5  C   UNL     1      26.112  46.915  53.317  1.00  0.00     0.086 A 
HETATM    6  C   UNL     1      26.961  45.778  53.375  1.00  0.00     0.088 A 
HETATM    7  N   UNL     1      27.009  44.851  52.403  1.00  0.00    -0.225 NA
HETATM    8  C   UNL     1      26.143  47.834  54.357  1.00  0.00     0.034 A 
HETATM    9  C   UNL     1      26.987  47.666  55.455  1.00  0.00     0.002 A 
HETATM   10  C   UNL     1      27.816  46.555  55.515  1.00  0.00     0.002 A 
HETATM   11  C   UNL     1      27.795  45.623  54.476  1.00  0.00     0.034 A 
HETATM   12  C   UNL     1      24.569  46.137  50.107  1.00  0.00     0.110 C 
HETATM   13  C   UNL     1      24.901  44.927  49.522  1.00  0.00     0.143 C 
ENDROOT
BRANCH  12  14
HETATM   14  C   UNL     1      23.755  47.160  49.474  1.00  0.00     0.257 C 
HETATM   15  N   UNL     1      24.304  48.425  49.551  1.00  0.00    -0.356 N 
HETATM   16  H   UNL     1      25.093  48.524  50.186  1.00  0.00     0.162 HD
HETATM   17  O   UNL     1      22.768  46.905  48.790  1.00  0.00    -0.267 OA
BRANCH  15  18
HETATM   18  C   UNL     1      24.355  49.226  48.344  1.00  0.00     0.127 C 
BRANCH  18  19
HETATM   19  C   UNL     1      23.831  50.655  48.576  1.00  0.00     0.053 C 
BRANCH  19  20
HETATM   20  C   UNL     1      22.325  50.772  48.751  1.00  0.00    -0.082 C 
HETATM   21  C   UNL     1      21.804  51.056  50.143  1.00  0.00     0.034 C 
HETATM   22  C   UNL     1      20.289  50.863  50.287  1.00  0.00     0.005 C 
HETATM   23  C   UNL     1      19.535  51.444  49.096  1.00  0.00     0.004 C 
HETATM   24  C   UNL     1      19.997  50.800  47.791  1.00  0.00     0.027 C 
HETATM   25  C   UNL     1      21.489  50.649  47.702  1.00  0.00    -0.024 C 
ENDBRANCH  19  20
ENDBRANCH  18  19
ENDBRANCH  15  18
ENDBRANCH  12  14
BRANCH  13  26
HETATM   26  N   UNL     1      24.451  44.357  48.377  1.00  0.00    -0.383 N 
HETATM   27  H   UNL     1      24.344  44.912  47.527  1.00  0.00     0.157 HD
HETATM   28  H   UNL     1      23.947  43.474  48.404  1.00  0.00     0.157 HD
ENDBRANCH  13  26
BRANCH   1  29
HETATM   29  N   UNL     1      26.788  43.456  49.592  1.00  0.00    -0.176 NA
HETATM   30  C   UNL     1      26.556  42.223  49.906  1.00  0.00     0.150 C 
BRANCH  30  31
HETATM   31  C   UNL     1      27.524  41.165  49.540  1.00  0.00    -0.014 A 
HETATM   32  C   UNL     1      28.185  40.444  50.543  1.00  0.00     0.049 A 
HETATM   33  C   UNL     1      28.971  39.344  50.202  1.00  0.00     0.069 A 
HETATM   34  C   UNL     1      29.111  38.995  48.857  1.00  0.00     0.037 A 
HETATM   35  C   UNL     1      28.460  39.721  47.856  1.00  0.00     0.004 A 
HETATM   36  C   UNL     1      27.656  40.808  48.198  1.00  0.00     0.013 A 
BRANCH  33  37
HETATM   37  O   UNL     1      29.631  38.531  51.083  1.00  0.00    -0.356 OA
HETATM   38  C   UNL     1      29.547  37.130  50.841  1.00  0.00     0.210 C 
ENDBRANCH  33  37
ENDBRANCH  30  31
ENDBRANCH   1  29
TORSDOF 8
ENDMDL
MODEL 2
REMARK VINA RESULT:      -9.9      2.305      3.565
REMARK  8 active torsions:
REMARK  status: ('A' for Active; 'I' for Inactive)
REMARK    1  A    between atoms: O_2  and  C_3 
REMARK    2  A    between atoms: C_5  and  C_6 
REMARK    3  A    between atoms: N_7  and  N_8 
REMARK    4  A    between atoms: C_19  and  C_20 
REMARK       I    between atoms: C_20  and  N_21 
REMARK    5  A    between atoms: N_21  and  C_22 
REMARK    6  A    between atoms: C_22  and  C_23 
REMARK    7  A    between atoms: C_23  and  C_24 
REMARK    8  A    between atoms: C_31  and  N_32 
ROOT
HETATM    1  N   UNL     1      27.256  42.129  52.332  1.00  0.00    -0.197 N 
HETATM    2  C   UNL     1      27.932  42.884  53.281  1.00  0.00     0.183 A 
HETATM    3  C   UNL     1      27.380  44.160  53.252  1.00  0.00     0.125 A 
HETATM    4  N   UNL     1      27.896  45.177  53.992  1.00  0.00    -0.242 NA
HETATM    5  C   UNL     1      28.926  44.829  54.778  1.00  0.00     0.086 A 
HETATM    6  C   UNL     1      29.461  43.514  54.809  1.00  0.00     0.088 A 
HETATM    7  N   UNL     1      28.984  42.513  54.050  1.00  0.00    -0.225 NA
HETATM    8  C   UNL     1      29.495  45.809  55.581  1.00  0.00     0.034 A 
HETATM    9  C   UNL     1      30.576  45.529  56.418  1.00  0.00     0.002 A 
HETATM   10  C   UNL     1      31.098  44.244  56.453  1.00  0.00     0.002 A 
HETATM   11  C   UNL     1      30.536  43.250  55.649  1.00  0.00     0.034 A 
HETATM   12  C   UNL     1      26.321  44.178  52.312  1.00  0.00     0.110 C 
HETATM   13  C   UNL     1      26.162  42.868  51.892  1.00  0.00     0.143 C 
ENDROOT
BRANCH  12  14
HETATM   14  C   UNL     1      25.613  45.314  51.749  1.00  0.00     0.257 C 
HETATM   15  N   UNL     1      26.435  46.190  51.068  1.00  0.00    -0.356 N 
HETATM   16  H   UNL     1      27.434  46.047  51.197  1.00  0.00     0.162 HD
HETATM   17  O   UNL     1      24.389  45.399  51.728  1.00  0.00    -0.267 OA
BRANCH  15  18
HETATM   18  C   UNL     1      26.021  46.638  49.753  1.00  0.00     0.127 C 
BRANCH  18  19
HETATM   19  C   UNL     1      26.037  48.174  49.633  1.00  0.00     0.053 C 
BRANCH  19  20
HETATM   20  C   UNL     1      24.742  48.798  49.137  1.00  0.00    -0.082 C 
HETATM   21  C   UNL     1      24.852  50.001  48.226  1.00  0.00     0.034 C 
HETATM   22  C   UNL     1      23.525  50.741  48.016  1.00  0.00     0.005 C 
HETATM   23  C   UNL     1      22.370  49.769  47.802  1.00  0.00     0.004 C 
HETATM   24  C   UNL     1      22.229  48.818  48.989  1.00  0.00     0.027 C 
HETATM   25  C   UNL     1      23.544  48.286  49.479  1.00  0.00    -0.024 C 
ENDBRANCH  19  20
ENDBRANCH  18  19
ENDBRANCH  15  18
ENDBRANCH  12  14
BRANCH  13  26
HETATM   26  N   UNL     1      25.256  42.328  51.039  1.00  0.00    -0.383 N 
HETATM   27  H   UNL     1      25.551  41.949  50.139  1.00  0.00     0.157 HD
HETATM   28  H   UNL     1      24.266  42.543  51.133  1.00  0.00     0.157 HD
ENDBRANCH  13  26
BRANCH   1  29
HETATM   29  N   UNL     1      27.576  40.946  51.713  1.00  0.00    -0.176 NA
HETATM   30  C   UNL     1      28.285  41.038  50.636  1.00  0.00     0.150 C 
BRANCH  30  31
HETATM   31  C   UNL     1      28.440  39.870  49.742  1.00  0.00    -0.014 A 
HETATM   32  C   UNL     1      27.972  39.932  48.422  1.00  0.00     0.049 A 
HETATM   33  C   UNL     1      28.260  38.896  47.536  1.00  0.00     0.069 A 
HETATM   34  C   UNL     1      28.990  37.792  47.987  1.00  0.00     0.037 A 
HETATM   35  C   UNL     1      29.448  37.728  49.305  1.00  0.00     0.004 A 
HETATM   36  C   UNL     1      29.179  38.773  50.187  1.00  0.00     0.013 A 
BRANCH  33  37
HETATM   37  O   UNL     1      27.903  38.852  46.215  1.00  0.00    -0.356 OA
HETATM   38  C   UNL     1      27.951  40.083  45.502  1.00  0.00     0.210 C 
ENDBRANCH  33  37
ENDBRANCH  30  31
ENDBRANCH   1  29
TORSDOF 8
ENDMDL
MODEL 3
REMARK VINA RESULT:      -9.7      2.138      3.053
REMARK  8 active torsions:
REMARK  status: ('A' for Active; 'I' for Inactive)
REMARK    1  A    between atoms: O_2  and  C_3 
REMARK    2  A    between atoms: C_5  and  C_6 
REMARK    3  A    between atoms: N_7  and  N_8 
REMARK    4  A    between atoms: C_19  and  C_20 
REMARK       I    between atoms: C_20  and  N_21 
REMARK    5  A    between atoms: N_21  and  C_22 
REMARK    6  A    between atoms: C_22  and  C_23 
REMARK    7  A    between atoms: C_23  and  C_24 
REMARK    8  A    between atoms: C_31  and  N_32 
ROOT
HETATM    1  N   UNL     1      25.362  42.265  50.588  1.00  0.00    -0.197 N 
HETATM    2  C   UNL     1      25.553  43.345  51.438  1.00  0.00     0.183 A 
HETATM    3  C   UNL     1      24.712  44.361  50.998  1.00  0.00     0.125 A 
HETATM    4  N   UNL     1      24.740  45.601  51.556  1.00  0.00    -0.242 NA
HETATM    5  C   UNL     1      25.591  45.733  52.584  1.00  0.00     0.086 A 
HETATM    6  C   UNL     1      26.427  44.675  53.032  1.00  0.00     0.088 A 
HETATM    7  N   UNL     1      26.437  43.459  52.459  1.00  0.00    -0.225 NA
HETATM    8  C   UNL     1      25.661  46.965  53.221  1.00  0.00     0.034 A 
HETATM    9  C   UNL     1      26.530  47.185  54.290  1.00  0.00     0.002 A 
HETATM   10  C   UNL     1      27.345  46.152  54.732  1.00  0.00     0.002 A 
HETATM   11  C   UNL     1      27.285  44.909  54.099  1.00  0.00     0.034 A 
HETATM   12  C   UNL     1      23.959  43.886  49.898  1.00  0.00     0.110 C 
HETATM   13  C   UNL     1      24.260  42.539  49.783  1.00  0.00     0.143 C 
ENDROOT
BRANCH  12  14
HETATM   14  C   UNL     1      23.143  44.629  48.954  1.00  0.00     0.257 C 
HETATM   15  N   UNL     1      22.620  45.794  49.480  1.00  0.00    -0.356 N 
HETATM   16  H   UNL     1      22.703  45.898  50.488  1.00  0.00     0.162 HD
HETATM   17  O   UNL     1      23.069  44.345  47.762  1.00  0.00    -0.267 OA
BRANCH  15  18
HETATM   18  C   UNL     1      22.739  47.012  48.702  1.00  0.00     0.127 C 
BRANCH  18  19
HETATM   19  C   UNL     1      23.282  48.183  49.542  1.00  0.00     0.053 C 
BRANCH  19  20
HETATM   20  C   UNL     1      24.690  48.634  49.188  1.00  0.00    -0.082 C 
HETATM   21  C   UNL     1      24.833  49.885  48.349  1.00  0.00     0.034 C 
HETATM   22  C   UNL     1      26.246  50.101  47.794  1.00  0.00     0.005 C 
HETATM   23  C   UNL     1      27.311  49.803  48.843  1.00  0.00     0.004 C 
HETATM   24  C   UNL     1      27.189  48.370  49.355  1.00  0.00     0.027 C 
HETATM   25  C   UNL     1      25.771  47.957  49.623  1.00  0.00    -0.024 C 
ENDBRANCH  19  20
ENDBRANCH  18  19
ENDBRANCH  15  18
ENDBRANCH  12  14
BRANCH  13  26
HETATM   26  N   UNL     1      23.773  41.605  48.929  1.00  0.00    -0.383 N 
HETATM   27  H   UNL     1      24.138  41.528  47.979  1.00  0.00     0.157 HD
HETATM   28  H   UNL     1      22.869  41.170  49.099  1.00  0.00     0.157 HD
ENDBRANCH  13  26
BRANCH   1  29
HETATM   29  N   UNL     1      26.127  41.150  50.345  1.00  0.00    -0.176 NA
HETATM   30  C   UNL     1      27.232  41.346  49.703  1.00  0.00     0.150 C 
BRANCH  30  31
HETATM   31  C   UNL     1      27.981  40.201  49.140  1.00  0.00    -0.014 A 
HETATM   32  C   UNL     1      28.667  39.325  49.992  1.00  0.00     0.049 A 
HETATM   33  C   UNL     1      29.235  38.161  49.478  1.00  0.00     0.069 A 
HETATM   34  C   UNL     1      29.136  37.898  48.109  1.00  0.00     0.037 A 
HETATM   35  C   UNL     1      28.461  38.777  47.259  1.00  0.00     0.004 A 
HETATM   36  C   UNL     1      27.873  39.931  47.775  1.00  0.00     0.013 A 
BRANCH  33  37
HETATM   37  O   UNL     1      29.890  37.204  50.204  1.00  0.00    -0.356 OA
HETATM   38  C   UNL     1      30.035  37.451  51.599  1.00  0.00     0.210 C 
ENDBRANCH  33  37
ENDBRANCH  30  31
ENDBRANCH   1  29
TORSDOF 8
ENDMDL
MODEL 4
REMARK VINA RESULT:      -9.5      3.297      9.894
REMARK  8 active torsions:
REMARK  status: ('A' for Active; 'I' for Inactive)
REMARK    1  A    between atoms: O_2  and  C_3 
REMARK    2  A    between atoms: C_5  and  C_6 
REMARK    3  A    between atoms: N_7  and  N_8 
REMARK    4  A    between atoms: C_19  and  C_20 
REMARK       I    between atoms: C_20  and  N_21 
REMARK    5  A    between atoms: N_21  and  C_22 
REMARK    6  A    between atoms: C_22  and  C_23 
REMARK    7  A    between atoms: C_23  and  C_24 
REMARK    8  A    between atoms: C_31  and  N_32 
ROOT
HETATM    1  N   UNL     1      21.996  47.301  48.899  1.00  0.00    -0.197 N 
HETATM    2  C   UNL     1      23.340  47.648  48.903  1.00  0.00     0.183 A 
HETATM    3  C   UNL     1      24.050  46.519  49.294  1.00  0.00     0.125 A 
HETATM    4  N   UNL     1      25.393  46.558  49.504  1.00  0.00    -0.242 NA
HETATM    5  C   UNL     1      25.964  47.744  49.248  1.00  0.00     0.086 A 
HETATM    6  C   UNL     1      25.223  48.881  48.827  1.00  0.00     0.088 A 
HETATM    7  N   UNL     1      23.890  48.863  48.658  1.00  0.00    -0.225 NA
HETATM    8  C   UNL     1      27.338  47.858  49.417  1.00  0.00     0.034 A 
HETATM    9  C   UNL     1      28.004  49.061  49.182  1.00  0.00     0.002 A 
HETATM   10  C   UNL     1      27.283  50.172  48.768  1.00  0.00     0.002 A 
HETATM   11  C   UNL     1      25.902  50.071  48.595  1.00  0.00     0.034 A 
HETATM   12  C   UNL     1      23.140  45.451  49.485  1.00  0.00     0.110 C 
HETATM   13  C   UNL     1      21.907  45.922  49.067  1.00  0.00     0.143 C 
ENDROOT
BRANCH  12  14
HETATM   14  C   UNL     1      23.355  44.164  50.122  1.00  0.00     0.257 C 
HETATM   15  N   UNL     1      24.686  43.797  50.180  1.00  0.00    -0.356 N 
HETATM   16  H   UNL     1      25.322  44.358  49.620  1.00  0.00     0.162 HD
HETATM   17  O   UNL     1      22.469  43.546  50.705  1.00  0.00    -0.267 OA
BRANCH  15  18
HETATM   18  C   UNL     1      25.209  43.310  51.442  1.00  0.00     0.127 C 
BRANCH  18  19
HETATM   19  C   UNL     1      25.804  44.445  52.297  1.00  0.00     0.053 C 
BRANCH  19  20
HETATM   20  C   UNL     1      27.183  44.166  52.873  1.00  0.00    -0.082 C 
HETATM   21  C   UNL     1      27.429  44.557  54.314  1.00  0.00     0.034 C 
HETATM   22  C   UNL     1      28.908  44.519  54.722  1.00  0.00     0.005 C 
HETATM   23  C   UNL     1      29.607  43.280  54.174  1.00  0.00     0.004 C 
HETATM   24  C   UNL     1      29.507  43.225  52.651  1.00  0.00     0.027 C 
HETATM   25  C   UNL     1      28.141  43.574  52.135  1.00  0.00    -0.024 C 
ENDBRANCH  19  20
ENDBRANCH  18  19
ENDBRANCH  15  18
ENDBRANCH  12  14
BRANCH  13  26
HETATM   26  N   UNL     1      20.710  45.289  48.991  1.00  0.00    -0.383 N 
HETATM   27  H   UNL     1      20.652  44.273  49.075  1.00  0.00     0.157 HD
HETATM   28  H   UNL     1      19.907  45.751  48.570  1.00  0.00     0.157 HD
ENDBRANCH  13  26
BRANCH   1  29
HETATM   29  N   UNL     1      20.857  48.068  48.916  1.00  0.00    -0.176 NA
HETATM   30  C   UNL     1      20.747  48.948  47.975  1.00  0.00     0.150 C 
BRANCH  30  31
HETATM   31  C   UNL     1      19.719  50.008  48.061  1.00  0.00    -0.014 A 
HETATM   32  C   UNL     1      18.359  49.668  48.053  1.00  0.00     0.049 A 
HETATM   33  C   UNL     1      17.399  50.648  48.296  1.00  0.00     0.069 A 
HETATM   34  C   UNL     1      17.806  51.967  48.515  1.00  0.00     0.037 A 
HETATM   35  C   UNL     1      19.161  52.307  48.512  1.00  0.00     0.004 A 
HETATM   36  C   UNL     1      20.125  51.323  48.291  1.00  0.00     0.013 A 
BRANCH  33  37
HETATM   37  O   UNL     1      16.047  50.443  48.360  1.00  0.00    -0.356 OA
HETATM   38  C   UNL     1      15.577  49.164  47.947  1.00  0.00     0.210 C 
ENDBRANCH  33  37
ENDBRANCH  30  31
ENDBRANCH   1  29
TORSDOF 8
ENDMDL
MODEL 5
REMARK VINA RESULT:      -9.2      4.400      9.489
REMARK  8 active torsions:
REMARK  status: ('A' for Active; 'I' for Inactive)
REMARK    1  A    between atoms: O_2  and  C_3 
REMARK    2  A    between atoms: C_5  and  C_6 
REMARK    3  A    between atoms: N_7  and  N_8 
REMARK    4  A    between atoms: C_19  and  C_20 
REMARK       I    between atoms: C_20  and  N_21 
REMARK    5  A    between atoms: N_21  and  C_22 
REMARK    6  A    between atoms: C_22  and  C_23 
REMARK    7  A    between atoms: C_23  and  C_24 
REMARK    8  A    between atoms: C_31  and  N_32 
ROOT
HETATM    1  N   UNL     1      27.978  41.321  51.539  1.00  0.00    -0.197 N 
HETATM    2  C   UNL     1      26.760  41.605  50.937  1.00  0.00     0.183 A 
HETATM    3  C   UNL     1      26.542  40.622  49.979  1.00  0.00     0.125 A 
HETATM    4  N   UNL     1      25.479  40.674  49.133  1.00  0.00    -0.242 NA
HETATM    5  C   UNL     1      24.648  41.706  49.342  1.00  0.00     0.086 A 
HETATM    6  C   UNL     1      24.878  42.689  50.341  1.00  0.00     0.088 A 
HETATM    7  N   UNL     1      25.948  42.669  51.154  1.00  0.00    -0.225 NA
HETATM    8  C   UNL     1      23.526  41.817  48.531  1.00  0.00     0.034 A 
HETATM    9  C   UNL     1      22.621  42.868  48.678  1.00  0.00     0.002 A 
HETATM   10  C   UNL     1      22.841  43.828  49.656  1.00  0.00     0.002 A 
HETATM   11  C   UNL     1      23.966  43.729  50.477  1.00  0.00     0.034 A 
HETATM   12  C   UNL     1      27.611  39.695  50.025  1.00  0.00     0.110 C 
HETATM   13  C   UNL     1      28.387  40.061  51.111  1.00  0.00     0.143 C 
ENDROOT
BRANCH  12  14
HETATM   14  C   UNL     1      27.964  38.653  49.077  1.00  0.00     0.257 C 
HETATM   15  N   UNL     1      26.914  38.271  48.265  1.00  0.00    -0.356 N 
HETATM   16  H   UNL     1      25.996  38.614  48.542  1.00  0.00     0.162 HD
HETATM   17  O   UNL     1      29.117  38.272  48.895  1.00  0.00    -0.267 OA
BRANCH  15  18
HETATM   18  C   UNL     1      27.151  38.169  46.838  1.00  0.00     0.127 C 
BRANCH  18  19
HETATM   19  C   UNL     1      27.279  39.552  46.173  1.00  0.00     0.053 C 
BRANCH  19  20
HETATM   20  C   UNL     1      28.157  39.595  44.932  1.00  0.00    -0.082 C 
HETATM   21  C   UNL     1      28.592  40.955  44.432  1.00  0.00     0.034 C 
HETATM   22  C   UNL     1      29.213  40.929  43.029  1.00  0.00     0.005 C 
HETATM   23  C   UNL     1      30.168  39.752  42.863  1.00  0.00     0.004 C 
HETATM   24  C   UNL     1      29.453  38.427  43.117  1.00  0.00     0.027 C 
HETATM   25  C   UNL     1      28.549  38.464  44.315  1.00  0.00    -0.024 C 
ENDBRANCH  19  20
ENDBRANCH  18  19
ENDBRANCH  15  18
ENDBRANCH  12  14
BRANCH  13  26
HETATM   26  N   UNL     1      29.497  39.478  51.629  1.00  0.00    -0.383 N 
HETATM   27  H   UNL     1      29.660  39.474  52.637  1.00  0.00     0.157 HD
HETATM   28  H   UNL     1      30.308  39.299  51.042  1.00  0.00     0.157 HD
ENDBRANCH  13  26
BRANCH   1  29
HETATM   29  N   UNL     1      28.826  42.098  52.290  1.00  0.00    -0.176 NA
HETATM   30  C   UNL     1      28.500  42.265  53.530  1.00  0.00     0.150 C 
BRANCH  30  31
HETATM   31  C   UNL     1      29.171  43.302  54.345  1.00  0.00    -0.014 A 
HETATM   32  C   UNL     1      28.521  44.516  54.606  1.00  0.00     0.049 A 
HETATM   33  C   UNL     1      29.082  45.423  55.502  1.00  0.00     0.069 A 
HETATM   34  C   UNL     1      30.305  45.120  56.107  1.00  0.00     0.037 A 
HETATM   35  C   UNL     1      30.957  43.914  55.839  1.00  0.00     0.004 A 
HETATM   36  C   UNL     1      30.386  42.995  54.958  1.00  0.00     0.013 A 
BRANCH  33  37
HETATM   37  O   UNL     1      28.532  46.618  55.879  1.00  0.00    -0.356 OA
HETATM   38  C   UNL     1      27.861  47.358  54.864  1.00  0.00     0.210 C 
ENDBRANCH  33  37
ENDBRANCH  30  31
ENDBRANCH   1  29
TORSDOF 8
ENDMDL
MODEL 6
REMARK VINA RESULT:      -9.2      1.725      9.384
REMARK  8 active torsions:
REMARK  status: ('A' for Active; 'I' for Inactive)
REMARK    1  A    between atoms: O_2  and  C_3 
REMARK    2  A    between atoms: C_5  and  C_6 
REMARK    3  A    between atoms: N_7  and  N_8 
REMARK    4  A    between atoms: C_19  and  C_20 
REMARK       I    between atoms: C_20  and  N_21 
REMARK    5  A    between atoms: N_21  and  C_22 
REMARK    6  A    between atoms: C_22  and  C_23 
REMARK    7  A    between atoms: C_23  and  C_24 
REMARK    8  A    between atoms: C_31  and  N_32 
ROOT
HETATM    1  N   UNL     1      24.881  45.994  50.308  1.00  0.00    -0.197 N 
HETATM    2  C   UNL     1      25.633  46.059  51.472  1.00  0.00     0.183 A 
HETATM    3  C   UNL     1      26.234  44.816  51.638  1.00  0.00     0.125 A 
HETATM    4  N   UNL     1      26.956  44.516  52.750  1.00  0.00    -0.242 NA
HETATM    5  C   UNL     1      27.082  45.525  53.625  1.00  0.00     0.086 A 
HETATM    6  C   UNL     1      26.478  46.796  53.426  1.00  0.00     0.088 A 
HETATM    7  N   UNL     1      25.727  47.088  52.350  1.00  0.00    -0.225 NA
HETATM    8  C   UNL     1      27.825  45.304  54.777  1.00  0.00     0.034 A 
HETATM    9  C   UNL     1      27.992  46.299  55.739  1.00  0.00     0.002 A 
HETATM   10  C   UNL     1      27.407  47.542  55.546  1.00  0.00     0.002 A 
HETATM   11  C   UNL     1      26.657  47.778  54.393  1.00  0.00     0.034 A 
HETATM   12  C   UNL     1      25.889  43.993  50.539  1.00  0.00     0.110 C 
HETATM   13  C   UNL     1      25.197  44.805  49.656  1.00  0.00     0.143 C 
ENDROOT
BRANCH  12  14
HETATM   14  C   UNL     1      26.058  42.560  50.378  1.00  0.00     0.257 C 
HETATM   15  N   UNL     1      27.342  42.126  50.640  1.00  0.00    -0.356 N 
HETATM   16  H   UNL     1      28.045  42.857  50.725  1.00  0.00     0.162 HD
HETATM   17  O   UNL     1      25.119  41.789  50.199  1.00  0.00    -0.267 OA
BRANCH  15  18
HETATM   18  C   UNL     1      27.515  40.973  51.502  1.00  0.00     0.127 C 
BRANCH  18  19
HETATM   19  C   UNL     1      28.633  40.039  51.001  1.00  0.00     0.053 C 
BRANCH  19  20
HETATM   20  C   UNL     1      28.246  39.126  49.849  1.00  0.00    -0.082 C 
HETATM   21  C   UNL     1      29.366  38.524  49.029  1.00  0.00     0.034 C 
HETATM   22  C   UNL     1      28.895  37.868  47.724  1.00  0.00     0.005 C 
HETATM   23  C   UNL     1      27.626  37.050  47.936  1.00  0.00     0.004 C 
HETATM   24  C   UNL     1      26.501  37.919  48.492  1.00  0.00     0.027 C 
HETATM   25  C   UNL     1      26.955  38.848  49.581  1.00  0.00    -0.024 C 
ENDBRANCH  19  20
ENDBRANCH  18  19
ENDBRANCH  15  18
ENDBRANCH  12  14
BRANCH  13  26
HETATM   26  N   UNL     1      24.690  44.529  48.429  1.00  0.00    -0.383 N 
HETATM   27  H   UNL     1      24.977  43.689  47.925  1.00  0.00     0.157 HD
HETATM   28  H   UNL     1      24.259  45.262  47.871  1.00  0.00     0.157 HD
ENDBRANCH  13  26
BRANCH   1  29
HETATM   29  N   UNL     1      23.855  46.778  49.841  1.00  0.00    -0.176 NA
HETATM   30  C   UNL     1      24.197  47.893  49.282  1.00  0.00     0.150 C 
BRANCH  30  31
HETATM   31  C   UNL     1      23.181  48.933  49.009  1.00  0.00    -0.014 A 
HETATM   32  C   UNL     1      21.819  48.639  49.157  1.00  0.00     0.049 A 
HETATM   33  C   UNL     1      20.875  49.658  49.057  1.00  0.00     0.069 A 
HETATM   34  C   UNL     1      21.300  50.960  48.780  1.00  0.00     0.037 A 
HETATM   35  C   UNL     1      22.658  51.251  48.622  1.00  0.00     0.004 A 
HETATM   36  C   UNL     1      23.606  50.236  48.743  1.00  0.00     0.013 A 
BRANCH  33  37
HETATM   37  O   UNL     1      19.524  49.516  49.225  1.00  0.00    -0.356 OA
HETATM   38  C   UNL     1      19.016  49.760  50.532  1.00  0.00     0.210 C 
ENDBRANCH  33  37
ENDBRANCH  30  31
ENDBRANCH   1  29
TORSDOF 8
ENDMDL
MODEL 7
REMARK VINA RESULT:      -8.9      2.365      5.936
REMARK  8 active torsions:
REMARK  status: ('A' for Active; 'I' for Inactive)
REMARK    1  A    between atoms: O_2  and  C_3 
REMARK    2  A    between atoms: C_5  and  C_6 
REMARK    3  A    between atoms: N_7  and  N_8 
REMARK    4  A    between atoms: C_19  and  C_20 
REMARK       I    between atoms: C_20  and  N_21 
REMARK    5  A    between atoms: N_21  and  C_22 
REMARK    6  A    between atoms: C_22  and  C_23 
REMARK    7  A    between atoms: C_23  and  C_24 
REMARK    8  A    between atoms: C_31  and  N_32 
ROOT
HETATM    1  N   UNL     1      26.835  44.229  50.701  1.00  0.00    -0.197 N 
HETATM    2  C   UNL     1      26.705  43.207  49.771  1.00  0.00     0.183 A 
HETATM    3  C   UNL     1      25.389  43.231  49.323  1.00  0.00     0.125 A 
HETATM    4  N   UNL     1      24.906  42.281  48.480  1.00  0.00    -0.242 NA
HETATM    5  C   UNL     1      25.810  41.373  48.083  1.00  0.00     0.086 A 
HETATM    6  C   UNL     1      27.156  41.379  48.536  1.00  0.00     0.088 A 
HETATM    7  N   UNL     1      27.632  42.289  49.403  1.00  0.00    -0.225 NA
HETATM    8  C   UNL     1      25.398  40.381  47.203  1.00  0.00     0.034 A 
HETATM    9  C   UNL     1      26.276  39.394  46.753  1.00  0.00     0.002 A 
HETATM   10  C   UNL     1      27.592  39.400  47.191  1.00  0.00     0.002 A 
HETATM   11  C   UNL     1      28.019  40.391  48.077  1.00  0.00     0.034 A 
HETATM   12  C   UNL     1      24.715  44.310  49.945  1.00  0.00     0.110 C 
HETATM   13  C   UNL     1      25.680  45.005  50.653  1.00  0.00     0.143 C 
ENDROOT
BRANCH  12  14
HETATM   14  C   UNL     1      23.292  44.596  49.996  1.00  0.00     0.257 C 
HETATM   15  N   UNL     1      22.966  45.845  49.506  1.00  0.00    -0.356 N 
HETATM   16  H   UNL     1      23.749  46.475  49.349  1.00  0.00     0.162 HD
HETATM   17  O   UNL     1      22.447  43.752  50.281  1.00  0.00    -0.267 OA
BRANCH  15  18
HETATM   18  C   UNL     1      21.868  45.947  48.564  1.00  0.00     0.127 C 
BRANCH  18  19
HETATM   19  C   UNL     1      22.035  47.143  47.608  1.00  0.00     0.053 C 
BRANCH  19  20
HETATM   20  C   UNL     1      21.684  48.499  48.201  1.00  0.00    -0.082 C 
HETATM   21  C   UNL     1      22.542  49.679  47.800  1.00  0.00     0.034 C 
HETATM   22  C   UNL     1      22.314  50.930  48.658  1.00  0.00     0.005 C 
HETATM   23  C   UNL     1      20.830  51.164  48.921  1.00  0.00     0.004 C 
HETATM   24  C   UNL     1      20.202  49.960  49.618  1.00  0.00     0.027 C 
HETATM   25  C   UNL     1      20.636  48.646  49.034  1.00  0.00    -0.024 C 
ENDBRANCH  19  20
ENDBRANCH  18  19
ENDBRANCH  15  18
ENDBRANCH  12  14
BRANCH  13  26
HETATM   26  N   UNL     1      25.579  46.145  51.381  1.00  0.00    -0.383 N 
HETATM   27  H   UNL     1      26.413  46.672  51.641  1.00  0.00     0.157 HD
HETATM   28  H   UNL     1      24.738  46.341  51.919  1.00  0.00     0.157 HD
ENDBRANCH  13  26
BRANCH   1  29
HETATM   29  N   UNL     1      27.776  44.461  51.674  1.00  0.00    -0.176 NA
HETATM   30  C   UNL     1      27.641  43.789  52.770  1.00  0.00     0.150 C 
BRANCH  30  31
HETATM   31  C   UNL     1      28.412  44.165  53.976  1.00  0.00    -0.014 A 
HETATM   32  C   UNL     1      29.460  43.348  54.420  1.00  0.00     0.049 A 
HETATM   33  C   UNL     1      30.286  43.782  55.455  1.00  0.00     0.069 A 
HETATM   34  C   UNL     1      30.037  45.018  56.057  1.00  0.00     0.037 A 
HETATM   35  C   UNL     1      28.985  45.827  55.621  1.00  0.00     0.004 A 
HETATM   36  C   UNL     1      28.171  45.404  54.571  1.00  0.00     0.013 A 
BRANCH  33  37
HETATM   37  O   UNL     1      31.367  43.105  55.951  1.00  0.00    -0.356 OA
HETATM   38  C   UNL     1      31.744  43.403  57.292  1.00  0.00     0.210 C 
ENDBRANCH  33  37
ENDBRANCH  30  31
ENDBRANCH   1  29
TORSDOF 8
ENDMDL
MODEL 8
REMARK VINA RESULT:      -8.8      4.780      8.870
REMARK  8 active torsions:
REMARK  status: ('A' for Active; 'I' for Inactive)
REMARK    1  A    between atoms: O_2  and  C_3 
REMARK    2  A    between atoms: C_5  and  C_6 
REMARK    3  A    between atoms: N_7  and  N_8 
REMARK    4  A    between atoms: C_19  and  C_20 
REMARK       I    between atoms: C_20  and  N_21 
REMARK    5  A    between atoms: N_21  and  C_22 
REMARK    6  A    between atoms: C_22  and  C_23 
REMARK    7  A    between atoms: C_23  and  C_24 
REMARK    8  A    between atoms: C_31  and  N_32 
ROOT
HETATM    1  N   UNL     1      20.367  48.643  49.312  1.00  0.00    -0.197 N 
HETATM    2  C   UNL     1      19.228  49.435  49.277  1.00  0.00     0.183 A 
HETATM    3  C   UNL     1      18.259  48.722  48.580  1.00  0.00     0.125 A 
HETATM    4  N   UNL     1      17.052  49.269  48.275  1.00  0.00    -0.242 NA
HETATM    5  C   UNL     1      16.866  50.511  48.748  1.00  0.00     0.086 A 
HETATM    6  C   UNL     1      17.862  51.214  49.477  1.00  0.00     0.088 A 
HETATM    7  N   UNL     1      19.072  50.697  49.746  1.00  0.00    -0.225 NA
HETATM    8  C   UNL     1      15.649  51.130  48.496  1.00  0.00     0.034 A 
HETATM    9  C   UNL     1      15.383  52.424  48.944  1.00  0.00     0.002 A 
HETATM   10  C   UNL     1      16.352  53.112  49.659  1.00  0.00     0.002 A 
HETATM   11  C   UNL     1      17.580  52.502  49.918  1.00  0.00     0.034 A 
HETATM   12  C   UNL     1      18.789  47.458  48.226  1.00  0.00     0.110 C 
HETATM   13  C   UNL     1      20.027  47.378  48.841  1.00  0.00     0.143 C 
ENDROOT
BRANCH  12  14
HETATM   14  C   UNL     1      18.268  46.472  47.297  1.00  0.00     0.257 C 
HETATM   15  N   UNL     1      17.041  46.814  46.764  1.00  0.00    -0.356 N 
HETATM   16  H   UNL     1      16.569  47.597  47.212  1.00  0.00     0.162 HD
HETATM   17  O   UNL     1      18.926  45.517  46.891  1.00  0.00    -0.267 OA
BRANCH  15  18
HETATM   18  C   UNL     1      16.858  46.698  45.330  1.00  0.00     0.127 C 
BRANCH  18  19
HETATM   19  C   UNL     1      17.694  47.733  44.555  1.00  0.00     0.053 C 
BRANCH  19  20
HETATM   20  C   UNL     1      17.294  49.184  44.775  1.00  0.00    -0.082 C 
HETATM   21  C   UNL     1      18.402  50.181  45.038  1.00  0.00     0.034 C 
HETATM   22  C   UNL     1      17.903  51.542  45.538  1.00  0.00     0.005 C 
HETATM   23  C   UNL     1      16.674  52.006  44.764  1.00  0.00     0.004 C 
HETATM   24  C   UNL     1      15.541  50.988  44.875  1.00  0.00     0.027 C 
HETATM   25  C   UNL     1      16.005  49.569  44.717  1.00  0.00    -0.024 C 
ENDBRANCH  19  20
ENDBRANCH  18  19
ENDBRANCH  15  18
ENDBRANCH  12  14
BRANCH  13  26
HETATM   26  N   UNL     1      20.925  46.362  48.869  1.00  0.00    -0.383 N 
HETATM   27  H   UNL     1      20.628  45.411  49.090  1.00  0.00     0.157 HD
HETATM   28  H   UNL     1      21.920  46.554  48.961  1.00  0.00     0.157 HD
ENDBRANCH  13  26
BRANCH   1  29
HETATM   29  N   UNL     1      21.682  48.949  49.564  1.00  0.00    -0.176 NA
HETATM   30  C   UNL     1      22.438  49.118  48.530  1.00  0.00     0.150 C 
BRANCH  30  31
HETATM   31  C   UNL     1      23.909  49.162  48.680  1.00  0.00    -0.014 A 
HETATM   32  C   UNL     1      24.565  48.188  49.444  1.00  0.00     0.049 A 
HETATM   33  C   UNL     1      25.958  48.135  49.453  1.00  0.00     0.069 A 
HETATM   34  C   UNL     1      26.683  49.079  48.719  1.00  0.00     0.037 A 
HETATM   35  C   UNL     1      26.028  50.056  47.966  1.00  0.00     0.004 A 
HETATM   36  C   UNL     1      24.634  50.096  47.939  1.00  0.00     0.013 A 
BRANCH  33  37
HETATM   37  O   UNL     1      26.718  47.212  50.117  1.00  0.00    -0.356 OA
HETATM   38  C   UNL     1      26.552  45.852  49.729  1.00  0.00     0.210 C 
ENDBRANCH  33  37
ENDBRANCH  30  31
ENDBRANCH   1  29
TORSDOF 8
ENDMDL
MODEL 9
REMARK VINA RESULT:      -8.8      4.248      9.408
REMARK  8 active torsions:
REMARK  status: ('A' for Active; 'I' for Inactive)
REMARK    1  A    between atoms: O_2  and  C_3 
REMARK    2  A    between atoms: C_5  and  C_6 
REMARK    3  A    between atoms: N_7  and  N_8 
REMARK    4  A    between atoms: C_19  and  C_20 
REMARK       I    between atoms: C_20  and  N_21 
REMARK    5  A    between atoms: N_21  and  C_22 
REMARK    6  A    between atoms: C_22  and  C_23 
REMARK    7  A    between atoms: C_23  and  C_24 
REMARK    8  A    between atoms: C_31  and  N_32 
ROOT
HETATM    1  N   UNL     1      26.912  41.799  51.599  1.00  0.00    -0.197 N 
HETATM    2  C   UNL     1      25.866  42.176  50.769  1.00  0.00     0.183 A 
HETATM    3  C   UNL     1      26.134  41.647  49.512  1.00  0.00     0.125 A 
HETATM    4  N   UNL     1      25.349  41.928  48.438  1.00  0.00    -0.242 NA
HETATM    5  C   UNL     1      24.285  42.698  48.709  1.00  0.00     0.086 A 
HETATM    6  C   UNL     1      24.016  43.211  50.006  1.00  0.00     0.088 A 
HETATM    7  N   UNL     1      24.810  42.973  51.065  1.00  0.00    -0.225 NA
HETATM    8  C   UNL     1      23.422  43.012  47.667  1.00  0.00     0.034 A 
HETATM    9  C   UNL     1      22.300  43.816  47.867  1.00  0.00     0.002 A 
HETATM   10  C   UNL     1      22.034  44.315  49.133  1.00  0.00     0.002 A 
HETATM   11  C   UNL     1      22.893  44.008  50.189  1.00  0.00     0.034 A 
HETATM   12  C   UNL     1      27.331  40.894  49.580  1.00  0.00     0.110 C 
HETATM   13  C   UNL     1      27.690  40.868  50.917  1.00  0.00     0.143 C 
ENDROOT
BRANCH  12  14
HETATM   14  C   UNL     1      28.145  40.366  48.500  1.00  0.00     0.257 C 
HETATM   15  N   UNL     1      27.558  40.495  47.256  1.00  0.00    -0.356 N 
HETATM   16  H   UNL     1      26.576  40.762  47.258  1.00  0.00     0.162 HD
HETATM   17  O   UNL     1      29.307  40.001  48.651  1.00  0.00    -0.267 OA
BRANCH  15  18
HETATM   18  C   UNL     1      28.360  41.028  46.171  1.00  0.00     0.127 C 
BRANCH  18  19
HETATM   19  C   UNL     1      27.827  40.594  44.793  1.00  0.00     0.053 C 
BRANCH  19  20
HETATM   20  C   UNL     1      28.784  39.750  43.966  1.00  0.00    -0.082 C 
HETATM   21  C   UNL     1      29.678  40.472  42.981  1.00  0.00     0.034 C 
HETATM   22  C   UNL     1      30.387  39.539  41.990  1.00  0.00     0.005 C 
HETATM   23  C   UNL     1      30.924  38.292  42.682  1.00  0.00     0.004 C 
HETATM   24  C   UNL     1      29.800  37.524  43.374  1.00  0.00     0.027 C 
HETATM   25  C   UNL     1      28.848  38.414  44.119  1.00  0.00    -0.024 C 
ENDBRANCH  19  20
ENDBRANCH  18  19
ENDBRANCH  15  18
ENDBRANCH  12  14
BRANCH  13  26
HETATM   26  N   UNL     1      28.723  40.241  51.532  1.00  0.00    -0.383 N 
HETATM   27  H   UNL     1      28.555  39.605  52.312  1.00  0.00     0.157 HD
HETATM   28  H   UNL     1      29.672  40.596  51.438  1.00  0.00     0.157 HD
ENDBRANCH  13  26
BRANCH   1  29
HETATM   29  N   UNL     1      27.336  42.288  52.811  1.00  0.00    -0.176 NA
HETATM   30  C   UNL     1      27.782  43.501  52.813  1.00  0.00     0.150 C 
BRANCH  30  31
HETATM   31  C   UNL     1      28.522  44.022  53.982  1.00  0.00    -0.014 A 
HETATM   32  C   UNL     1      29.595  43.294  54.514  1.00  0.00     0.049 A 
HETATM   33  C   UNL     1      30.391  43.858  55.509  1.00  0.00     0.069 A 
HETATM   34  C   UNL     1      30.088  45.136  55.985  1.00  0.00     0.037 A 
HETATM   35  C   UNL     1      29.012  45.858  55.461  1.00  0.00     0.004 A 
HETATM   36  C   UNL     1      28.228  45.304  54.450  1.00  0.00     0.013 A 
BRANCH  33  37
HETATM   37  O   UNL     1      31.490  43.275  56.079  1.00  0.00    -0.356 OA
HETATM   38  C   UNL     1      31.715  43.553  57.457  1.00  0.00     0.210 C 
ENDBRANCH  33  37
ENDBRANCH  30  31
ENDBRANCH   1  29
TORSDOF 8
ENDMDL
MODEL 10
REMARK VINA RESULT:      -8.7      1.518      2.024
REMARK  8 active torsions:
REMARK  status: ('A' for Active; 'I' for Inactive)
REMARK    1  A    between atoms: O_2  and  C_3 
REMARK    2  A    between atoms: C_5  and  C_6 
REMARK    3  A    between atoms: N_7  and  N_8 
REMARK    4  A    between atoms: C_19  and  C_20 
REMARK       I    between atoms: C_20  and  N_21 
REMARK    5  A    between atoms: N_21  and  C_22 
REMARK    6  A    between atoms: C_22  and  C_23 
REMARK    7  A    between atoms: C_23  and  C_24 
REMARK    8  A    between atoms: C_31  and  N_32 
ROOT
HETATM    1  N   UNL     1      24.894  43.833  50.755  1.00  0.00    -0.197 N 
HETATM    2  C   UNL     1      25.432  44.667  51.724  1.00  0.00     0.183 A 
HETATM    3  C   UNL     1      24.994  45.956  51.440  1.00  0.00     0.125 A 
HETATM    4  N   UNL     1      25.435  47.031  52.145  1.00  0.00    -0.242 NA
HETATM    5  C   UNL     1      26.268  46.735  53.154  1.00  0.00     0.086 A 
HETATM    6  C   UNL     1      26.686  45.408  53.442  1.00  0.00     0.088 A 
HETATM    7  N   UNL     1      26.289  44.344  52.724  1.00  0.00    -0.225 NA
HETATM    8  C   UNL     1      26.746  47.778  53.936  1.00  0.00     0.034 A 
HETATM    9  C   UNL     1      27.624  47.553  54.996  1.00  0.00     0.002 A 
HETATM   10  C   UNL     1      28.032  46.257  55.281  1.00  0.00     0.002 A 
HETATM   11  C   UNL     1      27.559  45.199  54.503  1.00  0.00     0.034 A 
HETATM   12  C   UNL     1      24.137  45.908  50.314  1.00  0.00     0.110 C 
HETATM   13  C   UNL     1      23.962  44.565  50.024  1.00  0.00     0.143 C 
ENDROOT
BRANCH  12  14
HETATM   14  C   UNL     1      23.636  46.997  49.495  1.00  0.00     0.257 C 
HETATM   15  N   UNL     1      24.232  48.212  49.773  1.00  0.00    -0.356 N 
HETATM   16  H   UNL     1      24.795  48.242  50.620  1.00  0.00     0.162 HD
HETATM   17  O   UNL     1      22.889  46.828  48.535  1.00  0.00    -0.267 OA
BRANCH  15  18
HETATM   18  C   UNL     1      24.710  49.012  48.662  1.00  0.00     0.127 C 
BRANCH  18  19
HETATM   19  C   UNL     1      24.169  50.453  48.713  1.00  0.00     0.053 C 
BRANCH  19  20
HETATM   20  C   UNL     1      22.656  50.574  48.803  1.00  0.00    -0.082 C 
HETATM   21  C   UNL     1      21.854  50.219  47.570  1.00  0.00     0.034 C 
HETATM   22  C   UNL     1      20.383  50.647  47.644  1.00  0.00     0.005 C 
HETATM   23  C   UNL     1      19.782  50.350  49.014  1.00  0.00     0.004 C 
HETATM   24  C   UNL     1      20.564  51.056  50.118  1.00  0.00     0.027 C 
HETATM   25  C   UNL     1      22.052  50.962  49.942  1.00  0.00    -0.024 C 
ENDBRANCH  19  20
ENDBRANCH  18  19
ENDBRANCH  15  18
ENDBRANCH  12  14
BRANCH  13  26
HETATM   26  N   UNL     1      23.197  43.968  49.078  1.00  0.00    -0.383 N 
HETATM   27  H   UNL     1      23.617  43.608  48.220  1.00  0.00     0.157 HD
HETATM   28  H   UNL     1      22.191  44.119  49.055  1.00  0.00     0.157 HD
ENDBRANCH  13  26
BRANCH   1  29
HETATM   29  N   UNL     1      25.236  42.565  50.352  1.00  0.00    -0.176 NA
HETATM   30  C   UNL     1      26.387  42.440  49.777  1.00  0.00     0.150 C 
BRANCH  30  31
HETATM   31  C   UNL     1      26.729  41.196  49.054  1.00  0.00    -0.014 A 
HETATM   32  C   UNL     1      25.713  40.413  48.488  1.00  0.00     0.049 A 
HETATM   33  C   UNL     1      26.043  39.332  47.673  1.00  0.00     0.069 A 
HETATM   34  C   UNL     1      27.389  39.027  47.454  1.00  0.00     0.037 A 
HETATM   35  C   UNL     1      28.401  39.801  48.026  1.00  0.00     0.004 A 
HETATM   36  C   UNL     1      28.072  40.896  48.825  1.00  0.00     0.013 A 
BRANCH  33  37
HETATM   37  O   UNL     1      25.153  38.518  47.026  1.00  0.00    -0.356 OA
HETATM   38  C   UNL     1      25.679  37.321  46.462  1.00  0.00     0.210 C 
ENDBRANCH  33  37
ENDBRANCH  30  31
ENDBRANCH   1  29
TORSDOF 8
ENDMDL
