MODEL 1
REMARK VINA RESULT:     -10.0      0.000      0.000
REMARK  3 active torsions:
REMARK  status: ('A' for Active; 'I' for Inactive)
REMARK    1  A    between atoms: C_3  and  N_4 
REMARK    2  A    between atoms: C_14  and  N_15 
REMARK       I    between atoms: N_15  and  C_16 
REMARK    3  A    between atoms: C_16  and  C_17 
ROOT
HETATM    1  N   UNL     1      29.848  43.932  54.862  1.00  0.00    -0.237 N 
HETATM    2  N   UNL     1      30.973  43.414  54.297  1.00  0.00    -0.179 NA
HETATM    3  C   UNL     1      30.576  42.800  53.188  1.00  0.00     0.150 A 
HETATM    4  C   UNL     1      29.193  42.884  53.000  1.00  0.00     0.008 A 
HETATM    5  C   UNL     1      28.742  43.635  54.069  1.00  0.00     0.047 A 
HETATM    6  C   UNL     1      27.332  44.110  54.228  1.00  0.00     0.069 C 
HETATM    7  C   UNL     1      26.549  44.019  52.879  1.00  0.00    -0.040 C 
HETATM    8  C   UNL     1      26.918  45.199  51.958  1.00  0.00     0.015 C 
HETATM    9  C   UNL     1      25.040  44.104  53.180  1.00  0.00     0.015 C 
HETATM   10  C   UNL     1      26.842  42.659  52.176  1.00  0.00     0.039 C 
HETATM   11  C   UNL     1      28.340  42.419  51.869  1.00  0.00     0.122 C 
ENDROOT
BRANCH  11  12
HETATM   12  N   UNL     1      28.597  41.009  51.657  1.00  0.00    -0.347 N 
HETATM   13  C   UNL     1      28.413  40.436  50.425  1.00  0.00     0.270 C 
HETATM   14  O   UNL     1      28.096  41.067  49.420  1.00  0.00    -0.266 OA
HETATM   15  H   UNL     1      28.746  40.434  52.472  1.00  0.00     0.163 HD
BRANCH  13  16
HETATM   16  C   UNL     1      28.605  38.965  50.356  1.00  0.00     0.120 A 
HETATM   17  N   UNL     1      29.452  38.326  51.236  1.00  0.00    -0.303 N 
HETATM   18  C   UNL     1      29.456  36.957  50.969  1.00  0.00     0.324 A 
HETATM   19  H   UNL     1      29.979  38.785  51.963  1.00  0.00     0.171 HD
HETATM   20  O   UNL     1      30.080  36.082  51.539  1.00  0.00    -0.247 OA
HETATM   21  N   UNL     1      28.575  36.808  49.889  1.00  0.00    -0.316 N 
HETATM   22  C   UNL     1      28.072  38.039  49.541  1.00  0.00     0.128 A 
HETATM   23  H   UNL     1      28.365  35.916  49.468  1.00  0.00     0.170 HD
ENDBRANCH  13  16
ENDBRANCH  11  12
BRANCH   1  24
HETATM   24  C   UNL     1      29.922  44.632  56.111  1.00  0.00     0.064 A 
HETATM   25  C   UNL     1      30.841  44.262  57.125  1.00  0.00    -0.033 A 
HETATM   26  C   UNL     1      31.856  43.156  56.991  1.00  0.00     0.050 C 
HETATM   27  C   UNL     1      30.838  44.976  58.342  1.00  0.00     0.009 A 
HETATM   28  C   UNL     1      29.964  46.039  58.557  1.00  0.00     0.001 A 
HETATM   29  C   UNL     1      29.064  46.399  57.566  1.00  0.00     0.002 A 
HETATM   30  C   UNL     1      29.038  45.699  56.357  1.00  0.00     0.032 A 
ENDBRANCH   1  24
TORSDOF 3
ENDMDL
MODEL 2
REMARK VINA RESULT:      -9.8      1.613      2.208
REMARK  3 active torsions:
REMARK  status: ('A' for Active; 'I' for Inactive)
REMARK    1  A    between atoms: C_3  and  N_4 
REMARK    2  A    between atoms: C_14  and  N_15 
REMARK       I    between atoms: N_15  and  C_16 
REMARK    3  A    between atoms: C_16  and  C_17 
ROOT
HETATM    1  N   UNL     1      29.604  43.611  54.298  1.00  0.00    -0.237 N 
HETATM    2  N   UNL     1      30.380  43.118  53.293  1.00  0.00    -0.179 NA
HETATM    3  C   UNL     1      29.550  42.848  52.290  1.00  0.00     0.150 A 
HETATM    4  C   UNL     1      28.220  43.139  52.607  1.00  0.00     0.008 A 
HETATM    5  C   UNL     1      28.273  43.652  53.890  1.00  0.00     0.047 A 
HETATM    6  C   UNL     1      27.099  44.237  54.612  1.00  0.00     0.069 C 
HETATM    7  C   UNL     1      25.938  44.575  53.622  1.00  0.00    -0.040 C 
HETATM    8  C   UNL     1      26.228  45.892  52.877  1.00  0.00     0.015 C 
HETATM    9  C   UNL     1      24.641  44.761  54.431  1.00  0.00     0.015 C 
HETATM   10  C   UNL     1      25.733  43.405  52.612  1.00  0.00     0.039 C 
HETATM   11  C   UNL     1      26.989  43.072  51.770  1.00  0.00     0.122 C 
ENDROOT
BRANCH  11  12
HETATM   12  N   UNL     1      26.891  41.738  51.214  1.00  0.00    -0.347 N 
HETATM   13  C   UNL     1      27.001  41.527  49.864  1.00  0.00     0.270 C 
HETATM   14  O   UNL     1      27.256  42.414  49.053  1.00  0.00    -0.266 OA
HETATM   15  H   UNL     1      26.569  41.001  51.823  1.00  0.00     0.163 HD
BRANCH  13  16
HETATM   16  C   UNL     1      26.776  40.133  49.403  1.00  0.00     0.120 A 
HETATM   17  N   UNL     1      27.257  39.067  50.131  1.00  0.00    -0.303 N 
HETATM   18  C   UNL     1      26.915  37.874  49.495  1.00  0.00     0.324 A 
HETATM   19  H   UNL     1      27.771  39.146  50.996  1.00  0.00     0.171 HD
HETATM   20  O   UNL     1      27.167  36.736  49.844  1.00  0.00    -0.247 OA
HETATM   21  N   UNL     1      26.209  38.277  48.352  1.00  0.00    -0.316 N 
HETATM   22  C   UNL     1      26.137  39.649  48.324  1.00  0.00     0.128 A 
HETATM   23  H   UNL     1      25.824  37.627  47.684  1.00  0.00     0.170 HD
ENDBRANCH  13  16
ENDBRANCH  11  12
BRANCH   1  24
HETATM   24  C   UNL     1      30.192  43.967  55.557  1.00  0.00     0.064 A 
HETATM   25  C   UNL     1      30.018  45.252  56.130  1.00  0.00    -0.033 A 
HETATM   26  C   UNL     1      29.174  46.345  55.526  1.00  0.00     0.050 C 
HETATM   27  C   UNL     1      30.650  45.543  57.357  1.00  0.00     0.009 A 
HETATM   28  C   UNL     1      31.425  44.593  58.017  1.00  0.00     0.001 A 
HETATM   29  C   UNL     1      31.597  43.336  57.455  1.00  0.00     0.002 A 
HETATM   30  C   UNL     1      30.992  43.028  56.234  1.00  0.00     0.032 A 
ENDBRANCH   1  24
TORSDOF 3
ENDMDL
MODEL 3
REMARK VINA RESULT:      -9.8      3.298      6.079
REMARK  3 active torsions:
REMARK  status: ('A' for Active; 'I' for Inactive)
REMARK    1  A    between atoms: C_3  and  N_4 
REMARK    2  A    between atoms: C_14  and  N_15 
REMARK       I    between atoms: N_15  and  C_16 
REMARK    3  A    between atoms: C_16  and  C_17 
ROOT
HETATM    1  N   UNL     1      25.382  45.949  49.898  1.00  0.00    -0.237 N 
HETATM    2  N   UNL     1      25.023  44.921  49.080  1.00  0.00    -0.179 NA
HETATM    3  C   UNL     1      25.449  43.813  49.678  1.00  0.00     0.150 A 
HETATM    4  C   UNL     1      26.104  44.078  50.884  1.00  0.00     0.008 A 
HETATM    5  C   UNL     1      26.032  45.451  51.025  1.00  0.00     0.047 A 
HETATM    6  C   UNL     1      26.481  46.197  52.242  1.00  0.00     0.069 C 
HETATM    7  C   UNL     1      26.646  45.237  53.464  1.00  0.00    -0.040 C 
HETATM    8  C   UNL     1      25.274  44.909  54.084  1.00  0.00     0.015 C 
HETATM    9  C   UNL     1      27.495  45.948  54.536  1.00  0.00     0.015 C 
HETATM   10  C   UNL     1      27.381  43.933  53.029  1.00  0.00     0.039 C 
HETATM   11  C   UNL     1      26.660  43.148  51.907  1.00  0.00     0.122 C 
ENDROOT
BRANCH  11  12
HETATM   12  N   UNL     1      27.578  42.243  51.247  1.00  0.00    -0.347 N 
HETATM   13  C   UNL     1      27.186  40.980  50.884  1.00  0.00     0.270 C 
HETATM   14  O   UNL     1      26.041  40.557  51.018  1.00  0.00    -0.266 OA
HETATM   15  H   UNL     1      28.553  42.504  51.221  1.00  0.00     0.163 HD
BRANCH  13  16
HETATM   16  C   UNL     1      28.245  40.109  50.313  1.00  0.00     0.120 A 
HETATM   17  N   UNL     1      28.904  39.194  51.105  1.00  0.00    -0.303 N 
HETATM   18  C   UNL     1      29.842  38.502  50.339  1.00  0.00     0.324 A 
HETATM   19  H   UNL     1      28.723  39.048  52.087  1.00  0.00     0.171 HD
HETATM   20  O   UNL     1      30.603  37.624  50.696  1.00  0.00    -0.247 OA
HETATM   21  N   UNL     1      29.714  39.048  49.054  1.00  0.00    -0.316 N 
HETATM   22  C   UNL     1      28.738  40.016  49.066  1.00  0.00     0.128 A 
HETATM   23  H   UNL     1      30.269  38.743  48.268  1.00  0.00     0.170 HD
ENDBRANCH  13  16
ENDBRANCH  11  12
BRANCH   1  24
HETATM   24  C   UNL     1      25.104  47.305  49.520  1.00  0.00     0.064 A 
HETATM   25  C   UNL     1      26.135  48.214  49.174  1.00  0.00    -0.033 A 
HETATM   26  C   UNL     1      27.598  47.857  49.111  1.00  0.00     0.050 C 
HETATM   27  C   UNL     1      25.790  49.541  48.842  1.00  0.00     0.009 A 
HETATM   28  C   UNL     1      24.465  49.966  48.836  1.00  0.00     0.001 A 
HETATM   29  C   UNL     1      23.456  49.077  49.177  1.00  0.00     0.002 A 
HETATM   30  C   UNL     1      23.773  47.761  49.522  1.00  0.00     0.032 A 
ENDBRANCH   1  24
TORSDOF 3
ENDMDL
MODEL 4
REMARK VINA RESULT:      -9.6      4.423      6.878
REMARK  3 active torsions:
REMARK  status: ('A' for Active; 'I' for Inactive)
REMARK    1  A    between atoms: C_3  and  N_4 
REMARK    2  A    between atoms: C_14  and  N_15 
REMARK       I    between atoms: N_15  and  C_16 
REMARK    3  A    between atoms: C_16  and  C_17 
ROOT
HETATM    1  N   UNL     1      28.711  45.729  55.283  1.00  0.00    -0.237 N 
HETATM    2  N   UNL     1      28.308  47.023  55.420  1.00  0.00    -0.179 NA
HETATM    3  C   UNL     1      27.423  47.234  54.452  1.00  0.00     0.150 A 
HETATM    4  C   UNL     1      27.229  46.104  53.652  1.00  0.00     0.008 A 
HETATM    5  C   UNL     1      28.044  45.138  54.213  1.00  0.00     0.047 A 
HETATM    6  C   UNL     1      28.072  43.706  53.779  1.00  0.00     0.069 C 
HETATM    7  C   UNL     1      26.811  43.348  52.930  1.00  0.00    -0.040 C 
HETATM    8  C   UNL     1      25.590  43.121  53.843  1.00  0.00     0.015 C 
HETATM    9  C   UNL     1      27.086  42.036  52.170  1.00  0.00     0.015 C 
HETATM   10  C   UNL     1      26.521  44.474  51.892  1.00  0.00     0.039 C 
HETATM   11  C   UNL     1      26.284  45.867  52.525  1.00  0.00     0.122 C 
ENDROOT
BRANCH  11  12
HETATM   12  N   UNL     1      26.479  46.913  51.542  1.00  0.00    -0.347 N 
HETATM   13  C   UNL     1      25.481  47.251  50.664  1.00  0.00     0.270 C 
HETATM   14  O   UNL     1      24.355  46.761  50.690  1.00  0.00    -0.266 OA
HETATM   15  H   UNL     1      27.417  47.260  51.409  1.00  0.00     0.163 HD
BRANCH  13  16
HETATM   16  C   UNL     1      25.836  48.262  49.635  1.00  0.00     0.120 A 
HETATM   17  N   UNL     1      24.854  48.991  49.000  1.00  0.00    -0.303 N 
HETATM   18  C   UNL     1      25.439  49.868  48.086  1.00  0.00     0.324 A 
HETATM   19  H   UNL     1      23.865  48.903  49.180  1.00  0.00     0.171 HD
HETATM   20  O   UNL     1      24.889  50.664  47.350  1.00  0.00    -0.247 OA
HETATM   21  N   UNL     1      26.815  49.627  48.204  1.00  0.00    -0.316 N 
HETATM   22  C   UNL     1      27.027  48.652  49.150  1.00  0.00     0.128 A 
HETATM   23  H   UNL     1      27.509  50.120  47.663  1.00  0.00     0.170 HD
ENDBRANCH  13  16
ENDBRANCH  11  12
BRANCH   1  24
HETATM   24  C   UNL     1      29.709  45.186  56.158  1.00  0.00     0.064 A 
HETATM   25  C   UNL     1      29.763  45.521  57.535  1.00  0.00    -0.033 A 
HETATM   26  C   UNL     1      28.773  46.418  58.231  1.00  0.00     0.050 C 
HETATM   27  C   UNL     1      30.792  44.972  58.329  1.00  0.00     0.009 A 
HETATM   28  C   UNL     1      31.739  44.105  57.793  1.00  0.00     0.001 A 
HETATM   29  C   UNL     1      31.687  43.779  56.445  1.00  0.00     0.002 A 
HETATM   30  C   UNL     1      30.686  44.320  55.634  1.00  0.00     0.032 A 
ENDBRANCH   1  24
TORSDOF 3
ENDMDL
MODEL 5
REMARK VINA RESULT:      -9.5      7.455     10.486
REMARK  3 active torsions:
REMARK  status: ('A' for Active; 'I' for Inactive)
REMARK    1  A    between atoms: C_3  and  N_4 
REMARK    2  A    between atoms: C_14  and  N_15 
REMARK       I    between atoms: N_15  and  C_16 
REMARK    3  A    between atoms: C_16  and  C_17 
ROOT
HETATM    1  N   UNL     1      21.335  49.385  49.215  1.00  0.00    -0.237 N 
HETATM    2  N   UNL     1      22.593  49.710  49.622  1.00  0.00    -0.179 NA
HETATM    3  C   UNL     1      23.303  48.589  49.547  1.00  0.00     0.150 A 
HETATM    4  C   UNL     1      22.539  47.504  49.107  1.00  0.00     0.008 A 
HETATM    5  C   UNL     1      21.284  48.035  48.873  1.00  0.00     0.047 A 
HETATM    6  C   UNL     1      20.151  47.277  48.254  1.00  0.00     0.069 C 
HETATM    7  C   UNL     1      20.660  45.984  47.540  1.00  0.00    -0.040 C 
HETATM    8  C   UNL     1      21.273  46.329  46.169  1.00  0.00     0.015 C 
HETATM    9  C   UNL     1      19.459  45.048  47.303  1.00  0.00     0.015 C 
HETATM   10  C   UNL     1      21.699  45.246  48.437  1.00  0.00     0.039 C 
HETATM   11  C   UNL     1      22.937  46.101  48.802  1.00  0.00     0.122 C 
ENDROOT
BRANCH  11  12
HETATM   12  N   UNL     1      23.607  45.556  49.965  1.00  0.00    -0.347 N 
HETATM   13  C   UNL     1      24.968  45.390  49.982  1.00  0.00     0.270 C 
HETATM   14  O   UNL     1      25.710  45.747  49.070  1.00  0.00    -0.266 OA
HETATM   15  H   UNL     1      23.032  45.145  50.686  1.00  0.00     0.163 HD
BRANCH  13  16
HETATM   16  C   UNL     1      25.527  44.724  51.186  1.00  0.00     0.120 A 
HETATM   17  N   UNL     1      26.601  45.271  51.856  1.00  0.00    -0.303 N 
HETATM   18  C   UNL     1      26.933  44.465  52.945  1.00  0.00     0.324 A 
HETATM   19  H   UNL     1      27.065  46.128  51.596  1.00  0.00     0.171 HD
HETATM   20  O   UNL     1      27.820  44.630  53.759  1.00  0.00    -0.247 OA
HETATM   21  N   UNL     1      26.010  43.411  52.893  1.00  0.00    -0.316 N 
HETATM   22  C   UNL     1      25.169  43.595  51.820  1.00  0.00     0.128 A 
HETATM   23  H   UNL     1      25.995  42.657  53.563  1.00  0.00     0.170 HD
ENDBRANCH  13  16
ENDBRANCH  11  12
BRANCH   1  24
HETATM   24  C   UNL     1      20.296  50.373  49.216  1.00  0.00     0.064 A 
HETATM   25  C   UNL     1      19.162  50.268  50.060  1.00  0.00    -0.033 A 
HETATM   26  C   UNL     1      18.948  49.166  51.065  1.00  0.00     0.050 C 
HETATM   27  C   UNL     1      18.164  51.263  49.987  1.00  0.00     0.009 A 
HETATM   28  C   UNL     1      18.278  52.343  49.117  1.00  0.00     0.001 A 
HETATM   29  C   UNL     1      19.387  52.444  48.289  1.00  0.00     0.002 A 
HETATM   30  C   UNL     1      20.384  51.465  48.333  1.00  0.00     0.032 A 
ENDBRANCH   1  24
TORSDOF 3
ENDMDL
MODEL 6
REMARK VINA RESULT:      -9.2     16.058     18.811
REMARK  3 active torsions:
REMARK  status: ('A' for Active; 'I' for Inactive)
REMARK    1  A    between atoms: C_3  and  N_4 
REMARK    2  A    between atoms: C_14  and  N_15 
REMARK       I    between atoms: N_15  and  C_16 
REMARK    3  A    between atoms: C_16  and  C_17 
ROOT
HETATM    1  N   UNL     1      30.354  50.550  38.615  1.00  0.00    -0.237 N 
HETATM    2  N   UNL     1      30.961  50.971  37.471  1.00  0.00    -0.179 NA
HETATM    3  C   UNL     1      32.143  51.453  37.841  1.00  0.00     0.150 A 
HETATM    4  C   UNL     1      32.339  51.376  39.223  1.00  0.00     0.008 A 
HETATM    5  C   UNL     1      31.193  50.772  39.704  1.00  0.00     0.047 A 
HETATM    6  C   UNL     1      30.998  50.350  41.127  1.00  0.00     0.069 C 
HETATM    7  C   UNL     1      32.359  50.292  41.891  1.00  0.00    -0.040 C 
HETATM    8  C   UNL     1      33.123  49.001  41.539  1.00  0.00     0.015 C 
HETATM    9  C   UNL     1      32.072  50.277  43.405  1.00  0.00     0.015 C 
HETATM   10  C   UNL     1      33.218  51.549  41.558  1.00  0.00     0.039 C 
HETATM   11  C   UNL     1      33.530  51.717  40.051  1.00  0.00     0.122 C 
ENDROOT
BRANCH  11  12
HETATM   12  N   UNL     1      33.910  53.084  39.759  1.00  0.00    -0.347 N 
HETATM   13  C   UNL     1      35.127  53.374  39.198  1.00  0.00     0.270 C 
HETATM   14  O   UNL     1      35.935  52.520  38.843  1.00  0.00    -0.266 OA
HETATM   15  H   UNL     1      33.332  53.820  40.137  1.00  0.00     0.163 HD
BRANCH  13  16
HETATM   16  C   UNL     1      35.446  54.817  39.045  1.00  0.00     0.120 A 
HETATM   17  N   UNL     1      34.483  55.776  39.272  1.00  0.00    -0.303 N 
HETATM   18  C   UNL     1      35.028  57.044  39.066  1.00  0.00     0.324 A 
HETATM   19  H   UNL     1      33.532  55.583  39.550  1.00  0.00     0.171 HD
HETATM   20  O   UNL     1      34.480  58.124  39.174  1.00  0.00    -0.247 OA
HETATM   21  N   UNL     1      36.359  56.797  38.705  1.00  0.00    -0.316 N 
HETATM   22  C   UNL     1      36.586  55.441  38.703  1.00  0.00     0.128 A 
HETATM   23  H   UNL     1      37.019  57.531  38.494  1.00  0.00     0.170 HD
ENDBRANCH  13  16
ENDBRANCH  11  12
BRANCH   1  24
HETATM   24  C   UNL     1      29.027  50.007  38.571  1.00  0.00     0.064 A 
HETATM   25  C   UNL     1      28.787  48.609  38.580  1.00  0.00    -0.033 A 
HETATM   26  C   UNL     1      29.865  47.562  38.688  1.00  0.00     0.050 C 
HETATM   27  C   UNL     1      27.457  48.146  38.505  1.00  0.00     0.009 A 
HETATM   28  C   UNL     1      26.383  49.029  38.436  1.00  0.00     0.001 A 
HETATM   29  C   UNL     1      26.618  50.396  38.426  1.00  0.00     0.002 A 
HETATM   30  C   UNL     1      27.928  50.881  38.486  1.00  0.00     0.032 A 
ENDBRANCH   1  24
TORSDOF 3
ENDMDL
MODEL 7
REMARK VINA RESULT:      -9.2      5.074      7.780
REMARK  3 active torsions:
REMARK  status: ('A' for Active; 'I' for Inactive)
REMARK    1  A    between atoms: C_3  and  N_4 
REMARK    2  A    between atoms: C_14  and  N_15 
REMARK       I    between atoms: N_15  and  C_16 
REMARK    3  A    between atoms: C_16  and  C_17 
ROOT
HETATM    1  N   UNL     1      27.201  44.881  53.689  1.00  0.00    -0.237 N 
HETATM    2  N   UNL     1      26.331  45.716  54.322  1.00  0.00    -0.179 NA
HETATM    3  C   UNL     1      25.381  45.993  53.435  1.00  0.00     0.150 A 
HETATM    4  C   UNL     1      25.602  45.368  52.205  1.00  0.00     0.008 A 
HETATM    5  C   UNL     1      26.761  44.637  52.390  1.00  0.00     0.047 A 
HETATM    6  C   UNL     1      27.326  43.685  51.383  1.00  0.00     0.069 C 
HETATM    7  C   UNL     1      26.261  43.308  50.303  1.00  0.00    -0.040 C 
HETATM    8  C   UNL     1      25.281  42.254  50.855  1.00  0.00     0.015 C 
HETATM    9  C   UNL     1      26.987  42.693  49.091  1.00  0.00     0.015 C 
HETATM   10  C   UNL     1      25.494  44.581  49.833  1.00  0.00     0.039 C 
HETATM   11  C   UNL     1      24.765  45.333  50.973  1.00  0.00     0.122 C 
ENDROOT
BRANCH  11  12
HETATM   12  N   UNL     1      24.478  46.697  50.580  1.00  0.00    -0.347 N 
HETATM   13  C   UNL     1      23.570  46.970  49.589  1.00  0.00     0.270 C 
HETATM   14  O   UNL     1      22.897  46.112  49.025  1.00  0.00    -0.266 OA
HETATM   15  H   UNL     1      25.086  47.422  50.932  1.00  0.00     0.163 HD
BRANCH  13  16
HETATM   16  C   UNL     1      23.440  48.398  49.202  1.00  0.00     0.120 A 
HETATM   17  N   UNL     1      22.248  49.067  49.373  1.00  0.00    -0.303 N 
HETATM   18  C   UNL     1      22.383  50.385  48.939  1.00  0.00     0.324 A 
HETATM   19  H   UNL     1      21.410  48.659  49.762  1.00  0.00     0.171 HD
HETATM   20  O   UNL     1      21.545  51.266  48.938  1.00  0.00    -0.247 OA
HETATM   21  N   UNL     1      23.711  50.472  48.498  1.00  0.00    -0.316 N 
HETATM   22  C   UNL     1      24.328  49.256  48.671  1.00  0.00     0.128 A 
HETATM   23  H   UNL     1      24.113  51.319  48.124  1.00  0.00     0.170 HD
ENDBRANCH  13  16
ENDBRANCH  11  12
BRANCH   1  24
HETATM   24  C   UNL     1      28.380  44.420  54.362  1.00  0.00     0.064 A 
HETATM   25  C   UNL     1      29.136  45.263  55.215  1.00  0.00    -0.033 A 
HETATM   26  C   UNL     1      28.770  46.687  55.546  1.00  0.00     0.050 C 
HETATM   27  C   UNL     1      30.303  44.750  55.821  1.00  0.00     0.009 A 
HETATM   28  C   UNL     1      30.713  43.437  55.609  1.00  0.00     0.001 A 
HETATM   29  C   UNL     1      29.974  42.613  54.774  1.00  0.00     0.002 A 
HETATM   30  C   UNL     1      28.822  43.101  54.151  1.00  0.00     0.032 A 
ENDBRANCH   1  24
TORSDOF 3
ENDMDL
MODEL 8
REMARK VINA RESULT:      -9.0      1.940      2.786
REMARK  3 active torsions:
REMARK  status: ('A' for Active; 'I' for Inactive)
REMARK    1  A    between atoms: C_3  and  N_4 
REMARK    2  A    between atoms: C_14  and  N_15 
REMARK       I    between atoms: N_15  and  C_16 
REMARK    3  A    between atoms: C_16  and  C_17 
ROOT
HETATM    1  N   UNL     1      27.642  44.474  52.816  1.00  0.00    -0.237 N 
HETATM    2  N   UNL     1      28.885  43.942  52.653  1.00  0.00    -0.179 NA
HETATM    3  C   UNL     1      28.749  42.962  51.766  1.00  0.00     0.150 A 
HETATM    4  C   UNL     1      27.428  42.813  51.336  1.00  0.00     0.008 A 
HETATM    5  C   UNL     1      26.732  43.807  51.999  1.00  0.00     0.047 A 
HETATM    6  C   UNL     1      25.293  44.133  51.754  1.00  0.00     0.069 C 
HETATM    7  C   UNL     1      24.796  43.521  50.405  1.00  0.00    -0.040 C 
HETATM    8  C   UNL     1      25.267  44.378  49.215  1.00  0.00     0.015 C 
HETATM    9  C   UNL     1      23.255  43.514  50.407  1.00  0.00     0.015 C 
HETATM   10  C   UNL     1      25.301  42.053  50.261  1.00  0.00     0.039 C 
HETATM   11  C   UNL     1      26.842  41.911  50.304  1.00  0.00     0.122 C 
ENDROOT
BRANCH  11  12
HETATM   12  N   UNL     1      27.219  40.549  50.625  1.00  0.00    -0.347 N 
HETATM   13  C   UNL     1      28.103  39.858  49.838  1.00  0.00     0.270 C 
HETATM   14  O   UNL     1      28.682  40.347  48.871  1.00  0.00    -0.266 OA
HETATM   15  H   UNL     1      26.685  40.072  51.336  1.00  0.00     0.163 HD
BRANCH  13  16
HETATM   16  C   UNL     1      28.328  38.437  50.206  1.00  0.00     0.120 A 
HETATM   17  N   UNL     1      29.427  38.071  50.954  1.00  0.00    -0.303 N 
HETATM   18  C   UNL     1      29.410  36.693  51.167  1.00  0.00     0.324 A 
HETATM   19  H   UNL     1      30.128  38.711  51.298  1.00  0.00     0.171 HD
HETATM   20  O   UNL     1      30.213  36.017  51.782  1.00  0.00    -0.247 OA
HETATM   21  N   UNL     1      28.252  36.252  50.510  1.00  0.00    -0.316 N 
HETATM   22  C   UNL     1      27.616  37.329  49.940  1.00  0.00     0.128 A 
HETATM   23  H   UNL     1      27.964  35.286  50.490  1.00  0.00     0.170 HD
ENDBRANCH  13  16
ENDBRANCH  11  12
BRANCH   1  24
HETATM   24  C   UNL     1      27.429  45.541  53.750  1.00  0.00     0.064 A 
HETATM   25  C   UNL     1      28.177  45.649  54.950  1.00  0.00    -0.033 A 
HETATM   26  C   UNL     1      29.289  44.712  55.346  1.00  0.00     0.050 C 
HETATM   27  C   UNL     1      27.893  46.708  55.837  1.00  0.00     0.009 A 
HETATM   28  C   UNL     1      26.907  47.649  55.552  1.00  0.00     0.001 A 
HETATM   29  C   UNL     1      26.174  47.542  54.379  1.00  0.00     0.002 A 
HETATM   30  C   UNL     1      26.428  46.495  53.490  1.00  0.00     0.032 A 
ENDBRANCH   1  24
TORSDOF 3
ENDMDL
MODEL 9
REMARK VINA RESULT:      -9.0     13.038     14.845
REMARK  3 active torsions:
REMARK  status: ('A' for Active; 'I' for Inactive)
REMARK    1  A    between atoms: C_3  and  N_4 
REMARK    2  A    between atoms: C_14  and  N_15 
REMARK       I    between atoms: N_15  and  C_16 
REMARK    3  A    between atoms: C_16  and  C_17 
ROOT
HETATM    1  N   UNL     1      31.328  50.099  41.943  1.00  0.00    -0.237 N 
HETATM    2  N   UNL     1      31.149  48.758  42.106  1.00  0.00    -0.179 NA
HETATM    3  C   UNL     1      30.099  48.437  41.357  1.00  0.00     0.150 A 
HETATM    4  C   UNL     1      29.557  49.544  40.698  1.00  0.00     0.008 A 
HETATM    5  C   UNL     1      30.371  50.600  41.064  1.00  0.00     0.047 A 
HETATM    6  C   UNL     1      30.266  51.979  40.494  1.00  0.00     0.069 C 
HETATM    7  C   UNL     1      29.432  51.984  39.174  1.00  0.00    -0.040 C 
HETATM    8  C   UNL     1      30.285  51.484  37.992  1.00  0.00     0.015 C 
HETATM    9  C   UNL     1      29.000  53.432  38.870  1.00  0.00     0.015 C 
HETATM   10  C   UNL     1      28.154  51.107  39.340  1.00  0.00     0.039 C 
HETATM   11  C   UNL     1      28.446  49.632  39.708  1.00  0.00     0.122 C 
ENDROOT
BRANCH  11  12
HETATM   12  N   UNL     1      27.273  49.009  40.285  1.00  0.00    -0.347 N 
HETATM   13  C   UNL     1      26.767  47.844  39.769  1.00  0.00     0.270 C 
HETATM   14  O   UNL     1      27.294  47.218  38.853  1.00  0.00    -0.266 OA
HETATM   15  H   UNL     1      26.744  49.543  40.959  1.00  0.00     0.163 HD
BRANCH  13  16
HETATM   16  C   UNL     1      25.501  47.359  40.376  1.00  0.00     0.120 A 
HETATM   17  N   UNL     1      25.522  46.513  41.463  1.00  0.00    -0.303 N 
HETATM   18  C   UNL     1      24.216  46.207  41.844  1.00  0.00     0.324 A 
HETATM   19  H   UNL     1      26.360  46.176  41.914  1.00  0.00     0.171 HD
HETATM   20  O   UNL     1      23.846  45.495  42.758  1.00  0.00    -0.247 OA
HETATM   21  N   UNL     1      23.413  46.909  40.934  1.00  0.00    -0.316 N 
HETATM   22  C   UNL     1      24.217  47.600  40.059  1.00  0.00     0.128 A 
HETATM   23  H   UNL     1      22.405  46.888  40.957  1.00  0.00     0.170 HD
ENDBRANCH  13  16
ENDBRANCH  11  12
BRANCH   1  24
HETATM   24  C   UNL     1      32.368  50.781  42.657  1.00  0.00     0.064 A 
HETATM   25  C   UNL     1      33.692  50.864  42.158  1.00  0.00    -0.033 A 
HETATM   26  C   UNL     1      34.136  50.307  40.830  1.00  0.00     0.050 C 
HETATM   27  C   UNL     1      34.671  51.525  42.928  1.00  0.00     0.009 A 
HETATM   28  C   UNL     1      34.359  52.106  44.155  1.00  0.00     0.001 A 
HETATM   29  C   UNL     1      33.064  52.023  44.644  1.00  0.00     0.002 A 
HETATM   30  C   UNL     1      32.079  51.361  43.906  1.00  0.00     0.032 A 
ENDBRANCH   1  24
TORSDOF 3
ENDMDL
MODEL 10
REMARK VINA RESULT:      -9.0      4.445      6.853
REMARK  3 active torsions:
REMARK  status: ('A' for Active; 'I' for Inactive)
REMARK    1  A    between atoms: C_3  and  N_4 
REMARK    2  A    between atoms: C_14  and  N_15 
REMARK       I    between atoms: N_15  and  C_16 
REMARK    3  A    between atoms: C_16  and  C_17 
ROOT
HETATM    1  N   UNL     1      27.181  44.028  53.349  1.00  0.00    -0.237 N 
HETATM    2  N   UNL     1      26.032  44.673  53.693  1.00  0.00    -0.179 NA
HETATM    3  C   UNL     1      25.182  44.461  52.694  1.00  0.00     0.150 A 
HETATM    4  C   UNL     1      25.743  43.691  51.671  1.00  0.00     0.008 A 
HETATM    5  C   UNL     1      27.019  43.399  52.116  1.00  0.00     0.047 A 
HETATM    6  C   UNL     1      27.964  42.475  51.415  1.00  0.00     0.069 C 
HETATM    7  C   UNL     1      27.213  41.579  50.378  1.00  0.00    -0.040 C 
HETATM    8  C   UNL     1      26.491  40.417  51.089  1.00  0.00     0.015 C 
HETATM    9  C   UNL     1      28.248  40.975  49.410  1.00  0.00     0.015 C 
HETATM   10  C   UNL     1      26.202  42.436  49.558  1.00  0.00     0.039 C 
HETATM   11  C   UNL     1      25.136  43.152  50.422  1.00  0.00     0.122 C 
ENDROOT
BRANCH  11  12
HETATM   12  N   UNL     1      24.544  44.254  49.692  1.00  0.00    -0.347 N 
HETATM   13  C   UNL     1      23.186  44.444  49.679  1.00  0.00     0.270 C 
HETATM   14  O   UNL     1      22.396  43.761  50.325  1.00  0.00    -0.266 OA
HETATM   15  H   UNL     1      25.139  44.767  49.058  1.00  0.00     0.163 HD
BRANCH  13  16
HETATM   16  C   UNL     1      22.691  45.542  48.810  1.00  0.00     0.120 A 
HETATM   17  N   UNL     1      22.745  46.852  49.233  1.00  0.00    -0.303 N 
HETATM   18  C   UNL     1      22.226  47.686  48.243  1.00  0.00     0.324 A 
HETATM   19  H   UNL     1      23.112  47.154  50.124  1.00  0.00     0.171 HD
HETATM   20  O   UNL     1      22.114  48.896  48.262  1.00  0.00    -0.247 OA
HETATM   21  N   UNL     1      21.859  46.813  47.209  1.00  0.00    -0.316 N 
HETATM   22  C   UNL     1      22.154  45.522  47.578  1.00  0.00     0.128 A 
HETATM   23  H   UNL     1      21.450  47.127  46.342  1.00  0.00     0.170 HD
ENDBRANCH  13  16
ENDBRANCH  11  12
BRANCH   1  24
HETATM   24  C   UNL     1      28.331  44.093  54.204  1.00  0.00     0.064 A 
HETATM   25  C   UNL     1      28.693  45.282  54.886  1.00  0.00    -0.033 A 
HETATM   26  C   UNL     1      27.905  46.565  54.835  1.00  0.00     0.050 C 
HETATM   27  C   UNL     1      29.854  45.282  55.687  1.00  0.00     0.009 A 
HETATM   28  C   UNL     1      30.637  44.139  55.830  1.00  0.00     0.001 A 
HETATM   29  C   UNL     1      30.283  42.976  55.162  1.00  0.00     0.002 A 
HETATM   30  C   UNL     1      29.145  42.954  54.351  1.00  0.00     0.032 A 
ENDBRANCH   1  24
TORSDOF 3
ENDMDL
