MODEL 1
REMARK VINA RESULT:      -9.7      0.000      0.000
REMARK  7 active torsions:
REMARK  status: ('A' for Active; 'I' for Inactive)
REMARK    1  A    between atoms: O_2  and  C_3 
REMARK    2  A    between atoms: C_6  and  C_7 
REMARK    3  A    between atoms: C_11  and  C_12 
REMARK       I    between atoms: C_12  and  N_13 
REMARK    4  A    between atoms: N_13  and  N_14 
REMARK       I    between atoms: N_14  and  C_15 
REMARK    5  A    between atoms: C_15  and  C_16 
REMARK    6  A    between atoms: C_16  and  C_17 
REMARK    7  A    between atoms: C_17  and  C_18 
ROOT
HETATM    1  C   UNL     1      24.618  45.907  50.489  1.00  0.00     0.288 C 
HETATM    2  N   UNL     1      24.290  47.215  50.771  1.00  0.00    -0.262 N 
HETATM    3  O   UNL     1      24.090  45.291  49.564  1.00  0.00    -0.264 OA
HETATM    4  H   UNL     1      24.668  47.745  51.553  1.00  0.00     0.190 HD
ENDROOT
BRANCH   1   5
HETATM    5  C   UNL     1      25.620  45.325  51.336  1.00  0.00     0.121 A 
HETATM    6  N   UNL     1      26.135  44.081  51.097  1.00  0.00    -0.272 N 
HETATM    7  N   UNL     1      27.069  43.695  51.976  1.00  0.00    -0.174 NA
HETATM    8  H   UNL     1      25.880  43.450  50.342  1.00  0.00     0.189 HD
HETATM    9  C   UNL     1      27.205  44.738  52.809  1.00  0.00     0.089 A 
HETATM   10  C   UNL     1      26.294  45.774  52.454  1.00  0.00     0.071 A 
BRANCH   9  11
HETATM   11  C   UNL     1      28.176  44.735  53.905  1.00  0.00    -0.005 A 
HETATM   12  C   UNL     1      29.073  43.672  54.071  1.00  0.00     0.016 A 
HETATM   13  C   UNL     1      30.004  43.686  55.114  1.00  0.00     0.037 A 
HETATM   14  C   UNL     1      30.064  44.760  56.002  1.00  0.00     0.068 A 
HETATM   15  C   UNL     1      29.161  45.812  55.860  1.00  0.00     0.037 A 
HETATM   16  C   UNL     1      28.223  45.798  54.818  1.00  0.00     0.016 A 
BRANCH  14  17
HETATM   17  O   UNL     1      31.029  44.655  56.965  1.00  0.00    -0.356 OA
HETATM   18  C   UNL     1      31.736  43.423  57.022  1.00  0.00     0.210 C 
ENDBRANCH  14  17
ENDBRANCH   9  11
ENDBRANCH   1   5
BRANCH   2  19
HETATM   19  N   UNL     1      23.381  47.880  49.944  1.00  0.00    -0.267 N 
HETATM   20  C   UNL     1      23.853  48.899  49.148  1.00  0.00     0.236 C 
HETATM   21  O   UNL     1      25.016  49.294  49.209  1.00  0.00    -0.272 OA
HETATM   22  H   UNL     1      22.469  47.439  49.833  1.00  0.00     0.190 HD
BRANCH  20  23
HETATM   23  C   UNL     1      22.867  49.435  48.132  1.00  0.00     0.109 C 
BRANCH  23  24
HETATM   24  C   UNL     1      22.426  50.871  48.414  1.00  0.00     0.048 C 
BRANCH  24  25
HETATM   25  C   UNL     1      21.012  51.040  48.926  1.00  0.00    -0.055 A 
HETATM   26  C   UNL     1      20.540  50.142  49.897  1.00  0.00     0.049 A 
HETATM   27  C   UNL     1      19.232  50.232  50.364  1.00  0.00     0.116 A 
HETATM   28  F   UNL     1      18.802  49.365  51.291  1.00  0.00    -0.206 F 
HETATM   29  C   UNL     1      18.364  51.200  49.879  1.00  0.00     0.042 A 
HETATM   30  C   UNL     1      18.811  52.090  48.906  1.00  0.00     0.003 A 
HETATM   31  C   UNL     1      20.125  52.006  48.428  1.00  0.00     0.007 A 
ENDBRANCH  24  25
ENDBRANCH  23  24
ENDBRANCH  20  23
ENDBRANCH   2  19
TORSDOF 7
ENDMDL
MODEL 2
REMARK VINA RESULT:      -9.6      3.560     11.384
REMARK  7 active torsions:
REMARK  status: ('A' for Active; 'I' for Inactive)
REMARK    1  A    between atoms: O_2  and  C_3 
REMARK    2  A    between atoms: C_6  and  C_7 
REMARK    3  A    between atoms: C_11  and  C_12 
REMARK       I    between atoms: C_12  and  N_13 
REMARK    4  A    between atoms: N_13  and  N_14 
REMARK       I    between atoms: N_14  and  C_15 
REMARK    5  A    between atoms: C_15  and  C_16 
REMARK    6  A    between atoms: C_16  and  C_17 
REMARK    7  A    between atoms: C_17  and  C_18 
ROOT
HETATM    1  C   UNL     1      25.150  48.225  49.609  1.00  0.00     0.288 C 
HETATM    2  N   UNL     1      24.671  47.337  50.548  1.00  0.00    -0.262 N 
HETATM    3  O   UNL     1      26.349  48.304  49.344  1.00  0.00    -0.264 OA
HETATM    4  H   UNL     1      23.696  47.272  50.829  1.00  0.00     0.190 HD
ENDROOT
BRANCH   1   5
HETATM    5  C   UNL     1      24.158  49.033  48.960  1.00  0.00     0.121 A 
HETATM    6  N   UNL     1      24.444  49.774  47.847  1.00  0.00    -0.272 N 
HETATM    7  N   UNL     1      23.401  50.460  47.361  1.00  0.00    -0.174 NA
HETATM    8  H   UNL     1      25.341  49.846  47.376  1.00  0.00     0.189 HD
HETATM    9  C   UNL     1      22.375  50.133  48.162  1.00  0.00     0.089 A 
HETATM   10  C   UNL     1      22.816  49.256  49.194  1.00  0.00     0.071 A 
BRANCH   9  11
HETATM   11  C   UNL     1      21.022  50.648  47.939  1.00  0.00    -0.005 A 
HETATM   12  C   UNL     1      20.186  50.083  46.968  1.00  0.00     0.016 A 
HETATM   13  C   UNL     1      18.892  50.576  46.773  1.00  0.00     0.037 A 
HETATM   14  C   UNL     1      18.406  51.630  47.546  1.00  0.00     0.068 A 
HETATM   15  C   UNL     1      19.238  52.214  48.501  1.00  0.00     0.037 A 
HETATM   16  C   UNL     1      20.537  51.725  48.694  1.00  0.00     0.016 A 
BRANCH  14  17
HETATM   17  O   UNL     1      17.122  52.003  47.265  1.00  0.00    -0.356 OA
HETATM   18  C   UNL     1      16.794  52.160  45.890  1.00  0.00     0.210 C 
ENDBRANCH  14  17
ENDBRANCH   9  11
ENDBRANCH   1   5
BRANCH   2  19
HETATM   19  N   UNL     1      25.564  46.458  51.168  1.00  0.00    -0.267 N 
HETATM   20  C   UNL     1      25.863  46.668  52.495  1.00  0.00     0.236 C 
HETATM   21  O   UNL     1      25.442  47.642  53.117  1.00  0.00    -0.272 OA
HETATM   22  H   UNL     1      25.782  45.604  50.658  1.00  0.00     0.190 HD
BRANCH  20  23
HETATM   23  C   UNL     1      26.666  45.569  53.157  1.00  0.00     0.109 C 
BRANCH  23  24
HETATM   24  C   UNL     1      27.034  45.878  54.609  1.00  0.00     0.048 C 
BRANCH  24  25
HETATM   25  C   UNL     1      28.320  45.258  55.111  1.00  0.00    -0.055 A 
HETATM   26  C   UNL     1      28.996  45.884  56.171  1.00  0.00     0.049 A 
HETATM   27  C   UNL     1      30.204  45.374  56.635  1.00  0.00     0.116 A 
HETATM   28  F   UNL     1      30.832  45.985  57.649  1.00  0.00    -0.206 F 
HETATM   29  C   UNL     1      30.774  44.247  56.060  1.00  0.00     0.042 A 
HETATM   30  C   UNL     1      30.125  43.622  54.998  1.00  0.00     0.003 A 
HETATM   31  C   UNL     1      28.909  44.128  54.523  1.00  0.00     0.007 A 
ENDBRANCH  24  25
ENDBRANCH  23  24
ENDBRANCH  20  23
ENDBRANCH   2  19
TORSDOF 7
ENDMDL
MODEL 3
REMARK VINA RESULT:      -9.5      3.529     11.341
REMARK  7 active torsions:
REMARK  status: ('A' for Active; 'I' for Inactive)
REMARK    1  A    between atoms: O_2  and  C_3 
REMARK    2  A    between atoms: C_6  and  C_7 
REMARK    3  A    between atoms: C_11  and  C_12 
REMARK       I    between atoms: C_12  and  N_13 
REMARK    4  A    between atoms: N_13  and  N_14 
REMARK       I    between atoms: N_14  and  C_15 
REMARK    5  A    between atoms: C_15  and  C_16 
REMARK    6  A    between atoms: C_16  and  C_17 
REMARK    7  A    between atoms: C_17  and  C_18 
ROOT
HETATM    1  C   UNL     1      25.088  48.189  49.595  1.00  0.00     0.288 C 
HETATM    2  N   UNL     1      24.619  47.311  50.550  1.00  0.00    -0.262 N 
HETATM    3  O   UNL     1      26.283  48.258  49.311  1.00  0.00    -0.264 OA
HETATM    4  H   UNL     1      23.648  47.255  50.847  1.00  0.00     0.190 HD
ENDROOT
BRANCH   1   5
HETATM    5  C   UNL     1      24.090  48.997  48.956  1.00  0.00     0.121 A 
HETATM    6  N   UNL     1      24.374  49.763  47.860  1.00  0.00    -0.272 N 
HETATM    7  N   UNL     1      23.326  50.446  47.380  1.00  0.00    -0.174 NA
HETATM    8  H   UNL     1      25.274  49.857  47.398  1.00  0.00     0.189 HD
HETATM    9  C   UNL     1      22.299  50.090  48.166  1.00  0.00     0.089 A 
HETATM   10  C   UNL     1      22.744  49.198  49.184  1.00  0.00     0.071 A 
BRANCH   9  11
HETATM   11  C   UNL     1      20.941  50.592  47.944  1.00  0.00    -0.005 A 
HETATM   12  C   UNL     1      20.466  51.716  48.630  1.00  0.00     0.016 A 
HETATM   13  C   UNL     1      19.171  52.193  48.400  1.00  0.00     0.037 A 
HETATM   14  C   UNL     1      18.334  51.566  47.478  1.00  0.00     0.068 A 
HETATM   15  C   UNL     1      18.789  50.433  46.806  1.00  0.00     0.037 A 
HETATM   16  C   UNL     1      20.084  49.950  47.039  1.00  0.00     0.016 A 
BRANCH  14  17
HETATM   17  O   UNL     1      17.102  52.142  47.337  1.00  0.00    -0.356 OA
HETATM   18  C   UNL     1      16.190  51.960  48.413  1.00  0.00     0.210 C 
ENDBRANCH  14  17
ENDBRANCH   9  11
ENDBRANCH   1   5
BRANCH   2  19
HETATM   19  N   UNL     1      25.516  46.433  51.163  1.00  0.00    -0.267 N 
HETATM   20  C   UNL     1      25.852  46.663  52.478  1.00  0.00     0.236 C 
HETATM   21  O   UNL     1      25.459  47.653  53.092  1.00  0.00    -0.272 OA
HETATM   22  H   UNL     1      25.710  45.567  50.663  1.00  0.00     0.190 HD
BRANCH  20  23
HETATM   23  C   UNL     1      26.659  45.566  53.140  1.00  0.00     0.109 C 
BRANCH  23  24
HETATM   24  C   UNL     1      26.958  45.839  54.614  1.00  0.00     0.048 C 
BRANCH  24  25
HETATM   25  C   UNL     1      28.323  45.405  55.102  1.00  0.00    -0.055 A 
HETATM   26  C   UNL     1      28.907  44.264  54.530  1.00  0.00     0.049 A 
HETATM   27  C   UNL     1      30.141  43.803  54.979  1.00  0.00     0.116 A 
HETATM   28  F   UNL     1      30.681  42.712  54.419  1.00  0.00    -0.206 F 
HETATM   29  C   UNL     1      30.817  44.450  56.004  1.00  0.00     0.042 A 
HETATM   30  C   UNL     1      30.246  45.575  56.592  1.00  0.00     0.003 A 
HETATM   31  C   UNL     1      29.004  46.046  56.148  1.00  0.00     0.007 A 
ENDBRANCH  24  25
ENDBRANCH  23  24
ENDBRANCH  20  23
ENDBRANCH   2  19
TORSDOF 7
ENDMDL
MODEL 4
REMARK VINA RESULT:      -8.6      1.601      2.004
REMARK  7 active torsions:
REMARK  status: ('A' for Active; 'I' for Inactive)
REMARK    1  A    between atoms: O_2  and  C_3 
REMARK    2  A    between atoms: C_6  and  C_7 
REMARK    3  A    between atoms: C_11  and  C_12 
REMARK       I    between atoms: C_12  and  N_13 
REMARK    4  A    between atoms: N_13  and  N_14 
REMARK       I    between atoms: N_14  and  C_15 
REMARK    5  A    between atoms: C_15  and  C_16 
REMARK    6  A    between atoms: C_16  and  C_17 
REMARK    7  A    between atoms: C_17  and  C_18 
ROOT
HETATM    1  C   UNL     1      24.411  46.855  50.505  1.00  0.00     0.288 C 
HETATM    2  N   UNL     1      23.577  46.059  49.751  1.00  0.00    -0.262 N 
HETATM    3  O   UNL     1      24.433  48.078  50.373  1.00  0.00    -0.264 OA
HETATM    4  H   UNL     1      23.560  45.043  49.795  1.00  0.00     0.190 HD
ENDROOT
BRANCH   1   5
HETATM    5  C   UNL     1      25.235  46.162  51.454  1.00  0.00     0.121 A 
HETATM    6  N   UNL     1      25.265  44.797  51.524  1.00  0.00    -0.272 N 
HETATM    7  N   UNL     1      26.096  44.314  52.458  1.00  0.00    -0.174 NA
HETATM    8  H   UNL     1      24.733  44.146  50.955  1.00  0.00     0.189 HD
HETATM    9  C   UNL     1      26.667  45.400  53.001  1.00  0.00     0.089 A 
HETATM   10  C   UNL     1      26.134  46.582  52.414  1.00  0.00     0.071 A 
BRANCH   9  11
HETATM   11  C   UNL     1      27.686  45.298  54.048  1.00  0.00    -0.005 A 
HETATM   12  C   UNL     1      28.612  44.247  54.055  1.00  0.00     0.016 A 
HETATM   13  C   UNL     1      29.588  44.168  55.053  1.00  0.00     0.037 A 
HETATM   14  C   UNL     1      29.665  45.138  56.054  1.00  0.00     0.068 A 
HETATM   15  C   UNL     1      28.735  46.176  56.069  1.00  0.00     0.037 A 
HETATM   16  C   UNL     1      27.752  46.254  55.072  1.00  0.00     0.016 A 
BRANCH  14  17
HETATM   17  O   UNL     1      30.674  44.951  56.957  1.00  0.00    -0.356 OA
HETATM   18  C   UNL     1      30.550  45.636  58.196  1.00  0.00     0.210 C 
ENDBRANCH  14  17
ENDBRANCH   9  11
ENDBRANCH   1   5
BRANCH   2  19
HETATM   19  N   UNL     1      22.686  46.663  48.859  1.00  0.00    -0.267 N 
HETATM   20  C   UNL     1      21.507  46.010  48.578  1.00  0.00     0.236 C 
HETATM   21  O   UNL     1      21.258  44.888  49.015  1.00  0.00    -0.272 OA
HETATM   22  H   UNL     1      22.873  47.637  48.628  1.00  0.00     0.190 HD
BRANCH  20  23
HETATM   23  C   UNL     1      20.503  46.809  47.774  1.00  0.00     0.109 C 
BRANCH  23  24
HETATM   24  C   UNL     1      20.982  48.220  47.437  1.00  0.00     0.048 C 
BRANCH  24  25
HETATM   25  C   UNL     1      20.465  49.325  48.333  1.00  0.00    -0.055 A 
HETATM   26  C   UNL     1      19.812  48.971  49.524  1.00  0.00     0.049 A 
HETATM   27  C   UNL     1      19.282  49.952  50.357  1.00  0.00     0.116 A 
HETATM   28  F   UNL     1      18.663  49.593  51.489  1.00  0.00    -0.206 F 
HETATM   29  C   UNL     1      19.377  51.297  50.027  1.00  0.00     0.042 A 
HETATM   30  C   UNL     1      20.009  51.666  48.843  1.00  0.00     0.003 A 
HETATM   31  C   UNL     1      20.545  50.685  47.999  1.00  0.00     0.007 A 
ENDBRANCH  24  25
ENDBRANCH  23  24
ENDBRANCH  20  23
ENDBRANCH   2  19
TORSDOF 7
ENDMDL
MODEL 5
REMARK VINA RESULT:      -8.6      1.810      2.543
REMARK  7 active torsions:
REMARK  status: ('A' for Active; 'I' for Inactive)
REMARK    1  A    between atoms: O_2  and  C_3 
REMARK    2  A    between atoms: C_6  and  C_7 
REMARK    3  A    between atoms: C_11  and  C_12 
REMARK       I    between atoms: C_12  and  N_13 
REMARK    4  A    between atoms: N_13  and  N_14 
REMARK       I    between atoms: N_14  and  C_15 
REMARK    5  A    between atoms: C_15  and  C_16 
REMARK    6  A    between atoms: C_16  and  C_17 
REMARK    7  A    between atoms: C_17  and  C_18 
ROOT
HETATM    1  C   UNL     1      24.267  47.600  49.927  1.00  0.00     0.288 C 
HETATM    2  N   UNL     1      23.030  47.236  49.441  1.00  0.00    -0.262 N 
HETATM    3  O   UNL     1      24.783  48.680  49.642  1.00  0.00    -0.264 OA
HETATM    4  H   UNL     1      22.588  46.336  49.614  1.00  0.00     0.190 HD
ENDROOT
BRANCH   1   5
HETATM    5  C   UNL     1      24.897  46.644  50.792  1.00  0.00     0.121 A 
HETATM    6  N   UNL     1      24.278  45.480  51.154  1.00  0.00    -0.272 N 
HETATM    7  N   UNL     1      25.012  44.695  51.955  1.00  0.00    -0.174 NA
HETATM    8  H   UNL     1      23.350  45.173  50.882  1.00  0.00     0.189 HD
HETATM    9  C   UNL     1      26.176  45.347  52.098  1.00  0.00     0.089 A 
HETATM   10  C   UNL     1      26.134  46.588  51.401  1.00  0.00     0.071 A 
BRANCH   9  11
HETATM   11  C   UNL     1      27.284  44.793  52.879  1.00  0.00    -0.005 A 
HETATM   12  C   UNL     1      27.539  45.234  54.184  1.00  0.00     0.016 A 
HETATM   13  C   UNL     1      28.593  44.688  54.924  1.00  0.00     0.037 A 
HETATM   14  C   UNL     1      29.403  43.690  54.381  1.00  0.00     0.068 A 
HETATM   15  C   UNL     1      29.171  43.259  53.076  1.00  0.00     0.037 A 
HETATM   16  C   UNL     1      28.119  43.809  52.331  1.00  0.00     0.016 A 
BRANCH  14  17
HETATM   17  O   UNL     1      30.385  43.233  55.215  1.00  0.00    -0.356 OA
HETATM   18  C   UNL     1      31.013  44.201  56.046  1.00  0.00     0.210 C 
ENDBRANCH  14  17
ENDBRANCH   9  11
ENDBRANCH   1   5
BRANCH   2  19
HETATM   19  N   UNL     1      22.315  48.145  48.656  1.00  0.00    -0.267 N 
HETATM   20  C   UNL     1      21.156  47.711  48.053  1.00  0.00     0.236 C 
HETATM   21  O   UNL     1      20.785  46.540  48.113  1.00  0.00    -0.272 OA
HETATM   22  H   UNL     1      22.587  49.124  48.741  1.00  0.00     0.190 HD
BRANCH  20  23
HETATM   23  C   UNL     1      20.327  48.792  47.393  1.00  0.00     0.109 C 
BRANCH  23  24
HETATM   24  C   UNL     1      20.454  50.153  48.076  1.00  0.00     0.048 C 
BRANCH  24  25
HETATM   25  C   UNL     1      19.166  50.754  48.596  1.00  0.00    -0.055 A 
HETATM   26  C   UNL     1      17.954  50.124  48.271  1.00  0.00     0.049 A 
HETATM   27  C   UNL     1      16.743  50.665  48.691  1.00  0.00     0.116 A 
HETATM   28  F   UNL     1      15.598  50.047  48.370  1.00  0.00    -0.206 F 
HETATM   29  C   UNL     1      16.702  51.840  49.429  1.00  0.00     0.042 A 
HETATM   30  C   UNL     1      17.893  52.485  49.748  1.00  0.00     0.003 A 
HETATM   31  C   UNL     1      19.117  51.949  49.329  1.00  0.00     0.007 A 
ENDBRANCH  24  25
ENDBRANCH  23  24
ENDBRANCH  20  23
ENDBRANCH   2  19
TORSDOF 7
ENDMDL
MODEL 6
REMARK VINA RESULT:      -8.5      3.717     11.380
REMARK  7 active torsions:
REMARK  status: ('A' for Active; 'I' for Inactive)
REMARK    1  A    between atoms: O_2  and  C_3 
REMARK    2  A    between atoms: C_6  and  C_7 
REMARK    3  A    between atoms: C_11  and  C_12 
REMARK       I    between atoms: C_12  and  N_13 
REMARK    4  A    between atoms: N_13  and  N_14 
REMARK       I    between atoms: N_14  and  C_15 
REMARK    5  A    between atoms: C_15  and  C_16 
REMARK    6  A    between atoms: C_16  and  C_17 
REMARK    7  A    between atoms: C_17  and  C_18 
ROOT
HETATM    1  C   UNL     1      22.867  47.524  49.090  1.00  0.00     0.288 C 
HETATM    2  N   UNL     1      23.775  47.353  50.112  1.00  0.00    -0.262 N 
HETATM    3  O   UNL     1      22.860  46.794  48.100  1.00  0.00    -0.264 OA
HETATM    4  H   UNL     1      23.845  47.961  50.924  1.00  0.00     0.190 HD
ENDROOT
BRANCH   1   5
HETATM    5  C   UNL     1      21.931  48.597  49.268  1.00  0.00     0.121 A 
HETATM    6  N   UNL     1      22.326  49.839  49.683  1.00  0.00    -0.272 N 
HETATM    7  N   UNL     1      21.327  50.726  49.785  1.00  0.00    -0.174 NA
HETATM    8  H   UNL     1      23.270  50.133  49.912  1.00  0.00     0.189 HD
HETATM    9  C   UNL     1      20.234  50.057  49.387  1.00  0.00     0.089 A 
HETATM   10  C   UNL     1      20.569  48.708  49.076  1.00  0.00     0.071 A 
BRANCH   9  11
HETATM   11  C   UNL     1      18.918  50.696  49.312  1.00  0.00    -0.005 A 
HETATM   12  C   UNL     1      18.689  51.948  49.896  1.00  0.00     0.016 A 
HETATM   13  C   UNL     1      17.431  52.553  49.806  1.00  0.00     0.037 A 
HETATM   14  C   UNL     1      16.386  51.927  49.126  1.00  0.00     0.068 A 
HETATM   15  C   UNL     1      16.597  50.672  48.560  1.00  0.00     0.037 A 
HETATM   16  C   UNL     1      17.855  50.061  48.654  1.00  0.00     0.016 A 
BRANCH  14  17
HETATM   17  O   UNL     1      15.216  52.633  49.100  1.00  0.00    -0.356 OA
HETATM   18  C   UNL     1      14.560  52.820  50.348  1.00  0.00     0.210 C 
ENDBRANCH  14  17
ENDBRANCH   9  11
ENDBRANCH   1   5
BRANCH   2  19
HETATM   19  N   UNL     1      24.670  46.281  50.052  1.00  0.00    -0.267 N 
HETATM   20  C   UNL     1      26.015  46.552  50.159  1.00  0.00     0.236 C 
HETATM   21  O   UNL     1      26.450  47.701  50.217  1.00  0.00    -0.272 OA
HETATM   22  H   UNL     1      24.263  45.350  50.133  1.00  0.00     0.190 HD
BRANCH  20  23
HETATM   23  C   UNL     1      26.910  45.338  50.294  1.00  0.00     0.109 C 
BRANCH  23  24
HETATM   24  C   UNL     1      26.516  44.422  51.452  1.00  0.00     0.048 C 
BRANCH  24  25
HETATM   25  C   UNL     1      27.545  44.265  52.550  1.00  0.00    -0.055 A 
HETATM   26  C   UNL     1      28.654  43.436  52.316  1.00  0.00     0.049 A 
HETATM   27  C   UNL     1      29.602  43.228  53.313  1.00  0.00     0.116 A 
HETATM   28  F   UNL     1      30.653  42.433  53.068  1.00  0.00    -0.206 F 
HETATM   29  C   UNL     1      29.472  43.823  54.560  1.00  0.00     0.042 A 
HETATM   30  C   UNL     1      28.372  44.637  54.814  1.00  0.00     0.003 A 
HETATM   31  C   UNL     1      27.411  44.852  53.818  1.00  0.00     0.007 A 
ENDBRANCH  24  25
ENDBRANCH  23  24
ENDBRANCH  20  23
ENDBRANCH   2  19
TORSDOF 7
ENDMDL
MODEL 7
REMARK VINA RESULT:      -8.4      1.963      2.530
REMARK  7 active torsions:
REMARK  status: ('A' for Active; 'I' for Inactive)
REMARK    1  A    between atoms: O_2  and  C_3 
REMARK    2  A    between atoms: C_6  and  C_7 
REMARK    3  A    between atoms: C_11  and  C_12 
REMARK       I    between atoms: C_12  and  N_13 
REMARK    4  A    between atoms: N_13  and  N_14 
REMARK       I    between atoms: N_14  and  C_15 
REMARK    5  A    between atoms: C_15  and  C_16 
REMARK    6  A    between atoms: C_16  and  C_17 
REMARK    7  A    between atoms: C_17  and  C_18 
ROOT
HETATM    1  C   UNL     1      23.814  44.856  49.455  1.00  0.00     0.288 C 
HETATM    2  N   UNL     1      23.331  46.138  49.609  1.00  0.00    -0.262 N 
HETATM    3  O   UNL     1      23.177  43.992  48.854  1.00  0.00    -0.264 OA
HETATM    4  H   UNL     1      23.803  46.867  50.137  1.00  0.00     0.190 HD
ENDROOT
BRANCH   1   5
HETATM    5  C   UNL     1      25.105  44.608  50.030  1.00  0.00     0.121 A 
HETATM    6  N   UNL     1      26.247  44.636  49.279  1.00  0.00    -0.272 N 
HETATM    7  N   UNL     1      27.367  44.396  49.975  1.00  0.00    -0.174 NA
HETATM    8  H   UNL     1      26.317  44.814  48.282  1.00  0.00     0.189 HD
HETATM    9  C   UNL     1      26.954  44.240  51.242  1.00  0.00     0.089 A 
HETATM   10  C   UNL     1      25.536  44.343  51.314  1.00  0.00     0.071 A 
BRANCH   9  11
HETATM   11  C   UNL     1      27.893  44.000  52.340  1.00  0.00    -0.005 A 
HETATM   12  C   UNL     1      27.704  44.593  53.595  1.00  0.00     0.016 A 
HETATM   13  C   UNL     1      28.601  44.346  54.638  1.00  0.00     0.037 A 
HETATM   14  C   UNL     1      29.694  43.500  54.454  1.00  0.00     0.068 A 
HETATM   15  C   UNL     1      29.905  42.922  53.203  1.00  0.00     0.037 A 
HETATM   16  C   UNL     1      29.010  43.172  52.154  1.00  0.00     0.016 A 
BRANCH  14  17
HETATM   17  O   UNL     1      30.482  43.332  55.558  1.00  0.00    -0.356 OA
HETATM   18  C   UNL     1      30.848  44.513  56.261  1.00  0.00     0.210 C 
ENDBRANCH  14  17
ENDBRANCH   9  11
ENDBRANCH   1   5
BRANCH   2  19
HETATM   19  N   UNL     1      22.115  46.481  49.010  1.00  0.00    -0.267 N 
HETATM   20  C   UNL     1      22.097  47.558  48.153  1.00  0.00     0.236 C 
HETATM   21  O   UNL     1      23.084  48.268  47.969  1.00  0.00    -0.272 OA
HETATM   22  H   UNL     1      21.366  45.796  49.089  1.00  0.00     0.190 HD
BRANCH  20  23
HETATM   23  C   UNL     1      20.807  47.748  47.383  1.00  0.00     0.109 C 
BRANCH  23  24
HETATM   24  C   UNL     1      19.642  48.211  48.259  1.00  0.00     0.048 C 
BRANCH  24  25
HETATM   25  C   UNL     1      19.368  49.699  48.259  1.00  0.00    -0.055 A 
HETATM   26  C   UNL     1      18.178  50.161  47.673  1.00  0.00     0.049 A 
HETATM   27  C   UNL     1      17.905  51.524  47.611  1.00  0.00     0.116 A 
HETATM   28  F   UNL     1      16.763  51.942  47.049  1.00  0.00    -0.206 F 
HETATM   29  C   UNL     1      18.800  52.457  48.115  1.00  0.00     0.042 A 
HETATM   30  C   UNL     1      19.991  52.018  48.686  1.00  0.00     0.003 A 
HETATM   31  C   UNL     1      20.276  50.648  48.752  1.00  0.00     0.007 A 
ENDBRANCH  24  25
ENDBRANCH  23  24
ENDBRANCH  20  23
ENDBRANCH   2  19
TORSDOF 7
ENDMDL
MODEL 8
REMARK VINA RESULT:      -8.3      1.662      2.209
REMARK  7 active torsions:
REMARK  status: ('A' for Active; 'I' for Inactive)
REMARK    1  A    between atoms: O_2  and  C_3 
REMARK    2  A    between atoms: C_6  and  C_7 
REMARK    3  A    between atoms: C_11  and  C_12 
REMARK       I    between atoms: C_12  and  N_13 
REMARK    4  A    between atoms: N_13  and  N_14 
REMARK       I    between atoms: N_14  and  C_15 
REMARK    5  A    between atoms: C_15  and  C_16 
REMARK    6  A    between atoms: C_16  and  C_17 
REMARK    7  A    between atoms: C_17  and  C_18 
ROOT
HETATM    1  C   UNL     1      23.881  46.616  49.499  1.00  0.00     0.288 C 
HETATM    2  N   UNL     1      23.738  47.863  50.070  1.00  0.00    -0.262 N 
HETATM    3  O   UNL     1      23.143  46.230  48.593  1.00  0.00    -0.264 OA
HETATM    4  H   UNL     1      24.295  48.202  50.850  1.00  0.00     0.190 HD
ENDROOT
BRANCH   1   5
HETATM    5  C   UNL     1      24.948  45.814  50.024  1.00  0.00     0.121 A 
HETATM    6  N   UNL     1      25.732  45.036  49.218  1.00  0.00    -0.272 N 
HETATM    7  N   UNL     1      26.690  44.362  49.869  1.00  0.00    -0.174 NA
HETATM    8  H   UNL     1      25.652  44.928  48.211  1.00  0.00     0.189 HD
HETATM    9  C   UNL     1      26.560  44.737  51.150  1.00  0.00     0.089 A 
HETATM   10  C   UNL     1      25.461  45.631  51.293  1.00  0.00     0.071 A 
BRANCH   9  11
HETATM   11  C   UNL     1      27.462  44.249  52.196  1.00  0.00    -0.005 A 
HETATM   12  C   UNL     1      27.236  44.555  53.544  1.00  0.00     0.016 A 
HETATM   13  C   UNL     1      28.097  44.074  54.535  1.00  0.00     0.037 A 
HETATM   14  C   UNL     1      29.190  43.273  54.202  1.00  0.00     0.068 A 
HETATM   15  C   UNL     1      29.437  42.981  52.862  1.00  0.00     0.037 A 
HETATM   16  C   UNL     1      28.578  43.467  51.867  1.00  0.00     0.016 A 
BRANCH  14  17
HETATM   17  O   UNL     1      29.941  42.857  55.266  1.00  0.00    -0.356 OA
HETATM   18  C   UNL     1      30.871  43.796  55.792  1.00  0.00     0.210 C 
ENDBRANCH  14  17
ENDBRANCH   9  11
ENDBRANCH   1   5
BRANCH   2  19
HETATM   19  N   UNL     1      22.772  48.735  49.561  1.00  0.00    -0.267 N 
HETATM   20  C   UNL     1      23.196  49.929  49.022  1.00  0.00     0.236 C 
HETATM   21  O   UNL     1      24.374  50.282  49.054  1.00  0.00    -0.272 OA
HETATM   22  H   UNL     1      21.837  48.349  49.440  1.00  0.00     0.190 HD
BRANCH  20  23
HETATM   23  C   UNL     1      22.129  50.729  48.306  1.00  0.00     0.109 C 
BRANCH  23  24
HETATM   24  C   UNL     1      20.871  50.949  49.147  1.00  0.00     0.048 C 
BRANCH  24  25
HETATM   25  C   UNL     1      19.607  50.301  48.626  1.00  0.00    -0.055 A 
HETATM   26  C   UNL     1      19.014  49.281  49.387  1.00  0.00     0.049 A 
HETATM   27  C   UNL     1      17.876  48.628  48.926  1.00  0.00     0.116 A 
HETATM   28  F   UNL     1      17.326  47.657  49.668  1.00  0.00    -0.206 F 
HETATM   29  C   UNL     1      17.306  48.959  47.704  1.00  0.00     0.042 A 
HETATM   30  C   UNL     1      17.888  49.959  46.930  1.00  0.00     0.003 A 
HETATM   31  C   UNL     1      19.035  50.621  47.385  1.00  0.00     0.007 A 
ENDBRANCH  24  25
ENDBRANCH  23  24
ENDBRANCH  20  23
ENDBRANCH   2  19
TORSDOF 7
ENDMDL
MODEL 9
REMARK VINA RESULT:      -8.0     18.528     21.416
REMARK  7 active torsions:
REMARK  status: ('A' for Active; 'I' for Inactive)
REMARK    1  A    between atoms: O_2  and  C_3 
REMARK    2  A    between atoms: C_6  and  C_7 
REMARK    3  A    between atoms: C_11  and  C_12 
REMARK       I    between atoms: C_12  and  N_13 
REMARK    4  A    between atoms: N_13  and  N_14 
REMARK       I    between atoms: N_14  and  C_15 
REMARK    5  A    between atoms: C_15  and  C_16 
REMARK    6  A    between atoms: C_16  and  C_17 
REMARK    7  A    between atoms: C_17  and  C_18 
ROOT
HETATM    1  C   UNL     1      38.219  47.385  65.863  1.00  0.00     0.288 C 
HETATM    2  N   UNL     1      38.467  46.944  64.581  1.00  0.00    -0.262 N 
HETATM    3  O   UNL     1      37.950  46.604  66.776  1.00  0.00    -0.264 OA
HETATM    4  H   UNL     1      38.648  47.557  63.790  1.00  0.00     0.190 HD
ENDROOT
BRANCH   1   5
HETATM    5  C   UNL     1      38.310  48.803  66.058  1.00  0.00     0.121 A 
HETATM    6  N   UNL     1      39.238  49.565  65.403  1.00  0.00    -0.272 N 
HETATM    7  N   UNL     1      39.176  50.872  65.690  1.00  0.00    -0.174 NA
HETATM    8  H   UNL     1      39.941  49.239  64.747  1.00  0.00     0.189 HD
HETATM    9  C   UNL     1      38.143  50.987  66.539  1.00  0.00     0.089 A 
HETATM   10  C   UNL     1      37.588  49.704  66.814  1.00  0.00     0.071 A 
BRANCH   9  11
HETATM   11  C   UNL     1      37.712  52.283  67.066  1.00  0.00    -0.005 A 
HETATM   12  C   UNL     1      37.835  53.450  66.301  1.00  0.00     0.016 A 
HETATM   13  C   UNL     1      37.408  54.681  66.810  1.00  0.00     0.037 A 
HETATM   14  C   UNL     1      36.843  54.768  68.082  1.00  0.00     0.068 A 
HETATM   15  C   UNL     1      36.736  53.617  68.860  1.00  0.00     0.037 A 
HETATM   16  C   UNL     1      37.169  52.384  68.354  1.00  0.00     0.016 A 
BRANCH  14  17
HETATM   17  O   UNL     1      36.454  56.026  68.451  1.00  0.00    -0.356 OA
HETATM   18  C   UNL     1      35.054  56.251  68.557  1.00  0.00     0.210 C 
ENDBRANCH  14  17
ENDBRANCH   9  11
ENDBRANCH   1   5
BRANCH   2  19
HETATM   19  N   UNL     1      38.477  45.570  64.325  1.00  0.00    -0.267 N 
HETATM   20  C   UNL     1      37.356  45.009  63.756  1.00  0.00     0.236 C 
HETATM   21  O   UNL     1      36.331  45.656  63.550  1.00  0.00    -0.272 OA
HETATM   22  H   UNL     1      39.382  45.107  64.391  1.00  0.00     0.190 HD
BRANCH  20  23
HETATM   23  C   UNL     1      37.508  43.568  63.317  1.00  0.00     0.109 C 
BRANCH  23  24
HETATM   24  C   UNL     1      38.917  43.227  62.834  1.00  0.00     0.048 C 
BRANCH  24  25
HETATM   25  C   UNL     1      39.439  41.862  63.227  1.00  0.00    -0.055 A 
HETATM   26  C   UNL     1      39.205  40.781  62.362  1.00  0.00     0.049 A 
HETATM   27  C   UNL     1      39.628  39.500  62.704  1.00  0.00     0.116 A 
HETATM   28  F   UNL     1      39.395  38.483  61.864  1.00  0.00    -0.206 F 
HETATM   29  C   UNL     1      40.279  39.259  63.906  1.00  0.00     0.042 A 
HETATM   30  C   UNL     1      40.507  40.316  64.781  1.00  0.00     0.003 A 
HETATM   31  C   UNL     1      40.084  41.609  64.447  1.00  0.00     0.007 A 
ENDBRANCH  24  25
ENDBRANCH  23  24
ENDBRANCH  20  23
ENDBRANCH   2  19
TORSDOF 7
ENDMDL
MODEL 10
REMARK VINA RESULT:      -8.0      2.067      2.361
REMARK  7 active torsions:
REMARK  status: ('A' for Active; 'I' for Inactive)
REMARK    1  A    between atoms: O_2  and  C_3 
REMARK    2  A    between atoms: C_6  and  C_7 
REMARK    3  A    between atoms: C_11  and  C_12 
REMARK       I    between atoms: C_12  and  N_13 
REMARK    4  A    between atoms: N_13  and  N_14 
REMARK       I    between atoms: N_14  and  C_15 
REMARK    5  A    between atoms: C_15  and  C_16 
REMARK    6  A    between atoms: C_16  and  C_17 
REMARK    7  A    between atoms: C_17  and  C_18 
ROOT
HETATM    1  C   UNL     1      24.330  44.920  50.806  1.00  0.00     0.288 C 
HETATM    2  N   UNL     1      24.323  46.263  50.496  1.00  0.00    -0.262 N 
HETATM    3  O   UNL     1      23.473  44.151  50.375  1.00  0.00    -0.264 OA
HETATM    4  H   UNL     1      24.985  46.940  50.868  1.00  0.00     0.190 HD
ENDROOT
BRANCH   1   5
HETATM    5  C   UNL     1      25.407  44.486  51.650  1.00  0.00     0.121 A 
HETATM    6  N   UNL     1      25.931  43.227  51.562  1.00  0.00    -0.272 N 
HETATM    7  N   UNL     1      26.939  42.992  52.414  1.00  0.00    -0.174 NA
HETATM    8  H   UNL     1      25.635  42.485  50.935  1.00  0.00     0.189 HD
HETATM    9  C   UNL     1      27.114  44.152  53.064  1.00  0.00     0.089 A 
HETATM   10  C   UNL     1      26.154  45.109  52.629  1.00  0.00     0.071 A 
BRANCH   9  11
HETATM   11  C   UNL     1      28.166  44.328  54.068  1.00  0.00    -0.005 A 
HETATM   12  C   UNL     1      28.187  45.453  54.901  1.00  0.00     0.016 A 
HETATM   13  C   UNL     1      29.190  45.604  55.864  1.00  0.00     0.037 A 
HETATM   14  C   UNL     1      30.181  44.634  56.020  1.00  0.00     0.068 A 
HETATM   15  C   UNL     1      30.181  43.521  55.181  1.00  0.00     0.037 A 
HETATM   16  C   UNL     1      29.180  43.370  54.212  1.00  0.00     0.016 A 
BRANCH  14  17
HETATM   17  O   UNL     1      31.090  44.896  57.006  1.00  0.00    -0.356 OA
HETATM   18  C   UNL     1      30.641  45.710  58.082  1.00  0.00     0.210 C 
ENDBRANCH  14  17
ENDBRANCH   9  11
ENDBRANCH   1   5
BRANCH   2  19
HETATM   19  N   UNL     1      23.353  46.751  49.616  1.00  0.00    -0.267 N 
HETATM   20  C   UNL     1      23.434  48.069  49.227  1.00  0.00     0.236 C 
HETATM   21  O   UNL     1      24.272  48.840  49.692  1.00  0.00    -0.272 OA
HETATM   22  H   UNL     1      22.766  46.052  49.163  1.00  0.00     0.190 HD
BRANCH  20  23
HETATM   23  C   UNL     1      22.484  48.475  48.120  1.00  0.00     0.109 C 
BRANCH  23  24
HETATM   24  C   UNL     1      21.041  48.039  48.371  1.00  0.00     0.048 C 
BRANCH  24  25
HETATM   25  C   UNL     1      19.976  48.826  47.638  1.00  0.00    -0.055 A 
HETATM   26  C   UNL     1      18.891  48.129  47.084  1.00  0.00     0.049 A 
HETATM   27  C   UNL     1      17.912  48.807  46.364  1.00  0.00     0.116 A 
HETATM   28  F   UNL     1      16.884  48.123  45.844  1.00  0.00    -0.206 F 
HETATM   29  C   UNL     1      17.988  50.179  46.169  1.00  0.00     0.042 A 
HETATM   30  C   UNL     1      19.064  50.884  46.700  1.00  0.00     0.003 A 
HETATM   31  C   UNL     1      20.055  50.211  47.425  1.00  0.00     0.007 A 
ENDBRANCH  24  25
ENDBRANCH  23  24
ENDBRANCH  20  23
ENDBRANCH   2  19
TORSDOF 7
ENDMDL
