MODEL 1
REMARK VINA RESULT:      -8.7      0.000      0.000
REMARK  4 active torsions:
REMARK  status: ('A' for Active; 'I' for Inactive)
REMARK       I    between atoms: C_2  and  N_3 
REMARK    1  A    between atoms: N_3  and  C_4 
REMARK    2  A    between atoms: C_4  and  C_5 
REMARK       I    between atoms: C_5  and  N_6 
REMARK    3  A    between atoms: N_6  and  C_7 
REMARK    4  A    between atoms: C_20  and  C_21 
ROOT
HETATM    1  C   UNL     1      25.384  47.434  50.838  1.00  0.00     0.272 C 
HETATM    2  N   UNL     1      25.199  46.825  52.056  1.00  0.00    -0.322 N 
HETATM    3  O   UNL     1      26.459  47.872  50.431  1.00  0.00    -0.266 OA
HETATM    4  H   UNL     1      24.288  46.977  52.483  1.00  0.00     0.169 HD
ENDROOT
BRANCH   1   5
HETATM    5  C   UNL     1      24.143  47.532  49.973  1.00  0.00     0.104 C 
HETATM    6  C   UNL     1      23.668  46.389  49.432  1.00  0.00     0.046 C 
BRANCH   5   7
HETATM    7  N   UNL     1      23.474  48.713  49.681  1.00  0.00    -0.323 N 
HETATM    8  C   UNL     1      23.795  49.696  48.772  1.00  0.00     0.218 C 
HETATM    9  C   UNL     1      22.744  50.771  48.649  1.00  0.00     0.117 C 
HETATM   10  O   UNL     1      24.846  49.773  48.146  1.00  0.00    -0.274 OA
HETATM   11  H   UNL     1      22.633  48.871  50.223  1.00  0.00     0.169 HD
ENDBRANCH   5   7
BRANCH   6  12
HETATM   12  C   UNL     1      24.190  45.035  49.658  1.00  0.00    -0.034 A 
HETATM   13  C   UNL     1      23.447  44.109  50.399  1.00  0.00     0.011 A 
HETATM   14  C   UNL     1      23.953  42.828  50.632  1.00  0.00     0.001 A 
HETATM   15  C   UNL     1      25.203  42.469  50.129  1.00  0.00     0.000 A 
HETATM   16  C   UNL     1      25.947  43.386  49.390  1.00  0.00     0.001 A 
HETATM   17  C   UNL     1      25.441  44.666  49.150  1.00  0.00     0.011 A 
ENDBRANCH   6  12
ENDBRANCH   1   5
BRANCH   2  18
HETATM   18  C   UNL     1      26.223  46.321  52.879  1.00  0.00     0.035 A 
HETATM   19  C   UNL     1      26.870  45.113  52.605  1.00  0.00     0.042 A 
HETATM   20  C   UNL     1      27.843  44.615  53.480  1.00  0.00    -0.021 A 
HETATM   21  C   UNL     1      28.445  43.327  53.223  1.00  0.00     0.010 A 
HETATM   22  C   UNL     1      28.186  45.348  54.622  1.00  0.00     0.012 A 
HETATM   23  C   UNL     1      27.854  42.054  53.078  1.00  0.00     0.152 A 
HETATM   24  C   UNL     1      29.790  43.105  53.033  1.00  0.00     0.123 A 
HETATM   25  N   UNL     1      28.755  41.097  52.834  1.00  0.00    -0.187 NA
HETATM   26  N   UNL     1      29.919  41.769  52.793  1.00  0.00    -0.289 N 
HETATM   27  H   UNL     1      30.765  41.246  52.591  1.00  0.00     0.188 HD
HETATM   28  C   UNL     1      27.537  46.551  54.901  1.00  0.00     0.003 A 
HETATM   29  C   UNL     1      26.545  47.028  54.040  1.00  0.00     0.029 A 
ENDBRANCH   2  18
TORSDOF 4
ENDMDL
MODEL 2
REMARK VINA RESULT:      -8.5      3.645      6.587
REMARK  4 active torsions:
REMARK  status: ('A' for Active; 'I' for Inactive)
REMARK       I    between atoms: C_2  and  N_3 
REMARK    1  A    between atoms: N_3  and  C_4 
REMARK    2  A    between atoms: C_4  and  C_5 
REMARK       I    between atoms: C_5  and  N_6 
REMARK    3  A    between atoms: N_6  and  C_7 
REMARK    4  A    between atoms: C_20  and  C_21 
ROOT
HETATM    1  C   UNL     1      28.420  41.590  52.299  1.00  0.00     0.272 C 
HETATM    2  N   UNL     1      29.430  42.499  52.506  1.00  0.00    -0.322 N 
HETATM    3  O   UNL     1      27.698  41.132  53.183  1.00  0.00    -0.266 OA
HETATM    4  H   UNL     1      30.229  42.410  51.882  1.00  0.00     0.169 HD
ENDROOT
BRANCH   1   5
HETATM    5  C   UNL     1      28.218  41.170  50.856  1.00  0.00     0.104 C 
HETATM    6  C   UNL     1      27.352  41.892  50.112  1.00  0.00     0.046 C 
BRANCH   5   7
HETATM    7  N   UNL     1      28.843  40.088  50.253  1.00  0.00    -0.323 N 
HETATM    8  C   UNL     1      28.287  38.960  49.692  1.00  0.00     0.218 C 
HETATM    9  C   UNL     1      29.292  38.064  49.012  1.00  0.00     0.117 C 
HETATM   10  O   UNL     1      27.107  38.636  49.765  1.00  0.00    -0.274 OA
HETATM   11  H   UNL     1      29.854  40.138  50.230  1.00  0.00     0.169 HD
ENDBRANCH   5   7
BRANCH   6  12
HETATM   12  C   UNL     1      26.633  43.100  50.538  1.00  0.00    -0.034 A 
HETATM   13  C   UNL     1      25.349  42.998  51.086  1.00  0.00     0.011 A 
HETATM   14  C   UNL     1      24.656  44.148  51.470  1.00  0.00     0.001 A 
HETATM   15  C   UNL     1      25.240  45.403  51.306  1.00  0.00     0.000 A 
HETATM   16  C   UNL     1      26.518  45.511  50.760  1.00  0.00     0.001 A 
HETATM   17  C   UNL     1      27.216  44.362  50.382  1.00  0.00     0.011 A 
ENDBRANCH   6  12
ENDBRANCH   1   5
BRANCH   2  18
HETATM   18  C   UNL     1      29.597  43.281  53.663  1.00  0.00     0.035 A 
HETATM   19  C   UNL     1      28.804  44.402  53.924  1.00  0.00     0.042 A 
HETATM   20  C   UNL     1      29.041  45.189  55.057  1.00  0.00    -0.021 A 
HETATM   21  C   UNL     1      28.264  46.389  55.271  1.00  0.00     0.010 A 
HETATM   22  C   UNL     1      30.061  44.833  55.946  1.00  0.00     0.012 A 
HETATM   23  C   UNL     1      28.098  47.528  54.454  1.00  0.00     0.152 A 
HETATM   24  C   UNL     1      27.473  46.636  56.369  1.00  0.00     0.123 A 
HETATM   25  N   UNL     1      27.280  48.434  55.000  1.00  0.00    -0.187 NA
HETATM   26  N   UNL     1      26.901  47.856  56.154  1.00  0.00    -0.289 N 
HETATM   27  H   UNL     1      26.244  48.354  56.745  1.00  0.00     0.188 HD
HETATM   28  C   UNL     1      30.858  43.719  55.685  1.00  0.00     0.003 A 
HETATM   29  C   UNL     1      30.637  42.954  54.537  1.00  0.00     0.029 A 
ENDBRANCH   2  18
TORSDOF 4
ENDMDL
MODEL 3
REMARK VINA RESULT:      -8.3      5.675      9.685
REMARK  4 active torsions:
REMARK  status: ('A' for Active; 'I' for Inactive)
REMARK       I    between atoms: C_2  and  N_3 
REMARK    1  A    between atoms: N_3  and  C_4 
REMARK    2  A    between atoms: C_4  and  C_5 
REMARK       I    between atoms: C_5  and  N_6 
REMARK    3  A    between atoms: N_6  and  C_7 
REMARK    4  A    between atoms: C_20  and  C_21 
ROOT
HETATM    1  C   UNL     1      22.219  48.563  48.203  1.00  0.00     0.272 C 
HETATM    2  N   UNL     1      21.515  47.673  48.978  1.00  0.00    -0.322 N 
HETATM    3  O   UNL     1      22.166  48.617  46.975  1.00  0.00    -0.266 OA
HETATM    4  H   UNL     1      21.984  47.375  49.831  1.00  0.00     0.169 HD
ENDROOT
BRANCH   1   5
HETATM    5  C   UNL     1      23.094  49.534  48.971  1.00  0.00     0.104 C 
HETATM    6  C   UNL     1      22.504  50.639  49.478  1.00  0.00     0.046 C 
BRANCH   5   7
HETATM    7  N   UNL     1      24.458  49.378  49.174  1.00  0.00    -0.323 N 
HETATM    8  C   UNL     1      25.508  49.741  48.360  1.00  0.00     0.218 C 
HETATM    9  C   UNL     1      26.863  49.525  48.988  1.00  0.00     0.117 C 
HETATM   10  O   UNL     1      25.410  50.144  47.207  1.00  0.00    -0.274 OA
HETATM   11  H   UNL     1      24.711  48.926  50.044  1.00  0.00     0.169 HD
ENDBRANCH   5   7
BRANCH   6  12
HETATM   12  C   UNL     1      21.073  50.966  49.425  1.00  0.00    -0.034 A 
HETATM   13  C   UNL     1      20.197  50.445  50.384  1.00  0.00     0.011 A 
HETATM   14  C   UNL     1      18.834  50.738  50.323  1.00  0.00     0.001 A 
HETATM   15  C   UNL     1      18.339  51.549  49.301  1.00  0.00     0.000 A 
HETATM   16  C   UNL     1      19.207  52.071  48.344  1.00  0.00     0.001 A 
HETATM   17  C   UNL     1      20.572  51.785  48.407  1.00  0.00     0.011 A 
ENDBRANCH   6  12
ENDBRANCH   1   5
BRANCH   2  18
HETATM   18  C   UNL     1      20.410  46.916  48.550  1.00  0.00     0.035 A 
HETATM   19  C   UNL     1      19.204  47.511  48.168  1.00  0.00     0.042 A 
HETATM   20  C   UNL     1      18.107  46.721  47.804  1.00  0.00    -0.021 A 
HETATM   21  C   UNL     1      16.845  47.349  47.488  1.00  0.00     0.010 A 
HETATM   22  C   UNL     1      18.231  45.327  47.799  1.00  0.00     0.012 A 
HETATM   23  C   UNL     1      16.033  48.208  48.258  1.00  0.00     0.152 A 
HETATM   24  C   UNL     1      16.183  47.236  46.287  1.00  0.00     0.123 A 
HETATM   25  N   UNL     1      14.933  48.594  47.604  1.00  0.00    -0.187 NA
HETATM   26  N   UNL     1      15.061  48.004  46.403  1.00  0.00    -0.289 N 
HETATM   27  H   UNL     1      14.343  48.175  45.707  1.00  0.00     0.188 HD
HETATM   28  C   UNL     1      19.431  44.730  48.186  1.00  0.00     0.003 A 
HETATM   29  C   UNL     1      20.513  45.523  48.578  1.00  0.00     0.029 A 
ENDBRANCH   2  18
TORSDOF 4
ENDMDL
MODEL 4
REMARK VINA RESULT:      -8.3     17.415     19.698
REMARK  4 active torsions:
REMARK  status: ('A' for Active; 'I' for Inactive)
REMARK       I    between atoms: C_2  and  N_3 
REMARK    1  A    between atoms: N_3  and  C_4 
REMARK    2  A    between atoms: C_4  and  C_5 
REMARK       I    between atoms: C_5  and  N_6 
REMARK    3  A    between atoms: N_6  and  C_7 
REMARK    4  A    between atoms: C_20  and  C_21 
ROOT
HETATM    1  C   UNL     1      39.956  42.736  63.840  1.00  0.00     0.272 C 
HETATM    2  N   UNL     1      40.398  43.878  63.217  1.00  0.00    -0.322 N 
HETATM    3  O   UNL     1      40.338  42.348  64.942  1.00  0.00    -0.266 OA
HETATM    4  H   UNL     1      40.437  43.832  62.200  1.00  0.00     0.169 HD
ENDROOT
BRANCH   1   5
HETATM    5  C   UNL     1      38.913  41.948  63.073  1.00  0.00     0.104 C 
HETATM    6  C   UNL     1      37.617  42.276  63.266  1.00  0.00     0.046 C 
BRANCH   5   7
HETATM    7  N   UNL     1      39.193  40.902  62.204  1.00  0.00    -0.323 N 
HETATM    8  C   UNL     1      39.527  39.597  62.488  1.00  0.00     0.218 C 
HETATM    9  C   UNL     1      39.629  38.719  61.266  1.00  0.00     0.117 C 
HETATM   10  O   UNL     1      39.792  39.155  63.601  1.00  0.00    -0.274 OA
HETATM   11  H   UNL     1      39.149  41.141  61.221  1.00  0.00     0.169 HD
ENDBRANCH   5   7
BRANCH   6  12
HETATM   12  C   UNL     1      37.110  43.379  64.094  1.00  0.00    -0.034 A 
HETATM   13  C   UNL     1      36.675  43.134  65.401  1.00  0.00     0.011 A 
HETATM   14  C   UNL     1      36.173  44.178  66.181  1.00  0.00     0.001 A 
HETATM   15  C   UNL     1      36.100  45.468  65.658  1.00  0.00     0.000 A 
HETATM   16  C   UNL     1      36.532  45.717  64.356  1.00  0.00     0.001 A 
HETATM   17  C   UNL     1      37.041  44.677  63.577  1.00  0.00     0.011 A 
ENDBRANCH   6  12
ENDBRANCH   1   5
BRANCH   2  18
HETATM   18  C   UNL     1      41.090  44.931  63.842  1.00  0.00     0.035 A 
HETATM   19  C   UNL     1      40.430  46.044  64.373  1.00  0.00     0.042 A 
HETATM   20  C   UNL     1      41.158  47.099  64.934  1.00  0.00    -0.021 A 
HETATM   21  C   UNL     1      40.464  48.276  65.407  1.00  0.00     0.010 A 
HETATM   22  C   UNL     1      42.554  47.026  64.986  1.00  0.00     0.012 A 
HETATM   23  C   UNL     1      39.605  49.165  64.727  1.00  0.00     0.152 A 
HETATM   24  C   UNL     1      40.499  48.751  66.697  1.00  0.00     0.123 A 
HETATM   25  N   UNL     1      39.146  50.138  65.520  1.00  0.00    -0.187 NA
HETATM   26  N   UNL     1      39.691  49.849  66.715  1.00  0.00    -0.289 N 
HETATM   27  H   UNL     1      39.461  50.447  67.502  1.00  0.00     0.188 HD
HETATM   28  C   UNL     1      43.216  45.920  64.452  1.00  0.00     0.003 A 
HETATM   29  C   UNL     1      42.486  44.883  63.865  1.00  0.00     0.029 A 
ENDBRANCH   2  18
TORSDOF 4
ENDMDL
MODEL 5
REMARK VINA RESULT:      -8.1     17.537     18.884
REMARK  4 active torsions:
REMARK  status: ('A' for Active; 'I' for Inactive)
REMARK       I    between atoms: C_2  and  N_3 
REMARK    1  A    between atoms: N_3  and  C_4 
REMARK    2  A    between atoms: C_4  and  C_5 
REMARK       I    between atoms: C_5  and  N_6 
REMARK    3  A    between atoms: N_6  and  C_7 
REMARK    4  A    between atoms: C_20  and  C_21 
ROOT
HETATM    1  C   UNL     1      36.837  44.514  66.670  1.00  0.00     0.272 C 
HETATM    2  N   UNL     1      36.517  43.985  65.442  1.00  0.00    -0.322 N 
HETATM    3  O   UNL     1      37.951  44.460  67.186  1.00  0.00    -0.266 OA
HETATM    4  H   UNL     1      35.565  43.635  65.354  1.00  0.00     0.169 HD
ENDROOT
BRANCH   1   5
HETATM    5  C   UNL     1      35.698  45.214  67.385  1.00  0.00     0.104 C 
HETATM    6  C   UNL     1      35.600  46.554  67.240  1.00  0.00     0.046 C 
BRANCH   5   7
HETATM    7  N   UNL     1      34.763  44.581  68.191  1.00  0.00    -0.323 N 
HETATM    8  C   UNL     1      34.090  43.397  67.984  1.00  0.00     0.218 C 
HETATM    9  C   UNL     1      33.246  42.968  69.158  1.00  0.00     0.117 C 
HETATM   10  O   UNL     1      34.091  42.750  66.943  1.00  0.00    -0.274 OA
HETATM   11  H   UNL     1      34.542  45.067  69.052  1.00  0.00     0.169 HD
ENDBRANCH   5   7
BRANCH   6  12
HETATM   12  C   UNL     1      36.447  47.404  66.393  1.00  0.00    -0.034 A 
HETATM   13  C   UNL     1      37.506  48.125  66.956  1.00  0.00     0.011 A 
HETATM   14  C   UNL     1      38.298  48.950  66.154  1.00  0.00     0.001 A 
HETATM   15  C   UNL     1      38.034  49.060  64.789  1.00  0.00     0.000 A 
HETATM   16  C   UNL     1      36.981  48.344  64.224  1.00  0.00     0.001 A 
HETATM   17  C   UNL     1      36.191  47.513  65.021  1.00  0.00     0.011 A 
ENDBRANCH   6  12
ENDBRANCH   1   5
BRANCH   2  18
HETATM   18  C   UNL     1      37.443  43.595  64.458  1.00  0.00     0.035 A 
HETATM   19  C   UNL     1      37.981  42.305  64.412  1.00  0.00     0.042 A 
HETATM   20  C   UNL     1      38.944  41.972  63.453  1.00  0.00    -0.021 A 
HETATM   21  C   UNL     1      39.547  40.659  63.470  1.00  0.00     0.010 A 
HETATM   22  C   UNL     1      39.350  42.931  62.518  1.00  0.00     0.012 A 
HETATM   23  C   UNL     1      40.261  39.994  64.489  1.00  0.00     0.152 A 
HETATM   24  C   UNL     1      39.504  39.753  62.435  1.00  0.00     0.123 A 
HETATM   25  N   UNL     1      40.655  38.770  64.123  1.00  0.00    -0.187 NA
HETATM   26  N   UNL     1      40.163  38.645  62.877  1.00  0.00    -0.289 N 
HETATM   27  H   UNL     1      40.315  37.768  62.389  1.00  0.00     0.188 HD
HETATM   28  C   UNL     1      38.820  44.220  62.565  1.00  0.00     0.003 A 
HETATM   29  C   UNL     1      37.881  44.557  63.544  1.00  0.00     0.029 A 
ENDBRANCH   2  18
TORSDOF 4
ENDMDL
MODEL 6
REMARK VINA RESULT:      -7.9      3.310      5.795
REMARK  4 active torsions:
REMARK  status: ('A' for Active; 'I' for Inactive)
REMARK       I    between atoms: C_2  and  N_3 
REMARK    1  A    between atoms: N_3  and  C_4 
REMARK    2  A    between atoms: C_4  and  C_5 
REMARK       I    between atoms: C_5  and  N_6 
REMARK    3  A    between atoms: N_6  and  C_7 
REMARK    4  A    between atoms: C_20  and  C_21 
ROOT
HETATM    1  C   UNL     1      25.944  43.122  50.281  1.00  0.00     0.272 C 
HETATM    2  N   UNL     1      27.019  42.828  49.477  1.00  0.00    -0.322 N 
HETATM    3  O   UNL     1      24.958  42.401  50.423  1.00  0.00    -0.266 OA
HETATM    4  H   UNL     1      27.473  43.631  49.047  1.00  0.00     0.169 HD
ENDROOT
BRANCH   1   5
HETATM    5  C   UNL     1      26.044  44.435  51.033  1.00  0.00     0.104 C 
HETATM    6  C   UNL     1      26.879  44.484  52.095  1.00  0.00     0.046 C 
BRANCH   5   7
HETATM    7  N   UNL     1      25.326  45.581  50.722  1.00  0.00    -0.323 N 
HETATM    8  C   UNL     1      25.658  46.616  49.877  1.00  0.00     0.218 C 
HETATM    9  C   UNL     1      24.554  47.627  49.696  1.00  0.00     0.117 C 
HETATM   10  O   UNL     1      26.752  46.782  49.349  1.00  0.00    -0.274 OA
HETATM   11  H   UNL     1      24.433  45.666  51.192  1.00  0.00     0.169 HD
ENDBRANCH   5   7
BRANCH   6  12
HETATM   12  C   UNL     1      27.766  43.408  52.557  1.00  0.00    -0.034 A 
HETATM   13  C   UNL     1      27.228  42.251  53.131  1.00  0.00     0.011 A 
HETATM   14  C   UNL     1      28.072  41.237  53.590  1.00  0.00     0.001 A 
HETATM   15  C   UNL     1      29.455  41.378  53.481  1.00  0.00     0.000 A 
HETATM   16  C   UNL     1      29.996  42.528  52.911  1.00  0.00     0.001 A 
HETATM   17  C   UNL     1      29.154  43.540  52.444  1.00  0.00     0.011 A 
ENDBRANCH   6  12
ENDBRANCH   1   5
BRANCH   2  18
HETATM   18  C   UNL     1      27.320  41.558  48.952  1.00  0.00     0.035 A 
HETATM   19  C   UNL     1      27.804  40.518  49.751  1.00  0.00     0.042 A 
HETATM   20  C   UNL     1      28.148  39.287  49.181  1.00  0.00    -0.021 A 
HETATM   21  C   UNL     1      28.721  38.250  50.009  1.00  0.00     0.010 A 
HETATM   22  C   UNL     1      27.980  39.091  47.806  1.00  0.00     0.012 A 
HETATM   23  C   UNL     1      29.881  38.258  50.812  1.00  0.00     0.152 A 
HETATM   24  C   UNL     1      28.184  36.997  50.194  1.00  0.00     0.123 A 
HETATM   25  N   UNL     1      30.074  37.095  51.443  1.00  0.00    -0.187 NA
HETATM   26  N   UNL     1      29.016  36.356  51.063  1.00  0.00    -0.289 N 
HETATM   27  H   UNL     1      28.927  35.419  51.443  1.00  0.00     0.188 HD
HETATM   28  C   UNL     1      27.504  40.128  47.005  1.00  0.00     0.003 A 
HETATM   29  C   UNL     1      27.191  41.365  47.574  1.00  0.00     0.029 A 
ENDBRANCH   2  18
TORSDOF 4
ENDMDL
MODEL 7
REMARK VINA RESULT:      -7.9      2.220      6.931
REMARK  4 active torsions:
REMARK  status: ('A' for Active; 'I' for Inactive)
REMARK       I    between atoms: C_2  and  N_3 
REMARK    1  A    between atoms: N_3  and  C_4 
REMARK    2  A    between atoms: C_4  and  C_5 
REMARK       I    between atoms: C_5  and  N_6 
REMARK    3  A    between atoms: N_6  and  C_7 
REMARK    4  A    between atoms: C_20  and  C_21 
ROOT
HETATM    1  C   UNL     1      26.694  45.105  50.585  1.00  0.00     0.272 C 
HETATM    2  N   UNL     1      25.885  46.180  50.864  1.00  0.00    -0.322 N 
HETATM    3  O   UNL     1      27.249  44.909  49.505  1.00  0.00    -0.266 OA
HETATM    4  H   UNL     1      25.125  45.994  51.515  1.00  0.00     0.169 HD
ENDROOT
BRANCH   1   5
HETATM    5  C   UNL     1      26.893  44.134  51.731  1.00  0.00     0.104 C 
HETATM    6  C   UNL     1      26.142  43.010  51.734  1.00  0.00     0.046 C 
BRANCH   5   7
HETATM    7  N   UNL     1      27.774  44.325  52.786  1.00  0.00    -0.323 N 
HETATM    8  C   UNL     1      27.678  45.183  53.858  1.00  0.00     0.218 C 
HETATM    9  C   UNL     1      28.780  45.007  54.874  1.00  0.00     0.117 C 
HETATM   10  O   UNL     1      26.838  46.066  53.992  1.00  0.00    -0.274 OA
HETATM   11  H   UNL     1      28.609  43.753  52.754  1.00  0.00     0.169 HD
ENDBRANCH   5   7
BRANCH   6  12
HETATM   12  C   UNL     1      25.196  42.591  50.691  1.00  0.00    -0.034 A 
HETATM   13  C   UNL     1      25.599  41.694  49.696  1.00  0.00     0.011 A 
HETATM   14  C   UNL     1      24.707  41.311  48.692  1.00  0.00     0.001 A 
HETATM   15  C   UNL     1      23.411  41.826  48.676  1.00  0.00     0.000 A 
HETATM   16  C   UNL     1      23.004  42.720  49.665  1.00  0.00     0.001 A 
HETATM   17  C   UNL     1      23.892  43.099  50.674  1.00  0.00     0.011 A 
ENDBRANCH   6  12
ENDBRANCH   1   5
BRANCH   2  18
HETATM   18  C   UNL     1      25.813  47.364  50.108  1.00  0.00     0.035 A 
HETATM   19  C   UNL     1      24.594  47.962  49.776  1.00  0.00     0.042 A 
HETATM   20  C   UNL     1      24.561  49.107  48.971  1.00  0.00    -0.021 A 
HETATM   21  C   UNL     1      23.290  49.665  48.572  1.00  0.00     0.010 A 
HETATM   22  C   UNL     1      25.760  49.669  48.520  1.00  0.00     0.012 A 
HETATM   23  C   UNL     1      22.215  49.081  47.869  1.00  0.00     0.152 A 
HETATM   24  C   UNL     1      22.863  50.943  48.852  1.00  0.00     0.123 A 
HETATM   25  N   UNL     1      21.194  49.928  47.701  1.00  0.00    -0.187 NA
HETATM   26  N   UNL     1      21.609  51.044  48.325  1.00  0.00    -0.289 N 
HETATM   27  H   UNL     1      20.978  51.838  48.354  1.00  0.00     0.188 HD
HETATM   28  C   UNL     1      26.978  49.072  48.845  1.00  0.00     0.003 A 
HETATM   29  C   UNL     1      27.004  47.911  49.623  1.00  0.00     0.029 A 
ENDBRANCH   2  18
TORSDOF 4
ENDMDL
MODEL 8
REMARK VINA RESULT:      -7.8      5.838      8.633
REMARK  4 active torsions:
REMARK  status: ('A' for Active; 'I' for Inactive)
REMARK       I    between atoms: C_2  and  N_3 
REMARK    1  A    between atoms: N_3  and  C_4 
REMARK    2  A    between atoms: C_4  and  C_5 
REMARK       I    between atoms: C_5  and  N_6 
REMARK    3  A    between atoms: N_6  and  C_7 
REMARK    4  A    between atoms: C_20  and  C_21 
ROOT
HETATM    1  C   UNL     1      18.249  49.796  49.967  1.00  0.00     0.272 C 
HETATM    2  N   UNL     1      18.021  49.099  48.805  1.00  0.00    -0.322 N 
HETATM    3  O   UNL     1      18.482  49.280  51.059  1.00  0.00    -0.266 OA
HETATM    4  H   UNL     1      17.372  49.539  48.155  1.00  0.00     0.169 HD
ENDROOT
BRANCH   1   5
HETATM    5  C   UNL     1      18.214  51.305  49.830  1.00  0.00     0.104 C 
HETATM    6  C   UNL     1      19.359  51.926  49.469  1.00  0.00     0.046 C 
BRANCH   5   7
HETATM    7  N   UNL     1      17.097  52.095  50.067  1.00  0.00    -0.323 N 
HETATM    8  C   UNL     1      15.827  51.987  49.547  1.00  0.00     0.218 C 
HETATM    9  C   UNL     1      14.843  52.960  50.150  1.00  0.00     0.117 C 
HETATM   10  O   UNL     1      15.489  51.238  48.638  1.00  0.00    -0.274 OA
HETATM   11  H   UNL     1      17.247  52.863  50.709  1.00  0.00     0.169 HD
ENDBRANCH   5   7
BRANCH   6  12
HETATM   12  C   UNL     1      20.630  51.277  49.120  1.00  0.00    -0.034 A 
HETATM   13  C   UNL     1      21.614  51.088  50.096  1.00  0.00     0.011 A 
HETATM   14  C   UNL     1      22.831  50.491  49.760  1.00  0.00     0.001 A 
HETATM   15  C   UNL     1      23.070  50.085  48.448  1.00  0.00     0.000 A 
HETATM   16  C   UNL     1      22.093  50.270  47.472  1.00  0.00     0.001 A 
HETATM   17  C   UNL     1      20.873  50.860  47.807  1.00  0.00     0.011 A 
ENDBRANCH   6  12
ENDBRANCH   1   5
BRANCH   2  18
HETATM   18  C   UNL     1      18.323  47.741  48.597  1.00  0.00     0.035 A 
HETATM   19  C   UNL     1      19.625  47.244  48.706  1.00  0.00     0.042 A 
HETATM   20  C   UNL     1      19.895  45.898  48.433  1.00  0.00    -0.021 A 
HETATM   21  C   UNL     1      21.257  45.418  48.474  1.00  0.00     0.010 A 
HETATM   22  C   UNL     1      18.848  45.041  48.075  1.00  0.00     0.012 A 
HETATM   23  C   UNL     1      22.398  45.843  47.759  1.00  0.00     0.152 A 
HETATM   24  C   UNL     1      21.720  44.414  49.293  1.00  0.00     0.123 A 
HETATM   25  N   UNL     1      23.493  45.150  48.087  1.00  0.00    -0.187 NA
HETATM   26  N   UNL     1      23.054  44.303  49.035  1.00  0.00    -0.289 N 
HETATM   27  H   UNL     1      23.727  43.678  49.466  1.00  0.00     0.188 HD
HETATM   28  C   UNL     1      17.549  45.536  47.959  1.00  0.00     0.003 A 
HETATM   29  C   UNL     1      17.290  46.888  48.202  1.00  0.00     0.029 A 
ENDBRANCH   2  18
TORSDOF 4
ENDMDL
MODEL 9
REMARK VINA RESULT:      -7.7      3.537      5.891
REMARK  4 active torsions:
REMARK  status: ('A' for Active; 'I' for Inactive)
REMARK       I    between atoms: C_2  and  N_3 
REMARK    1  A    between atoms: N_3  and  C_4 
REMARK    2  A    between atoms: C_4  and  C_5 
REMARK       I    between atoms: C_5  and  N_6 
REMARK    3  A    between atoms: N_6  and  C_7 
REMARK    4  A    between atoms: C_20  and  C_21 
ROOT
HETATM    1  C   UNL     1      27.811  41.951  51.432  1.00  0.00     0.272 C 
HETATM    2  N   UNL     1      28.429  43.153  51.677  1.00  0.00    -0.322 N 
HETATM    3  O   UNL     1      27.426  41.171  52.302  1.00  0.00    -0.266 OA
HETATM    4  H   UNL     1      29.121  43.435  50.985  1.00  0.00     0.169 HD
ENDROOT
BRANCH   1   5
HETATM    5  C   UNL     1      27.602  41.622  49.967  1.00  0.00     0.104 C 
HETATM    6  C   UNL     1      26.723  42.382  49.277  1.00  0.00     0.046 C 
BRANCH   5   7
HETATM    7  N   UNL     1      28.232  40.586  49.291  1.00  0.00    -0.323 N 
HETATM    8  C   UNL     1      27.857  39.267  49.172  1.00  0.00     0.218 C 
HETATM    9  C   UNL     1      28.736  38.471  48.240  1.00  0.00     0.117 C 
HETATM   10  O   UNL     1      26.946  38.726  49.789  1.00  0.00    -0.274 OA
HETATM   11  H   UNL     1      29.094  40.843  48.827  1.00  0.00     0.169 HD
ENDBRANCH   5   7
BRANCH   6  12
HETATM   12  C   UNL     1      25.996  43.553  49.783  1.00  0.00    -0.034 A 
HETATM   13  C   UNL     1      24.824  43.385  50.528  1.00  0.00     0.011 A 
HETATM   14  C   UNL     1      24.120  44.499  50.991  1.00  0.00     0.001 A 
HETATM   15  C   UNL     1      24.584  45.784  50.710  1.00  0.00     0.000 A 
HETATM   16  C   UNL     1      25.751  45.957  49.969  1.00  0.00     0.001 A 
HETATM   17  C   UNL     1      26.460  44.845  49.510  1.00  0.00     0.011 A 
ENDBRANCH   6  12
ENDBRANCH   1   5
BRANCH   2  18
HETATM   18  C   UNL     1      28.437  43.828  52.911  1.00  0.00     0.035 A 
HETATM   19  C   UNL     1      29.466  43.662  53.843  1.00  0.00     0.042 A 
HETATM   20  C   UNL     1      29.408  44.305  55.085  1.00  0.00    -0.021 A 
HETATM   21  C   UNL     1      30.440  44.060  56.067  1.00  0.00     0.010 A 
HETATM   22  C   UNL     1      28.325  45.140  55.382  1.00  0.00     0.012 A 
HETATM   23  C   UNL     1      30.872  42.853  56.657  1.00  0.00     0.152 A 
HETATM   24  C   UNL     1      31.257  45.022  56.615  1.00  0.00     0.123 A 
HETATM   25  N   UNL     1      31.873  43.038  57.525  1.00  0.00    -0.187 NA
HETATM   26  N   UNL     1      32.097  44.363  57.463  1.00  0.00    -0.289 N 
HETATM   27  H   UNL     1      32.847  44.747  58.028  1.00  0.00     0.188 HD
HETATM   28  C   UNL     1      27.295  45.303  54.457  1.00  0.00     0.003 A 
HETATM   29  C   UNL     1      27.342  44.635  53.230  1.00  0.00     0.029 A 
ENDBRANCH   2  18
TORSDOF 4
ENDMDL
MODEL 10
REMARK VINA RESULT:      -7.6      3.228      5.905
REMARK  4 active torsions:
REMARK  status: ('A' for Active; 'I' for Inactive)
REMARK       I    between atoms: C_2  and  N_3 
REMARK    1  A    between atoms: N_3  and  C_4 
REMARK    2  A    between atoms: C_4  and  C_5 
REMARK       I    between atoms: C_5  and  N_6 
REMARK    3  A    between atoms: N_6  and  C_7 
REMARK    4  A    between atoms: C_20  and  C_21 
ROOT
HETATM    1  C   UNL     1      27.916  43.908  52.941  1.00  0.00     0.272 C 
HETATM    2  N   UNL     1      27.021  42.998  52.434  1.00  0.00    -0.322 N 
HETATM    3  O   UNL     1      29.114  43.939  52.665  1.00  0.00    -0.266 OA
HETATM    4  H   UNL     1      26.265  42.735  53.063  1.00  0.00     0.169 HD
ENDROOT
BRANCH   1   5
HETATM    5  C   UNL     1      27.326  44.931  53.892  1.00  0.00     0.104 C 
HETATM    6  C   UNL     1      26.354  45.739  53.413  1.00  0.00     0.046 C 
BRANCH   5   7
HETATM    7  N   UNL     1      27.724  45.109  55.209  1.00  0.00    -0.323 N 
HETATM    8  C   UNL     1      28.560  46.062  55.746  1.00  0.00     0.218 C 
HETATM    9  C   UNL     1      28.648  46.010  57.252  1.00  0.00     0.117 C 
HETATM   10  O   UNL     1      29.240  46.856  55.106  1.00  0.00    -0.274 OA
HETATM   11  H   UNL     1      27.348  44.434  55.863  1.00  0.00     0.169 HD
ENDBRANCH   5   7
BRANCH   6  12
HETATM   12  C   UNL     1      25.752  45.681  52.075  1.00  0.00    -0.034 A 
HETATM   13  C   UNL     1      26.343  46.365  51.007  1.00  0.00     0.011 A 
HETATM   14  C   UNL     1      25.758  46.327  49.739  1.00  0.00     0.001 A 
HETATM   15  C   UNL     1      24.580  45.610  49.534  1.00  0.00     0.000 A 
HETATM   16  C   UNL     1      23.987  44.926  50.594  1.00  0.00     0.001 A 
HETATM   17  C   UNL     1      24.574  44.957  51.861  1.00  0.00     0.011 A 
ENDBRANCH   6  12
ENDBRANCH   1   5
BRANCH   2  18
HETATM   18  C   UNL     1      27.237  42.182  51.309  1.00  0.00     0.035 A 
HETATM   19  C   UNL     1      27.771  40.894  51.415  1.00  0.00     0.042 A 
HETATM   20  C   UNL     1      28.027  40.136  50.266  1.00  0.00    -0.021 A 
HETATM   21  C   UNL     1      28.652  38.839  50.390  1.00  0.00     0.010 A 
HETATM   22  C   UNL     1      27.722  40.664  49.007  1.00  0.00     0.012 A 
HETATM   23  C   UNL     1      29.884  38.469  50.968  1.00  0.00     0.152 A 
HETATM   24  C   UNL     1      28.104  37.652  49.960  1.00  0.00     0.123 A 
HETATM   25  N   UNL     1      30.109  37.153  50.896  1.00  0.00    -0.187 NA
HETATM   26  N   UNL     1      29.002  36.681  50.296  1.00  0.00    -0.289 N 
HETATM   27  H   UNL     1      28.926  35.680  50.152  1.00  0.00     0.188 HD
HETATM   28  C   UNL     1      27.195  41.951  48.897  1.00  0.00     0.003 A 
HETATM   29  C   UNL     1      26.970  42.715  50.045  1.00  0.00     0.029 A 
ENDBRANCH   2  18
TORSDOF 4
ENDMDL
