MODEL 1
REMARK VINA RESULT:      -9.3      0.000      0.000
REMARK  6 active torsions:
REMARK  status: ('A' for Active; 'I' for Inactive)
REMARK    1  A    between atoms: C_4  and  C_5 
REMARK    2  A    between atoms: C_9  and  N_10 
REMARK       I    between atoms: N_10  and  C_11 
REMARK    3  A    between atoms: C_11  and  C_12 
REMARK    4  A    between atoms: C_12  and  C_13 
REMARK    5  A    between atoms: C_13  and  C_14 
REMARK    6  A    between atoms: C_13  and  C_20 
ROOT
HETATM    1  N   UNL     1      27.340  44.684  52.174  1.00  0.00    -0.312 N 
HETATM    2  C   UNL     1      26.837  44.049  53.289  1.00  0.00     0.224 C 
HETATM    3  O   UNL     1      25.627  43.909  53.496  1.00  0.00    -0.273 OA
HETATM    4  H   UNL     1      28.332  44.836  52.062  1.00  0.00     0.170 HD
ENDROOT
BRANCH   1   5
HETATM    5  C   UNL     1      26.521  45.241  51.208  1.00  0.00     0.132 A 
HETATM    6  N   UNL     1      26.384  44.743  49.939  1.00  0.00    -0.261 N 
HETATM    7  N   UNL     1      25.534  45.443  49.171  1.00  0.00    -0.170 NA
HETATM    8  H   UNL     1      26.849  43.921  49.561  1.00  0.00     0.191 HD
HETATM    9  C   UNL     1      25.109  46.424  49.979  1.00  0.00     0.120 A 
HETATM   10  C   UNL     1      25.697  46.346  51.277  1.00  0.00     0.017 A 
HETATM   11  C   UNL     1      25.459  47.251  52.428  1.00  0.00     0.055 C 
BRANCH   9  12
HETATM   12  C   UNL     1      24.129  47.458  49.522  1.00  0.00     0.106 A 
HETATM   13  O   UNL     1      24.327  48.811  49.593  1.00  0.00    -0.313 OA
HETATM   14  C   UNL     1      23.219  49.416  49.085  1.00  0.00     0.050 A 
HETATM   15  C   UNL     1      23.226  50.891  49.058  1.00  0.00     0.076 C 
HETATM   16  C   UNL     1      22.303  48.468  48.683  1.00  0.00     0.035 A 
HETATM   17  C   UNL     1      22.888  47.211  48.965  1.00  0.00     0.042 A 
ENDBRANCH   9  12
ENDBRANCH   1   5
BRANCH   2  18
HETATM   18  C   UNL     1      27.833  43.472  54.290  1.00  0.00     0.116 C 
BRANCH  18  19
HETATM   19  C   UNL     1      29.326  43.836  54.163  1.00  0.00     0.049 C 
BRANCH  19  20
HETATM   20  C   UNL     1      30.032  44.115  55.487  1.00  0.00    -0.050 A 
HETATM   21  C   UNL     1      30.995  43.248  56.028  1.00  0.00     0.008 A 
HETATM   22  C   UNL     1      31.592  43.528  57.260  1.00  0.00     0.001 A 
HETATM   23  C   UNL     1      31.245  44.680  57.962  1.00  0.00     0.000 A 
HETATM   24  C   UNL     1      30.310  45.561  57.429  1.00  0.00     0.001 A 
HETATM   25  C   UNL     1      29.711  45.285  56.199  1.00  0.00     0.008 A 
ENDBRANCH  19  20
BRANCH  19  26
HETATM   26  C   UNL     1      30.025  42.796  53.299  1.00  0.00    -0.027 C 
HETATM   27  C   UNL     1      29.513  41.673  52.778  1.00  0.00     0.007 C 
ENDBRANCH  19  26
ENDBRANCH  18  19
ENDBRANCH   2  18
TORSDOF 6
ENDMDL
MODEL 2
REMARK VINA RESULT:      -9.0      1.510      1.943
REMARK  6 active torsions:
REMARK  status: ('A' for Active; 'I' for Inactive)
REMARK    1  A    between atoms: C_4  and  C_5 
REMARK    2  A    between atoms: C_9  and  N_10 
REMARK       I    between atoms: N_10  and  C_11 
REMARK    3  A    between atoms: C_11  and  C_12 
REMARK    4  A    between atoms: C_12  and  C_13 
REMARK    5  A    between atoms: C_13  and  C_14 
REMARK    6  A    between atoms: C_13  and  C_20 
ROOT
HETATM    1  N   UNL     1      26.603  44.923  52.408  1.00  0.00    -0.312 N 
HETATM    2  C   UNL     1      27.127  45.239  53.643  1.00  0.00     0.224 C 
HETATM    3  O   UNL     1      27.013  46.356  54.158  1.00  0.00    -0.273 OA
HETATM    4  H   UNL     1      26.764  44.019  51.987  1.00  0.00     0.170 HD
ENDROOT
BRANCH   1   5
HETATM    5  C   UNL     1      25.927  45.849  51.633  1.00  0.00     0.132 A 
HETATM    6  N   UNL     1      26.278  47.169  51.534  1.00  0.00    -0.261 N 
HETATM    7  N   UNL     1      25.481  47.883  50.723  1.00  0.00    -0.170 NA
HETATM    8  H   UNL     1      27.062  47.620  52.000  1.00  0.00     0.191 HD
HETATM    9  C   UNL     1      24.588  46.985  50.284  1.00  0.00     0.120 A 
HETATM   10  C   UNL     1      24.821  45.684  50.824  1.00  0.00     0.017 A 
HETATM   11  C   UNL     1      24.045  44.449  50.558  1.00  0.00     0.055 C 
BRANCH   9  12
HETATM   12  C   UNL     1      23.491  47.357  49.337  1.00  0.00     0.106 A 
HETATM   13  O   UNL     1      22.887  46.496  48.461  1.00  0.00    -0.313 OA
HETATM   14  C   UNL     1      21.946  47.200  47.775  1.00  0.00     0.050 A 
HETATM   15  C   UNL     1      21.162  46.452  46.773  1.00  0.00     0.076 C 
HETATM   16  C   UNL     1      21.931  48.511  48.200  1.00  0.00     0.035 A 
HETATM   17  C   UNL     1      22.924  48.611  49.203  1.00  0.00     0.042 A 
ENDBRANCH   9  12
ENDBRANCH   1   5
BRANCH   2  18
HETATM   18  C   UNL     1      27.854  44.138  54.410  1.00  0.00     0.116 C 
BRANCH  18  19
HETATM   19  C   UNL     1      29.394  44.078  54.362  1.00  0.00     0.049 C 
BRANCH  19  20
HETATM   20  C   UNL     1      30.087  44.326  55.699  1.00  0.00    -0.050 A 
HETATM   21  C   UNL     1      31.078  43.473  56.208  1.00  0.00     0.008 A 
HETATM   22  C   UNL     1      31.661  43.722  57.453  1.00  0.00     0.001 A 
HETATM   23  C   UNL     1      31.272  44.831  58.201  1.00  0.00     0.000 A 
HETATM   24  C   UNL     1      30.307  45.700  57.701  1.00  0.00     0.001 A 
HETATM   25  C   UNL     1      29.721  45.454  56.458  1.00  0.00     0.008 A 
ENDBRANCH  19  20
BRANCH  19  26
HETATM   26  C   UNL     1      29.825  42.789  53.676  1.00  0.00    -0.027 C 
HETATM   27  C   UNL     1      29.253  42.176  52.631  1.00  0.00     0.007 C 
ENDBRANCH  19  26
ENDBRANCH  18  19
ENDBRANCH   2  18
TORSDOF 6
ENDMDL
MODEL 3
REMARK VINA RESULT:      -8.6     15.979     18.210
REMARK  6 active torsions:
REMARK  status: ('A' for Active; 'I' for Inactive)
REMARK    1  A    between atoms: C_4  and  C_5 
REMARK    2  A    between atoms: C_9  and  N_10 
REMARK       I    between atoms: N_10  and  C_11 
REMARK    3  A    between atoms: C_11  and  C_12 
REMARK    4  A    between atoms: C_12  and  C_13 
REMARK    5  A    between atoms: C_13  and  C_14 
REMARK    6  A    between atoms: C_13  and  C_20 
ROOT
HETATM    1  N   UNL     1      37.326  46.010  63.592  1.00  0.00    -0.312 N 
HETATM    2  C   UNL     1      36.956  46.849  64.621  1.00  0.00     0.224 C 
HETATM    3  O   UNL     1      36.678  46.443  65.754  1.00  0.00    -0.273 OA
HETATM    4  H   UNL     1      37.490  46.364  62.660  1.00  0.00     0.170 HD
ENDROOT
BRANCH   1   5
HETATM    5  C   UNL     1      37.389  44.636  63.744  1.00  0.00     0.132 A 
HETATM    6  N   UNL     1      36.339  43.862  64.165  1.00  0.00    -0.261 N 
HETATM    7  N   UNL     1      36.627  42.552  64.238  1.00  0.00    -0.170 NA
HETATM    8  H   UNL     1      35.407  44.190  64.405  1.00  0.00     0.191 HD
HETATM    9  C   UNL     1      37.908  42.485  63.847  1.00  0.00     0.120 A 
HETATM   10  C   UNL     1      38.439  43.769  63.521  1.00  0.00     0.017 A 
HETATM   11  C   UNL     1      39.810  44.080  63.046  1.00  0.00     0.055 C 
BRANCH   9  12
HETATM   12  C   UNL     1      38.648  41.187  63.777  1.00  0.00     0.106 A 
HETATM   13  O   UNL     1      38.944  40.396  64.854  1.00  0.00    -0.313 OA
HETATM   14  C   UNL     1      39.621  39.309  64.392  1.00  0.00     0.050 A 
HETATM   15  C   UNL     1      40.033  38.311  65.398  1.00  0.00     0.076 C 
HETATM   16  C   UNL     1      39.765  39.386  63.024  1.00  0.00     0.035 A 
HETATM   17  C   UNL     1      39.140  40.594  62.630  1.00  0.00     0.042 A 
ENDBRANCH   9  12
ENDBRANCH   1   5
BRANCH   2  18
HETATM   18  C   UNL     1      36.921  48.348  64.339  1.00  0.00     0.116 C 
BRANCH  18  19
HETATM   19  C   UNL     1      38.063  49.240  64.866  1.00  0.00     0.049 C 
BRANCH  19  20
HETATM   20  C   UNL     1      37.728  50.032  66.127  1.00  0.00    -0.050 A 
HETATM   21  C   UNL     1      37.234  49.425  67.293  1.00  0.00     0.008 A 
HETATM   22  C   UNL     1      36.910  50.194  68.413  1.00  0.00     0.001 A 
HETATM   23  C   UNL     1      37.084  51.575  68.389  1.00  0.00     0.000 A 
HETATM   24  C   UNL     1      37.593  52.191  67.250  1.00  0.00     0.001 A 
HETATM   25  C   UNL     1      37.918  51.426  66.129  1.00  0.00     0.008 A 
ENDBRANCH  19  20
BRANCH  19  26
HETATM   26  C   UNL     1      39.336  48.413  64.979  1.00  0.00    -0.027 C 
HETATM   27  C   UNL     1      40.416  48.655  65.733  1.00  0.00     0.007 C 
ENDBRANCH  19  26
ENDBRANCH  18  19
ENDBRANCH   2  18
TORSDOF 6
ENDMDL
MODEL 4
REMARK VINA RESULT:      -8.5      4.338      6.643
REMARK  6 active torsions:
REMARK  status: ('A' for Active; 'I' for Inactive)
REMARK    1  A    between atoms: C_4  and  C_5 
REMARK    2  A    between atoms: C_9  and  N_10 
REMARK       I    between atoms: N_10  and  C_11 
REMARK    3  A    between atoms: C_11  and  C_12 
REMARK    4  A    between atoms: C_12  and  C_13 
REMARK    5  A    between atoms: C_13  and  C_14 
REMARK    6  A    between atoms: C_13  and  C_20 
ROOT
HETATM    1  N   UNL     1      28.164  41.584  52.819  1.00  0.00    -0.312 N 
HETATM    2  C   UNL     1      29.211  42.285  53.379  1.00  0.00     0.224 C 
HETATM    3  O   UNL     1      30.338  42.329  52.875  1.00  0.00    -0.273 OA
HETATM    4  H   UNL     1      27.271  41.517  53.285  1.00  0.00     0.170 HD
ENDROOT
BRANCH   1   5
HETATM    5  C   UNL     1      28.305  40.850  51.655  1.00  0.00     0.132 A 
HETATM    6  N   UNL     1      28.999  39.672  51.570  1.00  0.00    -0.261 N 
HETATM    7  N   UNL     1      29.002  39.132  50.340  1.00  0.00    -0.170 NA
HETATM    8  H   UNL     1      29.479  39.200  52.332  1.00  0.00     0.191 HD
HETATM    9  C   UNL     1      28.280  39.995  49.612  1.00  0.00     0.120 A 
HETATM   10  C   UNL     1      27.813  41.098  50.389  1.00  0.00     0.017 A 
HETATM   11  C   UNL     1      26.983  42.236  49.926  1.00  0.00     0.055 C 
BRANCH   9  12
HETATM   12  C   UNL     1      28.023  39.780  48.154  1.00  0.00     0.106 A 
HETATM   13  O   UNL     1      28.356  40.663  47.161  1.00  0.00    -0.313 OA
HETATM   14  C   UNL     1      27.964  40.117  45.978  1.00  0.00     0.050 A 
HETATM   15  C   UNL     1      28.239  40.908  44.763  1.00  0.00     0.076 C 
HETATM   16  C   UNL     1      27.380  38.888  46.192  1.00  0.00     0.035 A 
HETATM   17  C   UNL     1      27.418  38.672  47.591  1.00  0.00     0.042 A 
ENDBRANCH   9  12
ENDBRANCH   1   5
BRANCH   2  18
HETATM   18  C   UNL     1      28.942  43.060  54.665  1.00  0.00     0.116 C 
BRANCH  18  19
HETATM   19  C   UNL     1      29.442  44.513  54.787  1.00  0.00     0.049 C 
BRANCH  19  20
HETATM   20  C   UNL     1      28.348  45.575  54.714  1.00  0.00    -0.050 A 
HETATM   21  C   UNL     1      28.488  46.848  55.290  1.00  0.00     0.008 A 
HETATM   22  C   UNL     1      27.447  47.777  55.226  1.00  0.00     0.001 A 
HETATM   23  C   UNL     1      26.257  47.453  54.579  1.00  0.00     0.000 A 
HETATM   24  C   UNL     1      26.109  46.204  53.984  1.00  0.00     0.001 A 
HETATM   25  C   UNL     1      27.147  45.273  54.045  1.00  0.00     0.008 A 
ENDBRANCH  19  20
BRANCH  19  26
HETATM   26  C   UNL     1      30.337  44.636  56.012  1.00  0.00    -0.027 C 
HETATM   27  C   UNL     1      31.194  43.732  56.505  1.00  0.00     0.007 C 
ENDBRANCH  19  26
ENDBRANCH  18  19
ENDBRANCH   2  18
TORSDOF 6
ENDMDL
MODEL 5
REMARK VINA RESULT:      -8.5      2.194      2.896
REMARK  6 active torsions:
REMARK  status: ('A' for Active; 'I' for Inactive)
REMARK    1  A    between atoms: C_4  and  C_5 
REMARK    2  A    between atoms: C_9  and  N_10 
REMARK       I    between atoms: N_10  and  C_11 
REMARK    3  A    between atoms: C_11  and  C_12 
REMARK    4  A    between atoms: C_12  and  C_13 
REMARK    5  A    between atoms: C_13  and  C_14 
REMARK    6  A    between atoms: C_13  and  C_20 
ROOT
HETATM    1  N   UNL     1      26.332  45.008  52.720  1.00  0.00    -0.312 N 
HETATM    2  C   UNL     1      26.415  44.590  54.030  1.00  0.00     0.224 C 
HETATM    3  O   UNL     1      25.634  43.772  54.527  1.00  0.00    -0.273 OA
HETATM    4  H   UNL     1      26.948  45.722  52.358  1.00  0.00     0.170 HD
ENDROOT
BRANCH   1   5
HETATM    5  C   UNL     1      25.345  44.559  51.861  1.00  0.00     0.132 A 
HETATM    6  N   UNL     1      24.876  43.272  51.838  1.00  0.00    -0.261 N 
HETATM    7  N   UNL     1      23.915  43.062  50.924  1.00  0.00    -0.170 NA
HETATM    8  H   UNL     1      25.183  42.508  52.435  1.00  0.00     0.191 HD
HETATM    9  C   UNL     1      23.760  44.260  50.343  1.00  0.00     0.120 A 
HETATM   10  C   UNL     1      24.635  45.244  50.895  1.00  0.00     0.017 A 
HETATM   11  C   UNL     1      24.738  46.672  50.510  1.00  0.00     0.055 C 
BRANCH   9  12
HETATM   12  C   UNL     1      22.769  44.486  49.245  1.00  0.00     0.106 A 
HETATM   13  O   UNL     1      21.416  44.598  49.422  1.00  0.00    -0.313 OA
HETATM   14  C   UNL     1      20.857  44.796  48.197  1.00  0.00     0.050 A 
HETATM   15  C   UNL     1      19.390  44.953  48.160  1.00  0.00     0.076 C 
HETATM   16  C   UNL     1      21.834  44.815  47.227  1.00  0.00     0.035 A 
HETATM   17  C   UNL     1      23.063  44.616  47.901  1.00  0.00     0.042 A 
ENDBRANCH   9  12
ENDBRANCH   1   5
BRANCH   2  18
HETATM   18  C   UNL     1      27.546  45.152  54.887  1.00  0.00     0.116 C 
BRANCH  18  19
HETATM   19  C   UNL     1      28.990  44.672  54.636  1.00  0.00     0.049 C 
BRANCH  19  20
HETATM   20  C   UNL     1      29.879  44.641  55.876  1.00  0.00    -0.050 A 
HETATM   21  C   UNL     1      29.775  45.589  56.906  1.00  0.00     0.008 A 
HETATM   22  C   UNL     1      30.633  45.540  58.008  1.00  0.00     0.001 A 
HETATM   23  C   UNL     1      31.597  44.540  58.102  1.00  0.00     0.000 A 
HETATM   24  C   UNL     1      31.700  43.579  57.101  1.00  0.00     0.001 A 
HETATM   25  C   UNL     1      30.845  43.625  55.998  1.00  0.00     0.008 A 
ENDBRANCH  19  20
BRANCH  19  26
HETATM   26  C   UNL     1      28.958  43.358  53.869  1.00  0.00    -0.027 C 
HETATM   27  C   UNL     1      29.711  42.990  52.824  1.00  0.00     0.007 C 
ENDBRANCH  19  26
ENDBRANCH  18  19
ENDBRANCH   2  18
TORSDOF 6
ENDMDL
MODEL 6
REMARK VINA RESULT:      -8.2      4.476      7.188
REMARK  6 active torsions:
REMARK  status: ('A' for Active; 'I' for Inactive)
REMARK    1  A    between atoms: C_4  and  C_5 
REMARK    2  A    between atoms: C_9  and  N_10 
REMARK       I    between atoms: N_10  and  C_11 
REMARK    3  A    between atoms: C_11  and  C_12 
REMARK    4  A    between atoms: C_12  and  C_13 
REMARK    5  A    between atoms: C_13  and  C_14 
REMARK    6  A    between atoms: C_13  and  C_20 
ROOT
HETATM    1  N   UNL     1      21.774  48.190  49.347  1.00  0.00    -0.312 N 
HETATM    2  C   UNL     1      23.114  48.462  49.518  1.00  0.00     0.224 C 
HETATM    3  O   UNL     1      23.582  49.604  49.468  1.00  0.00    -0.273 OA
HETATM    4  H   UNL     1      21.430  47.241  49.334  1.00  0.00     0.170 HD
ENDROOT
BRANCH   1   5
HETATM    5  C   UNL     1      20.847  49.181  49.079  1.00  0.00     0.132 A 
HETATM    6  N   UNL     1      21.068  50.228  48.223  1.00  0.00    -0.261 N 
HETATM    7  N   UNL     1      20.028  51.069  48.115  1.00  0.00    -0.170 NA
HETATM    8  H   UNL     1      21.916  50.399  47.688  1.00  0.00     0.191 HD
HETATM    9  C   UNL     1      19.104  50.540  48.930  1.00  0.00     0.120 A 
HETATM   10  C   UNL     1      19.565  49.347  49.563  1.00  0.00     0.017 A 
HETATM   11  C   UNL     1      18.819  48.490  50.517  1.00  0.00     0.055 C 
BRANCH   9  12
HETATM   12  C   UNL     1      17.760  51.168  49.117  1.00  0.00     0.106 A 
HETATM   13  O   UNL     1      17.508  52.261  49.902  1.00  0.00    -0.313 OA
HETATM   14  C   UNL     1      16.176  52.530  49.817  1.00  0.00     0.050 A 
HETATM   15  C   UNL     1      15.687  53.689  50.589  1.00  0.00     0.076 C 
HETATM   16  C   UNL     1      15.561  51.623  48.983  1.00  0.00     0.035 A 
HETATM   17  C   UNL     1      16.579  50.748  48.534  1.00  0.00     0.042 A 
ENDBRANCH   9  12
ENDBRANCH   1   5
BRANCH   2  18
HETATM   18  C   UNL     1      24.047  47.290  49.809  1.00  0.00     0.116 C 
BRANCH  18  19
HETATM   19  C   UNL     1      25.301  47.523  50.677  1.00  0.00     0.049 C 
BRANCH  19  20
HETATM   20  C   UNL     1      25.429  46.591  51.879  1.00  0.00    -0.050 A 
HETATM   21  C   UNL     1      25.142  45.219  51.807  1.00  0.00     0.008 A 
HETATM   22  C   UNL     1      25.242  44.410  52.942  1.00  0.00     0.001 A 
HETATM   23  C   UNL     1      25.641  44.957  54.159  1.00  0.00     0.000 A 
HETATM   24  C   UNL     1      25.951  46.311  54.243  1.00  0.00     0.001 A 
HETATM   25  C   UNL     1      25.852  47.122  53.112  1.00  0.00     0.008 A 
ENDBRANCH  19  20
BRANCH  19  26
HETATM   26  C   UNL     1      26.533  47.548  49.783  1.00  0.00    -0.027 C 
HETATM   27  C   UNL     1      27.222  48.613  49.353  1.00  0.00     0.007 C 
ENDBRANCH  19  26
ENDBRANCH  18  19
ENDBRANCH   2  18
TORSDOF 6
ENDMDL
MODEL 7
REMARK VINA RESULT:      -8.1      4.754      7.738
REMARK  6 active torsions:
REMARK  status: ('A' for Active; 'I' for Inactive)
REMARK    1  A    between atoms: C_4  and  C_5 
REMARK    2  A    between atoms: C_9  and  N_10 
REMARK       I    between atoms: N_10  and  C_11 
REMARK    3  A    between atoms: C_11  and  C_12 
REMARK    4  A    between atoms: C_12  and  C_13 
REMARK    5  A    between atoms: C_13  and  C_14 
REMARK    6  A    between atoms: C_13  and  C_20 
ROOT
HETATM    1  N   UNL     1      27.677  41.604  51.962  1.00  0.00    -0.312 N 
HETATM    2  C   UNL     1      27.882  41.622  53.325  1.00  0.00     0.224 C 
HETATM    3  O   UNL     1      28.394  40.683  53.942  1.00  0.00    -0.273 OA
HETATM    4  H   UNL     1      27.202  42.362  51.494  1.00  0.00     0.170 HD
ENDROOT
BRANCH   1   5
HETATM    5  C   UNL     1      28.009  40.513  51.179  1.00  0.00     0.132 A 
HETATM    6  N   UNL     1      29.141  39.760  51.353  1.00  0.00    -0.261 N 
HETATM    7  N   UNL     1      29.258  38.748  50.478  1.00  0.00    -0.170 NA
HETATM    8  H   UNL     1      29.855  39.902  52.062  1.00  0.00     0.191 HD
HETATM    9  C   UNL     1      28.158  38.854  49.719  1.00  0.00     0.120 A 
HETATM   10  C   UNL     1      27.333  39.949  50.116  1.00  0.00     0.017 A 
HETATM   11  C   UNL     1      26.043  40.366  49.515  1.00  0.00     0.055 C 
BRANCH   9  12
HETATM   12  C   UNL     1      27.877  37.908  48.595  1.00  0.00     0.106 A 
HETATM   13  O   UNL     1      26.895  36.953  48.602  1.00  0.00    -0.313 OA
HETATM   14  C   UNL     1      26.953  36.296  47.411  1.00  0.00     0.050 A 
HETATM   15  C   UNL     1      25.964  35.220  47.204  1.00  0.00     0.076 C 
HETATM   16  C   UNL     1      27.962  36.816  46.630  1.00  0.00     0.035 A 
HETATM   17  C   UNL     1      28.555  37.851  47.392  1.00  0.00     0.042 A 
ENDBRANCH   9  12
ENDBRANCH   1   5
BRANCH   2  18
HETATM   18  C   UNL     1      27.478  42.880  54.089  1.00  0.00     0.116 C 
BRANCH  18  19
HETATM   19  C   UNL     1      28.409  44.108  54.064  1.00  0.00     0.049 C 
BRANCH  19  20
HETATM   20  C   UNL     1      27.702  45.451  54.225  1.00  0.00    -0.050 A 
HETATM   21  C   UNL     1      28.165  46.450  55.096  1.00  0.00     0.008 A 
HETATM   22  C   UNL     1      27.466  47.652  55.236  1.00  0.00     0.001 A 
HETATM   23  C   UNL     1      26.304  47.877  54.502  1.00  0.00     0.000 A 
HETATM   24  C   UNL     1      25.844  46.907  53.617  1.00  0.00     0.001 A 
HETATM   25  C   UNL     1      26.539  45.705  53.475  1.00  0.00     0.008 A 
ENDBRANCH  19  20
BRANCH  19  26
HETATM   26  C   UNL     1      29.552  43.893  55.045  1.00  0.00    -0.027 C 
HETATM   27  C   UNL     1      30.721  43.274  54.832  1.00  0.00     0.007 C 
ENDBRANCH  19  26
ENDBRANCH  18  19
ENDBRANCH   2  18
TORSDOF 6
ENDMDL
MODEL 8
REMARK VINA RESULT:      -8.0      5.090      7.689
REMARK  6 active torsions:
REMARK  status: ('A' for Active; 'I' for Inactive)
REMARK    1  A    between atoms: C_4  and  C_5 
REMARK    2  A    between atoms: C_9  and  N_10 
REMARK       I    between atoms: N_10  and  C_11 
REMARK    3  A    between atoms: C_11  and  C_12 
REMARK    4  A    between atoms: C_12  and  C_13 
REMARK    5  A    between atoms: C_13  and  C_14 
REMARK    6  A    between atoms: C_13  and  C_20 
ROOT
HETATM    1  N   UNL     1      28.688  41.478  50.848  1.00  0.00    -0.312 N 
HETATM    2  C   UNL     1      28.774  41.779  52.190  1.00  0.00     0.224 C 
HETATM    3  O   UNL     1      28.771  40.917  53.076  1.00  0.00    -0.273 OA
HETATM    4  H   UNL     1      28.634  42.207  50.151  1.00  0.00     0.170 HD
ENDROOT
BRANCH   1   5
HETATM    5  C   UNL     1      28.563  40.180  50.388  1.00  0.00     0.132 A 
HETATM    6  N   UNL     1      29.244  39.111  50.911  1.00  0.00    -0.261 N 
HETATM    7  N   UNL     1      28.966  37.944  50.309  1.00  0.00    -0.170 NA
HETATM    8  H   UNL     1      29.903  39.138  51.685  1.00  0.00     0.191 HD
HETATM    9  C   UNL     1      28.071  38.276  49.367  1.00  0.00     0.120 A 
HETATM   10  C   UNL     1      27.777  39.673  49.372  1.00  0.00     0.017 A 
HETATM   11  C   UNL     1      26.835  40.397  48.484  1.00  0.00     0.055 C 
BRANCH   9  12
HETATM   12  C   UNL     1      27.478  37.260  48.444  1.00  0.00     0.106 A 
HETATM   13  O   UNL     1      28.007  36.899  47.233  1.00  0.00    -0.313 OA
HETATM   14  C   UNL     1      27.189  35.955  46.693  1.00  0.00     0.050 A 
HETATM   15  C   UNL     1      27.583  35.416  45.377  1.00  0.00     0.076 C 
HETATM   16  C   UNL     1      26.135  35.698  47.542  1.00  0.00     0.035 A 
HETATM   17  C   UNL     1      26.321  36.537  48.666  1.00  0.00     0.042 A 
ENDBRANCH   9  12
ENDBRANCH   1   5
BRANCH   2  18
HETATM   18  C   UNL     1      28.909  43.246  52.584  1.00  0.00     0.116 C 
BRANCH  18  19
HETATM   19  C   UNL     1      28.332  43.721  53.933  1.00  0.00     0.049 C 
BRANCH  19  20
HETATM   20  C   UNL     1      29.372  43.979  55.020  1.00  0.00    -0.050 A 
HETATM   21  C   UNL     1      30.343  43.032  55.378  1.00  0.00     0.008 A 
HETATM   22  C   UNL     1      31.255  43.300  56.402  1.00  0.00     0.001 A 
HETATM   23  C   UNL     1      31.217  44.519  57.074  1.00  0.00     0.000 A 
HETATM   24  C   UNL     1      30.275  45.478  56.717  1.00  0.00     0.001 A 
HETATM   25  C   UNL     1      29.362  45.214  55.694  1.00  0.00     0.008 A 
ENDBRANCH  19  20
BRANCH  19  26
HETATM   26  C   UNL     1      27.389  44.891  53.693  1.00  0.00    -0.027 C 
HETATM   27  C   UNL     1      26.076  44.964  53.950  1.00  0.00     0.007 C 
ENDBRANCH  19  26
ENDBRANCH  18  19
ENDBRANCH   2  18
TORSDOF 6
ENDMDL
MODEL 9
REMARK VINA RESULT:      -7.8     13.045     15.361
REMARK  6 active torsions:
REMARK  status: ('A' for Active; 'I' for Inactive)
REMARK    1  A    between atoms: C_4  and  C_5 
REMARK    2  A    between atoms: C_9  and  N_10 
REMARK       I    between atoms: N_10  and  C_11 
REMARK    3  A    between atoms: C_11  and  C_12 
REMARK    4  A    between atoms: C_12  and  C_13 
REMARK    5  A    between atoms: C_13  and  C_14 
REMARK    6  A    between atoms: C_13  and  C_20 
ROOT
HETATM    1  N   UNL     1      30.306  48.804  39.714  1.00  0.00    -0.312 N 
HETATM    2  C   UNL     1      29.174  48.487  40.433  1.00  0.00     0.224 C 
HETATM    3  O   UNL     1      29.182  48.288  41.652  1.00  0.00    -0.273 OA
HETATM    4  H   UNL     1      30.279  48.902  38.710  1.00  0.00     0.170 HD
ENDROOT
BRANCH   1   5
HETATM    5  C   UNL     1      31.554  48.899  40.305  1.00  0.00     0.132 A 
HETATM    6  N   UNL     1      32.292  47.821  40.718  1.00  0.00    -0.261 N 
HETATM    7  N   UNL     1      33.474  48.150  41.262  1.00  0.00    -0.170 NA
HETATM    8  H   UNL     1      32.024  46.843  40.638  1.00  0.00     0.191 HD
HETATM    9  C   UNL     1      33.495  49.488  41.193  1.00  0.00     0.120 A 
HETATM   10  C   UNL     1      32.311  50.016  40.596  1.00  0.00     0.017 A 
HETATM   11  C   UNL     1      31.988  51.442  40.349  1.00  0.00     0.055 C 
BRANCH   9  12
HETATM   12  C   UNL     1      34.654  50.289  41.697  1.00  0.00     0.106 A 
HETATM   13  O   UNL     1      34.623  51.104  42.797  1.00  0.00    -0.313 OA
HETATM   14  C   UNL     1      35.859  51.657  42.933  1.00  0.00     0.050 A 
HETATM   15  C   UNL     1      36.050  52.573  44.075  1.00  0.00     0.076 C 
HETATM   16  C   UNL     1      36.693  51.208  41.933  1.00  0.00     0.035 A 
HETATM   17  C   UNL     1      35.918  50.330  41.139  1.00  0.00     0.042 A 
ENDBRANCH   9  12
ENDBRANCH   1   5
BRANCH   2  18
HETATM   18  C   UNL     1      27.850  48.410  39.677  1.00  0.00     0.116 C 
BRANCH  18  19
HETATM   19  C   UNL     1      26.913  49.634  39.673  1.00  0.00     0.049 C 
BRANCH  19  20
HETATM   20  C   UNL     1      27.620  50.982  39.785  1.00  0.00    -0.050 A 
HETATM   21  C   UNL     1      28.204  51.625  38.682  1.00  0.00     0.008 A 
HETATM   22  C   UNL     1      28.870  52.843  38.839  1.00  0.00     0.001 A 
HETATM   23  C   UNL     1      28.953  53.441  40.094  1.00  0.00     0.000 A 
HETATM   24  C   UNL     1      28.359  52.829  41.193  1.00  0.00     0.001 A 
HETATM   25  C   UNL     1      27.694  51.612  41.041  1.00  0.00     0.008 A 
ENDBRANCH  19  20
BRANCH  19  26
HETATM   26  C   UNL     1      25.962  49.535  38.488  1.00  0.00    -0.027 C 
HETATM   27  C   UNL     1      24.632  49.697  38.478  1.00  0.00     0.007 C 
ENDBRANCH  19  26
ENDBRANCH  18  19
ENDBRANCH   2  18
TORSDOF 6
ENDMDL
MODEL 10
REMARK VINA RESULT:      -7.8     16.060     18.408
REMARK  6 active torsions:
REMARK  status: ('A' for Active; 'I' for Inactive)
REMARK    1  A    between atoms: C_4  and  C_5 
REMARK    2  A    between atoms: C_9  and  N_10 
REMARK       I    between atoms: N_10  and  C_11 
REMARK    3  A    between atoms: C_11  and  C_12 
REMARK    4  A    between atoms: C_12  and  C_13 
REMARK    5  A    between atoms: C_13  and  C_14 
REMARK    6  A    between atoms: C_13  and  C_20 
ROOT
HETATM    1  N   UNL     1      37.944  46.102  63.838  1.00  0.00    -0.312 N 
HETATM    2  C   UNL     1      36.991  46.824  64.523  1.00  0.00     0.224 C 
HETATM    3  O   UNL     1      36.040  46.298  65.110  1.00  0.00    -0.273 OA
HETATM    4  H   UNL     1      38.677  46.563  63.318  1.00  0.00     0.170 HD
ENDROOT
BRANCH   1   5
HETATM    5  C   UNL     1      37.894  44.723  63.735  1.00  0.00     0.132 A 
HETATM    6  N   UNL     1      36.766  44.019  63.403  1.00  0.00    -0.261 N 
HETATM    7  N   UNL     1      36.950  42.690  63.361  1.00  0.00    -0.170 NA
HETATM    8  H   UNL     1      35.852  44.412  63.192  1.00  0.00     0.191 HD
HETATM    9  C   UNL     1      38.245  42.537  63.673  1.00  0.00     0.120 A 
HETATM   10  C   UNL     1      38.891  43.786  63.918  1.00  0.00     0.017 A 
HETATM   11  C   UNL     1      40.312  44.007  64.278  1.00  0.00     0.055 C 
BRANCH   9  12
HETATM   12  C   UNL     1      38.889  41.189  63.743  1.00  0.00     0.106 A 
HETATM   13  O   UNL     1      39.138  40.499  64.900  1.00  0.00    -0.313 OA
HETATM   14  C   UNL     1      39.730  39.322  64.556  1.00  0.00     0.050 A 
HETATM   15  C   UNL     1      40.079  38.412  65.664  1.00  0.00     0.076 C 
HETATM   16  C   UNL     1      39.867  39.241  63.188  1.00  0.00     0.035 A 
HETATM   17  C   UNL     1      39.326  40.441  62.666  1.00  0.00     0.042 A 
ENDBRANCH   9  12
ENDBRANCH   1   5
BRANCH   2  18
HETATM   18  C   UNL     1      37.146  48.341  64.572  1.00  0.00     0.116 C 
BRANCH  18  19
HETATM   19  C   UNL     1      37.834  48.989  65.791  1.00  0.00     0.049 C 
BRANCH  19  20
HETATM   20  C   UNL     1      39.174  48.367  66.174  1.00  0.00    -0.050 A 
HETATM   21  C   UNL     1      40.281  48.362  65.311  1.00  0.00     0.008 A 
HETATM   22  C   UNL     1      41.479  47.752  65.692  1.00  0.00     0.001 A 
HETATM   23  C   UNL     1      41.592  47.149  66.943  1.00  0.00     0.000 A 
HETATM   24  C   UNL     1      40.512  47.165  67.820  1.00  0.00     0.001 A 
HETATM   25  C   UNL     1      39.313  47.773  67.442  1.00  0.00     0.008 A 
ENDBRANCH  19  20
BRANCH  19  26
HETATM   26  C   UNL     1      37.889  50.497  65.594  1.00  0.00    -0.027 C 
HETATM   27  C   UNL     1      37.941  51.453  66.532  1.00  0.00     0.007 C 
ENDBRANCH  19  26
ENDBRANCH  18  19
ENDBRANCH   2  18
TORSDOF 6
ENDMDL
