MODEL 1
REMARK VINA RESULT:      -9.6      0.000      0.000
REMARK  6 active torsions:
REMARK  status: ('A' for Active; 'I' for Inactive)
REMARK    1  A    between atoms: C_5  and  N_6 
REMARK    2  A    between atoms: C_8  and  C_9 
REMARK    3  A    between atoms: C_16  and  C_17 
REMARK    4  A    between atoms: C_17  and  N_18 
REMARK    5  A    between atoms: C_22  and  N_23 
REMARK    6  A    between atoms: C_26  and  O_27 
ROOT
HETATM    1  N   UNL     1      27.716  44.037  53.397  1.00  0.00    -0.244 N 
HETATM    2  N   UNL     1      27.632  43.097  52.431  1.00  0.00    -0.167 NA
HETATM    3  C   UNL     1      26.547  43.388  51.711  1.00  0.00     0.097 A 
HETATM    4  C   UNL     1      25.816  44.456  52.300  1.00  0.00     0.016 A 
HETATM    5  C   UNL     1      26.625  44.883  53.339  1.00  0.00     0.130 A 
ENDROOT
BRANCH   4   6
HETATM    6  C   UNL     1      24.503  45.012  51.897  1.00  0.00     0.277 C 
BRANCH   6   7
HETATM    7  N   UNL     1      24.515  45.791  50.561  1.00  0.00    -0.067 N 
HETATM    8  H   UNL     1      25.269  45.335  50.019  1.00  0.00     0.280 HD
HETATM    9  C   UNL     1      23.234  45.622  49.793  1.00  0.00     0.237 C 
HETATM   10  C   UNL     1      23.248  46.443  48.521  1.00  0.00     0.061 C 
HETATM   11  C   UNL     1      23.540  47.925  48.732  1.00  0.00     0.191 C 
HETATM   12  C   UNL     1      24.800  48.108  49.583  1.00  0.00     0.061 C 
HETATM   13  C   UNL     1      24.907  47.222  50.822  1.00  0.00     0.237 C 
BRANCH  11  14
HETATM   14  N   UNL     1      22.341  48.757  49.189  1.00  0.00    -0.064 N 
HETATM   15  H   UNL     1      22.451  48.840  50.224  1.00  0.00     0.280 HD
HETATM   16  C   UNL     1      22.443  50.251  48.805  1.00  0.00     0.266 C 
HETATM   17  C   UNL     1      21.529  51.035  49.750  1.00  0.00     0.144 C 
HETATM   18  C   UNL     1      20.083  50.594  49.554  1.00  0.00     0.035 C 
HETATM   19  C   UNL     1      19.929  49.095  49.798  1.00  0.00     0.030 C 
HETATM   20  C   UNL     1      20.930  48.250  49.015  1.00  0.00     0.235 C 
BRANCH  17  21
HETATM   21  O   UNL     1      21.943  50.689  51.077  1.00  0.00    -0.394 OA
HETATM   22  H   UNL     1      21.137  50.438  51.578  1.00  0.00     0.210 HD
ENDBRANCH  17  21
ENDBRANCH  11  14
ENDBRANCH   6   7
ENDBRANCH   4   6
BRANCH   3  23
HETATM   23  C   UNL     1      26.221  42.617  50.516  1.00  0.00    -0.005 A 
HETATM   24  C   UNL     1      24.909  42.171  50.302  1.00  0.00     0.017 A 
HETATM   25  C   UNL     1      24.596  41.441  49.153  1.00  0.00     0.043 A 
HETATM   26  C   UNL     1      25.593  41.152  48.229  1.00  0.00     0.116 A 
HETATM   27  F   UNL     1      25.291  40.458  47.126  1.00  0.00    -0.206 F 
HETATM   28  C   UNL     1      26.904  41.567  48.438  1.00  0.00     0.043 A 
HETATM   29  C   UNL     1      27.222  42.295  49.586  1.00  0.00     0.017 A 
ENDBRANCH   3  23
BRANCH   1  30
HETATM   30  C   UNL     1      28.777  44.044  54.343  1.00  0.00     0.058 A 
HETATM   31  C   UNL     1      29.655  42.953  54.399  1.00  0.00     0.032 A 
HETATM   32  C   UNL     1      30.697  42.933  55.332  1.00  0.00     0.009 A 
HETATM   33  C   UNL     1      30.871  43.994  56.224  1.00  0.00    -0.062 A 
HETATM   34  C   UNL     1      31.997  43.989  57.218  1.00  0.00     0.048 C 
HETATM   35  C   UNL     1      30.000  45.087  56.161  1.00  0.00     0.009 A 
HETATM   36  C   UNL     1      28.958  45.116  55.227  1.00  0.00     0.032 A 
ENDBRANCH   1  30
TORSDOF 6
ENDMDL
MODEL 2
REMARK VINA RESULT:      -9.4      4.554      9.928
REMARK  6 active torsions:
REMARK  status: ('A' for Active; 'I' for Inactive)
REMARK    1  A    between atoms: C_5  and  N_6 
REMARK    2  A    between atoms: C_8  and  C_9 
REMARK    3  A    between atoms: C_16  and  C_17 
REMARK    4  A    between atoms: C_17  and  N_18 
REMARK    5  A    between atoms: C_22  and  N_23 
REMARK    6  A    between atoms: C_26  and  O_27 
ROOT
HETATM    1  N   UNL     1      20.952  49.471  48.883  1.00  0.00    -0.244 N 
HETATM    2  N   UNL     1      22.212  49.863  49.172  1.00  0.00    -0.167 NA
HETATM    3  C   UNL     1      23.018  48.874  48.783  1.00  0.00     0.097 A 
HETATM    4  C   UNL     1      22.267  47.742  48.362  1.00  0.00     0.016 A 
HETATM    5  C   UNL     1      20.955  48.183  48.382  1.00  0.00     0.130 A 
ENDROOT
BRANCH   4   6
HETATM    6  C   UNL     1      22.758  46.401  47.966  1.00  0.00     0.277 C 
BRANCH   6   7
HETATM    7  N   UNL     1      22.993  45.426  49.143  1.00  0.00    -0.067 N 
HETATM    8  H   UNL     1      22.501  45.875  49.935  1.00  0.00     0.280 HD
HETATM    9  C   UNL     1      22.354  44.086  48.908  1.00  0.00     0.237 C 
HETATM   10  C   UNL     1      22.652  43.133  50.046  1.00  0.00     0.061 C 
HETATM   11  C   UNL     1      24.137  42.959  50.349  1.00  0.00     0.191 C 
HETATM   12  C   UNL     1      24.815  44.322  50.510  1.00  0.00     0.061 C 
HETATM   13  C   UNL     1      24.465  45.374  49.460  1.00  0.00     0.237 C 
BRANCH  11  14
HETATM   14  N   UNL     1      24.872  41.991  49.420  1.00  0.00    -0.064 N 
HETATM   15  H   UNL     1      25.390  42.603  48.751  1.00  0.00     0.280 HD
HETATM   16  C   UNL     1      26.071  41.281  50.092  1.00  0.00     0.266 C 
HETATM   17  C   UNL     1      27.011  40.810  48.979  1.00  0.00     0.144 C 
HETATM   18  C   UNL     1      26.296  39.796  48.093  1.00  0.00     0.035 C 
HETATM   19  C   UNL     1      25.027  40.393  47.490  1.00  0.00     0.030 C 
HETATM   20  C   UNL     1      24.112  41.041  48.527  1.00  0.00     0.235 C 
BRANCH  17  21
HETATM   21  O   UNL     1      27.315  41.973  48.199  1.00  0.00    -0.394 OA
HETATM   22  H   UNL     1      27.521  42.699  48.826  1.00  0.00     0.210 HD
ENDBRANCH  17  21
ENDBRANCH  11  14
ENDBRANCH   6   7
ENDBRANCH   4   6
BRANCH   3  23
HETATM   23  C   UNL     1      24.467  49.022  48.863  1.00  0.00    -0.005 A 
HETATM   24  C   UNL     1      25.129  49.935  48.031  1.00  0.00     0.017 A 
HETATM   25  C   UNL     1      26.515  50.082  48.114  1.00  0.00     0.043 A 
HETATM   26  C   UNL     1      27.235  49.310  49.020  1.00  0.00     0.116 A 
HETATM   27  F   UNL     1      28.562  49.456  49.103  1.00  0.00    -0.206 F 
HETATM   28  C   UNL     1      26.596  48.382  49.835  1.00  0.00     0.043 A 
HETATM   29  C   UNL     1      25.211  48.231  49.754  1.00  0.00     0.017 A 
ENDBRANCH   3  23
BRANCH   1  30
HETATM   30  C   UNL     1      19.831  50.301  49.150  1.00  0.00     0.058 A 
HETATM   31  C   UNL     1      19.882  51.659  48.804  1.00  0.00     0.032 A 
HETATM   32  C   UNL     1      18.795  52.497  49.071  1.00  0.00     0.009 A 
HETATM   33  C   UNL     1      17.647  51.995  49.691  1.00  0.00    -0.062 A 
HETATM   34  C   UNL     1      16.468  52.883  49.966  1.00  0.00     0.048 C 
HETATM   35  C   UNL     1      17.593  50.638  50.026  1.00  0.00     0.009 A 
HETATM   36  C   UNL     1      18.675  49.793  49.758  1.00  0.00     0.032 A 
ENDBRANCH   1  30
TORSDOF 6
ENDMDL
MODEL 3
REMARK VINA RESULT:      -9.4      3.604      7.480
REMARK  6 active torsions:
REMARK  status: ('A' for Active; 'I' for Inactive)
REMARK    1  A    between atoms: C_5  and  N_6 
REMARK    2  A    between atoms: C_8  and  C_9 
REMARK    3  A    between atoms: C_16  and  C_17 
REMARK    4  A    between atoms: C_17  and  N_18 
REMARK    5  A    between atoms: C_22  and  N_23 
REMARK    6  A    between atoms: C_26  and  O_27 
ROOT
HETATM    1  N   UNL     1      27.367  44.432  52.818  1.00  0.00    -0.244 N 
HETATM    2  N   UNL     1      27.226  45.598  52.150  1.00  0.00    -0.167 NA
HETATM    3  C   UNL     1      26.167  45.454  51.353  1.00  0.00     0.097 A 
HETATM    4  C   UNL     1      25.684  44.117  51.384  1.00  0.00     0.016 A 
HETATM    5  C   UNL     1      26.437  43.512  52.375  1.00  0.00     0.130 A 
ENDROOT
BRANCH   4   6
HETATM    6  C   UNL     1      24.609  43.502  50.570  1.00  0.00     0.277 C 
BRANCH   6   7
HETATM    7  N   UNL     1      25.099  42.777  49.296  1.00  0.00    -0.067 N 
HETATM    8  H   UNL     1      24.819  43.413  48.529  1.00  0.00     0.280 HD
HETATM    9  C   UNL     1      26.596  42.645  49.256  1.00  0.00     0.237 C 
HETATM   10  C   UNL     1      27.044  41.878  48.030  1.00  0.00     0.061 C 
HETATM   11  C   UNL     1      26.393  40.508  47.873  1.00  0.00     0.191 C 
HETATM   12  C   UNL     1      24.871  40.619  47.993  1.00  0.00     0.061 C 
HETATM   13  C   UNL     1      24.350  41.479  49.141  1.00  0.00     0.237 C 
BRANCH  11  14
HETATM   14  N   UNL     1      27.017  39.400  48.723  1.00  0.00    -0.064 N 
HETATM   15  H   UNL     1      26.484  39.420  49.621  1.00  0.00     0.280 HD
HETATM   16  C   UNL     1      26.652  37.975  48.246  1.00  0.00     0.266 C 
HETATM   17  C   UNL     1      26.846  37.026  49.432  1.00  0.00     0.144 C 
HETATM   18  C   UNL     1      28.310  37.023  49.858  1.00  0.00     0.035 C 
HETATM   19  C   UNL     1      28.776  38.429  50.228  1.00  0.00     0.030 C 
HETATM   20  C   UNL     1      28.460  39.472  49.159  1.00  0.00     0.235 C 
BRANCH  17  21
HETATM   21  O   UNL     1      26.055  37.562  50.500  1.00  0.00    -0.394 OA
HETATM   22  H   UNL     1      26.621  38.190  50.996  1.00  0.00     0.210 HD
ENDBRANCH  17  21
ENDBRANCH  11  14
ENDBRANCH   6   7
ENDBRANCH   4   6
BRANCH   3  23
HETATM   23  C   UNL     1      25.676  46.576  50.560  1.00  0.00    -0.005 A 
HETATM   24  C   UNL     1      24.303  46.725  50.324  1.00  0.00     0.017 A 
HETATM   25  C   UNL     1      23.833  47.804  49.572  1.00  0.00     0.043 A 
HETATM   26  C   UNL     1      24.736  48.724  49.052  1.00  0.00     0.116 A 
HETATM   27  F   UNL     1      24.285  49.761  48.338  1.00  0.00    -0.206 F 
HETATM   28  C   UNL     1      26.104  48.579  49.257  1.00  0.00     0.043 A 
HETATM   29  C   UNL     1      26.577  47.500  50.006  1.00  0.00     0.017 A 
ENDBRANCH   3  23
BRANCH   1  30
HETATM   30  C   UNL     1      28.397  44.240  53.777  1.00  0.00     0.058 A 
HETATM   31  C   UNL     1      28.597  45.204  54.775  1.00  0.00     0.032 A 
HETATM   32  C   UNL     1      29.613  45.041  55.721  1.00  0.00     0.009 A 
HETATM   33  C   UNL     1      30.449  43.922  55.679  1.00  0.00    -0.062 A 
HETATM   34  C   UNL     1      31.534  43.730  56.701  1.00  0.00     0.048 C 
HETATM   35  C   UNL     1      30.244  42.955  54.689  1.00  0.00     0.009 A 
HETATM   36  C   UNL     1      29.225  43.110  53.742  1.00  0.00     0.032 A 
ENDBRANCH   1  30
TORSDOF 6
ENDMDL
MODEL 4
REMARK VINA RESULT:      -9.2      3.033      6.127
REMARK  6 active torsions:
REMARK  status: ('A' for Active; 'I' for Inactive)
REMARK    1  A    between atoms: C_5  and  N_6 
REMARK    2  A    between atoms: C_8  and  C_9 
REMARK    3  A    between atoms: C_16  and  C_17 
REMARK    4  A    between atoms: C_17  and  N_18 
REMARK    5  A    between atoms: C_22  and  N_23 
REMARK    6  A    between atoms: C_26  and  O_27 
ROOT
HETATM    1  N   UNL     1      27.105  40.373  50.019  1.00  0.00    -0.244 N 
HETATM    2  N   UNL     1      28.063  40.782  50.879  1.00  0.00    -0.167 NA
HETATM    3  C   UNL     1      27.533  41.775  51.594  1.00  0.00     0.097 A 
HETATM    4  C   UNL     1      26.247  42.129  51.100  1.00  0.00     0.016 A 
HETATM    5  C   UNL     1      25.984  41.173  50.134  1.00  0.00     0.130 A 
ENDROOT
BRANCH   4   6
HETATM    6  C   UNL     1      25.368  43.244  51.522  1.00  0.00     0.277 C 
BRANCH   6   7
HETATM    7  N   UNL     1      25.959  44.655  51.296  1.00  0.00    -0.067 N 
HETATM    8  H   UNL     1      26.930  44.571  51.643  1.00  0.00     0.280 HD
HETATM    9  C   UNL     1      26.024  45.017  49.838  1.00  0.00     0.237 C 
HETATM   10  C   UNL     1      26.549  46.424  49.648  1.00  0.00     0.061 C 
HETATM   11  C   UNL     1      25.778  47.491  50.420  1.00  0.00     0.191 C 
HETATM   12  C   UNL     1      25.636  47.093  51.891  1.00  0.00     0.061 C 
HETATM   13  C   UNL     1      25.224  45.647  52.158  1.00  0.00     0.237 C 
BRANCH  11  14
HETATM   14  N   UNL     1      24.478  47.948  49.757  1.00  0.00    -0.064 N 
HETATM   15  H   UNL     1      23.906  48.346  50.536  1.00  0.00     0.280 HD
HETATM   16  C   UNL     1      24.638  49.217  48.889  1.00  0.00     0.266 C 
HETATM   17  C   UNL     1      23.257  49.865  48.756  1.00  0.00     0.144 C 
HETATM   18  C   UNL     1      22.309  48.914  48.034  1.00  0.00     0.035 C 
HETATM   19  C   UNL     1      22.196  47.584  48.775  1.00  0.00     0.030 C 
HETATM   20  C   UNL     1      23.550  46.956  49.098  1.00  0.00     0.235 C 
BRANCH  17  21
HETATM   21  O   UNL     1      22.783  50.063  50.094  1.00  0.00    -0.394 OA
HETATM   22  H   UNL     1      22.478  49.193  50.428  1.00  0.00     0.210 HD
ENDBRANCH  17  21
ENDBRANCH  11  14
ENDBRANCH   6   7
ENDBRANCH   4   6
BRANCH   3  23
HETATM   23  C   UNL     1      28.279  42.378  52.693  1.00  0.00    -0.005 A 
HETATM   24  C   UNL     1      27.597  42.958  53.772  1.00  0.00     0.017 A 
HETATM   25  C   UNL     1      28.312  43.529  54.828  1.00  0.00     0.043 A 
HETATM   26  C   UNL     1      29.702  43.526  54.797  1.00  0.00     0.116 A 
HETATM   27  F   UNL     1      30.386  44.067  55.811  1.00  0.00    -0.206 F 
HETATM   28  C   UNL     1      30.393  42.977  53.723  1.00  0.00     0.043 A 
HETATM   29  C   UNL     1      29.683  42.408  52.664  1.00  0.00     0.017 A 
ENDBRANCH   3  23
BRANCH   1  30
HETATM   30  C   UNL     1      27.325  39.304  49.108  1.00  0.00     0.058 A 
HETATM   31  C   UNL     1      27.973  39.558  47.892  1.00  0.00     0.032 A 
HETATM   32  C   UNL     1      28.188  38.524  46.976  1.00  0.00     0.009 A 
HETATM   33  C   UNL     1      27.751  37.226  47.257  1.00  0.00    -0.062 A 
HETATM   34  C   UNL     1      27.991  36.105  46.286  1.00  0.00     0.048 C 
HETATM   35  C   UNL     1      27.112  36.971  48.475  1.00  0.00     0.009 A 
HETATM   36  C   UNL     1      26.899  38.000  49.398  1.00  0.00     0.032 A 
ENDBRANCH   1  30
TORSDOF 6
ENDMDL
MODEL 5
REMARK VINA RESULT:      -9.2      4.123      9.371
REMARK  6 active torsions:
REMARK  status: ('A' for Active; 'I' for Inactive)
REMARK    1  A    between atoms: C_5  and  N_6 
REMARK    2  A    between atoms: C_8  and  C_9 
REMARK    3  A    between atoms: C_16  and  C_17 
REMARK    4  A    between atoms: C_17  and  N_18 
REMARK    5  A    between atoms: C_22  and  N_23 
REMARK    6  A    between atoms: C_26  and  O_27 
ROOT
HETATM    1  N   UNL     1      25.768  45.889  50.219  1.00  0.00    -0.244 N 
HETATM    2  N   UNL     1      26.584  45.838  51.294  1.00  0.00    -0.167 NA
HETATM    3  C   UNL     1      26.873  44.552  51.492  1.00  0.00     0.097 A 
HETATM    4  C   UNL     1      26.117  43.720  50.621  1.00  0.00     0.016 A 
HETATM    5  C   UNL     1      25.471  44.612  49.783  1.00  0.00     0.130 A 
ENDROOT
BRANCH   4   6
HETATM    6  C   UNL     1      26.044  42.240  50.585  1.00  0.00     0.277 C 
BRANCH   6   7
HETATM    7  N   UNL     1      27.313  41.544  50.043  1.00  0.00    -0.067 N 
HETATM    8  H   UNL     1      28.080  42.178  50.326  1.00  0.00     0.280 HD
HETATM    9  C   UNL     1      27.556  40.213  50.699  1.00  0.00     0.237 C 
HETATM   10  C   UNL     1      28.768  39.526  50.107  1.00  0.00     0.061 C 
HETATM   11  C   UNL     1      28.720  39.362  48.591  1.00  0.00     0.191 C 
HETATM   12  C   UNL     1      28.393  40.697  47.916  1.00  0.00     0.061 C 
HETATM   13  C   UNL     1      27.254  41.502  48.539  1.00  0.00     0.237 C 
BRANCH  11  14
HETATM   14  N   UNL     1      27.881  38.181  48.100  1.00  0.00    -0.064 N 
HETATM   15  H   UNL     1      27.049  38.616  47.643  1.00  0.00     0.280 HD
HETATM   16  C   UNL     1      28.490  37.458  46.876  1.00  0.00     0.266 C 
HETATM   17  C   UNL     1      27.356  36.711  46.168  1.00  0.00     0.144 C 
HETATM   18  C   UNL     1      26.772  35.655  47.101  1.00  0.00     0.035 C 
HETATM   19  C   UNL     1      26.259  36.288  48.393  1.00  0.00     0.030 C 
HETATM   20  C   UNL     1      27.285  37.192  49.071  1.00  0.00     0.235 C 
BRANCH  17  21
HETATM   21  O   UNL     1      26.349  37.693  45.892  1.00  0.00    -0.394 OA
HETATM   22  H   UNL     1      26.731  38.331  45.253  1.00  0.00     0.210 HD
ENDBRANCH  17  21
ENDBRANCH  11  14
ENDBRANCH   6   7
ENDBRANCH   4   6
BRANCH   3  23
HETATM   23  C   UNL     1      27.822  44.154  52.526  1.00  0.00    -0.005 A 
HETATM   24  C   UNL     1      27.621  44.549  53.856  1.00  0.00     0.017 A 
HETATM   25  C   UNL     1      28.526  44.161  54.847  1.00  0.00     0.043 A 
HETATM   26  C   UNL     1      29.631  43.390  54.504  1.00  0.00     0.116 A 
HETATM   27  F   UNL     1      30.493  43.013  55.455  1.00  0.00    -0.206 F 
HETATM   28  C   UNL     1      29.857  43.010  53.186  1.00  0.00     0.043 A 
HETATM   29  C   UNL     1      28.957  43.397  52.193  1.00  0.00     0.017 A 
ENDBRANCH   3  23
BRANCH   1  30
HETATM   30  C   UNL     1      25.276  47.122  49.711  1.00  0.00     0.058 A 
HETATM   31  C   UNL     1      23.893  47.306  49.574  1.00  0.00     0.032 A 
HETATM   32  C   UNL     1      23.388  48.506  49.064  1.00  0.00     0.009 A 
HETATM   33  C   UNL     1      24.253  49.533  48.677  1.00  0.00    -0.062 A 
HETATM   34  C   UNL     1      23.720  50.832  48.144  1.00  0.00     0.048 C 
HETATM   35  C   UNL     1      25.633  49.352  48.824  1.00  0.00     0.009 A 
HETATM   36  C   UNL     1      26.145  48.156  49.338  1.00  0.00     0.032 A 
ENDBRANCH   1  30
TORSDOF 6
ENDMDL
MODEL 6
REMARK VINA RESULT:      -8.9      2.538      5.303
REMARK  6 active torsions:
REMARK  status: ('A' for Active; 'I' for Inactive)
REMARK    1  A    between atoms: C_5  and  N_6 
REMARK    2  A    between atoms: C_8  and  C_9 
REMARK    3  A    between atoms: C_16  and  C_17 
REMARK    4  A    between atoms: C_17  and  N_18 
REMARK    5  A    between atoms: C_22  and  N_23 
REMARK    6  A    between atoms: C_26  and  O_27 
ROOT
HETATM    1  N   UNL     1      26.768  42.385  50.534  1.00  0.00    -0.244 N 
HETATM    2  N   UNL     1      27.440  43.045  51.503  1.00  0.00    -0.167 NA
HETATM    3  C   UNL     1      26.619  43.993  51.957  1.00  0.00     0.097 A 
HETATM    4  C   UNL     1      25.433  44.057  51.175  1.00  0.00     0.016 A 
HETATM    5  C   UNL     1      25.539  42.976  50.317  1.00  0.00     0.130 A 
ENDROOT
BRANCH   4   6
HETATM    6  C   UNL     1      24.320  45.032  51.260  1.00  0.00     0.277 C 
BRANCH   6   7
HETATM    7  N   UNL     1      24.150  45.928  50.011  1.00  0.00    -0.067 N 
HETATM    8  H   UNL     1      24.869  45.574  49.357  1.00  0.00     0.280 HD
HETATM    9  C   UNL     1      22.808  45.746  49.359  1.00  0.00     0.237 C 
HETATM   10  C   UNL     1      22.644  46.678  48.178  1.00  0.00     0.061 C 
HETATM   11  C   UNL     1      22.874  48.151  48.503  1.00  0.00     0.191 C 
HETATM   12  C   UNL     1      24.203  48.338  49.241  1.00  0.00     0.061 C 
HETATM   13  C   UNL     1      24.487  47.351  50.371  1.00  0.00     0.237 C 
BRANCH  11  14
HETATM   14  N   UNL     1      21.683  48.858  49.153  1.00  0.00    -0.064 N 
HETATM   15  H   UNL     1      21.943  48.949  50.160  1.00  0.00     0.280 HD
HETATM   16  C   UNL     1      21.577  50.356  48.784  1.00  0.00     0.266 C 
HETATM   17  C   UNL     1      20.748  51.042  49.872  1.00  0.00     0.144 C 
HETATM   18  C   UNL     1      19.339  50.459  49.893  1.00  0.00     0.035 C 
HETATM   19  C   UNL     1      19.373  48.951  50.131  1.00  0.00     0.030 C 
HETATM   20  C   UNL     1      20.320  48.212  49.188  1.00  0.00     0.235 C 
BRANCH  17  21
HETATM   21  O   UNL     1      21.393  50.736  51.114  1.00  0.00    -0.394 OA
HETATM   22  H   UNL     1      22.097  51.406  51.250  1.00  0.00     0.210 HD
ENDBRANCH  17  21
ENDBRANCH  11  14
ENDBRANCH   6   7
ENDBRANCH   4   6
BRANCH   3  23
HETATM   23  C   UNL     1      27.005  44.830  53.088  1.00  0.00    -0.005 A 
HETATM   24  C   UNL     1      26.524  46.142  53.190  1.00  0.00     0.017 A 
HETATM   25  C   UNL     1      26.887  46.940  54.277  1.00  0.00     0.043 A 
HETATM   26  C   UNL     1      27.735  46.427  55.252  1.00  0.00     0.116 A 
HETATM   27  F   UNL     1      28.077  47.190  56.297  1.00  0.00    -0.206 F 
HETATM   28  C   UNL     1      28.240  45.136  55.154  1.00  0.00     0.043 A 
HETATM   29  C   UNL     1      27.882  44.336  54.068  1.00  0.00     0.017 A 
ENDBRANCH   3  23
BRANCH   1  30
HETATM   30  C   UNL     1      27.344  41.287  49.840  1.00  0.00     0.058 A 
HETATM   31  C   UNL     1      28.004  40.285  50.564  1.00  0.00     0.032 A 
HETATM   32  C   UNL     1      28.590  39.203  49.900  1.00  0.00     0.009 A 
HETATM   33  C   UNL     1      28.532  39.110  48.507  1.00  0.00    -0.062 A 
HETATM   34  C   UNL     1      29.144  37.944  47.785  1.00  0.00     0.048 C 
HETATM   35  C   UNL     1      27.865  40.106  47.785  1.00  0.00     0.009 A 
HETATM   36  C   UNL     1      27.272  41.189  48.444  1.00  0.00     0.032 A 
ENDBRANCH   1  30
TORSDOF 6
ENDMDL
MODEL 7
REMARK VINA RESULT:      -8.8      4.590      8.511
REMARK  6 active torsions:
REMARK  status: ('A' for Active; 'I' for Inactive)
REMARK    1  A    between atoms: C_5  and  N_6 
REMARK    2  A    between atoms: C_8  and  C_9 
REMARK    3  A    between atoms: C_16  and  C_17 
REMARK    4  A    between atoms: C_17  and  N_18 
REMARK    5  A    between atoms: C_22  and  N_23 
REMARK    6  A    between atoms: C_26  and  O_27 
ROOT
HETATM    1  N   UNL     1      28.076  43.508  52.787  1.00  0.00    -0.244 N 
HETATM    2  N   UNL     1      26.935  44.047  52.305  1.00  0.00    -0.167 NA
HETATM    3  C   UNL     1      26.592  43.321  51.240  1.00  0.00     0.097 A 
HETATM    4  C   UNL     1      27.603  42.372  50.923  1.00  0.00     0.016 A 
HETATM    5  C   UNL     1      28.504  42.481  51.968  1.00  0.00     0.130 A 
ENDROOT
BRANCH   4   6
HETATM    6  C   UNL     1      27.680  41.455  49.762  1.00  0.00     0.277 C 
BRANCH   6   7
HETATM    7  N   UNL     1      27.622  39.952  50.121  1.00  0.00    -0.067 N 
HETATM    8  H   UNL     1      27.433  39.952  51.138  1.00  0.00     0.280 HD
HETATM    9  C   UNL     1      26.479  39.249  49.444  1.00  0.00     0.237 C 
HETATM   10  C   UNL     1      26.482  37.770  49.763  1.00  0.00     0.061 C 
HETATM   11  C   UNL     1      27.795  37.061  49.447  1.00  0.00     0.191 C 
HETATM   12  C   UNL     1      28.976  37.815  50.066  1.00  0.00     0.061 C 
HETATM   13  C   UNL     1      28.973  39.331  49.883  1.00  0.00     0.237 C 
BRANCH  11  14
HETATM   14  N   UNL     1      27.984  36.685  47.976  1.00  0.00    -0.064 N 
HETATM   15  H   UNL     1      28.461  35.757  47.996  1.00  0.00     0.280 HD
HETATM   16  C   UNL     1      26.670  36.278  47.270  1.00  0.00     0.266 C 
HETATM   17  C   UNL     1      27.044  35.429  46.052  1.00  0.00     0.144 C 
HETATM   18  C   UNL     1      27.868  36.261  45.075  1.00  0.00     0.035 C 
HETATM   19  C   UNL     1      29.129  36.803  45.745  1.00  0.00     0.030 C 
HETATM   20  C   UNL     1      28.851  37.518  47.065  1.00  0.00     0.235 C 
BRANCH  17  21
HETATM   21  O   UNL     1      27.857  34.360  46.550  1.00  0.00    -0.394 OA
HETATM   22  H   UNL     1      27.373  33.523  46.383  1.00  0.00     0.210 HD
ENDBRANCH  17  21
ENDBRANCH  11  14
ENDBRANCH   6   7
ENDBRANCH   4   6
BRANCH   3  23
HETATM   23  C   UNL     1      25.340  43.579  50.538  1.00  0.00    -0.005 A 
HETATM   24  C   UNL     1      24.234  42.742  50.739  1.00  0.00     0.017 A 
HETATM   25  C   UNL     1      23.032  42.995  50.073  1.00  0.00     0.043 A 
HETATM   26  C   UNL     1      22.944  44.075  49.202  1.00  0.00     0.116 A 
HETATM   27  F   UNL     1      21.791  44.321  48.570  1.00  0.00    -0.206 F 
HETATM   28  C   UNL     1      24.038  44.902  48.974  1.00  0.00     0.043 A 
HETATM   29  C   UNL     1      25.241  44.651  49.636  1.00  0.00     0.017 A 
ENDBRANCH   3  23
BRANCH   1  30
HETATM   30  C   UNL     1      28.718  44.028  53.944  1.00  0.00     0.058 A 
HETATM   31  C   UNL     1      29.858  43.385  54.445  1.00  0.00     0.032 A 
HETATM   32  C   UNL     1      30.497  43.872  55.590  1.00  0.00     0.009 A 
HETATM   33  C   UNL     1      30.004  44.999  56.253  1.00  0.00    -0.062 A 
HETATM   34  C   UNL     1      30.693  45.539  57.473  1.00  0.00     0.048 C 
HETATM   35  C   UNL     1      28.872  45.646  55.746  1.00  0.00     0.009 A 
HETATM   36  C   UNL     1      28.230  45.167  54.598  1.00  0.00     0.032 A 
ENDBRANCH   1  30
TORSDOF 6
ENDMDL
MODEL 8
REMARK VINA RESULT:      -8.8      4.052      7.878
REMARK  6 active torsions:
REMARK  status: ('A' for Active; 'I' for Inactive)
REMARK    1  A    between atoms: C_5  and  N_6 
REMARK    2  A    between atoms: C_8  and  C_9 
REMARK    3  A    between atoms: C_16  and  C_17 
REMARK    4  A    between atoms: C_17  and  N_18 
REMARK    5  A    between atoms: C_22  and  N_23 
REMARK    6  A    between atoms: C_26  and  O_27 
ROOT
HETATM    1  N   UNL     1      28.140  43.880  53.390  1.00  0.00    -0.244 N 
HETATM    2  N   UNL     1      27.497  44.937  52.846  1.00  0.00    -0.167 NA
HETATM    3  C   UNL     1      26.741  44.455  51.859  1.00  0.00     0.097 A 
HETATM    4  C   UNL     1      26.999  43.072  51.648  1.00  0.00     0.016 A 
HETATM    5  C   UNL     1      27.851  42.729  52.683  1.00  0.00     0.130 A 
ENDROOT
BRANCH   4   6
HETATM    6  C   UNL     1      26.469  42.183  50.587  1.00  0.00     0.277 C 
BRANCH   6   7
HETATM    7  N   UNL     1      27.548  41.404  49.800  1.00  0.00    -0.067 N 
HETATM    8  H   UNL     1      28.418  41.928  49.994  1.00  0.00     0.280 HD
HETATM    9  C   UNL     1      27.731  40.005  50.320  1.00  0.00     0.237 C 
HETATM   10  C   UNL     1      28.747  39.245  49.493  1.00  0.00     0.061 C 
HETATM   11  C   UNL     1      28.444  39.213  47.998  1.00  0.00     0.191 C 
HETATM   12  C   UNL     1      28.175  40.627  47.475  1.00  0.00     0.061 C 
HETATM   13  C   UNL     1      27.250  41.493  48.326  1.00  0.00     0.237 C 
BRANCH  11  14
HETATM   14  N   UNL     1      27.406  38.173  47.576  1.00  0.00    -0.064 N 
HETATM   15  H   UNL     1      27.885  37.597  46.848  1.00  0.00     0.280 HD
HETATM   16  C   UNL     1      27.159  37.079  48.641  1.00  0.00     0.266 C 
HETATM   17  C   UNL     1      26.573  35.860  47.924  1.00  0.00     0.144 C 
HETATM   18  C   UNL     1      25.230  36.224  47.299  1.00  0.00     0.035 C 
HETATM   19  C   UNL     1      25.378  37.387  46.322  1.00  0.00     0.030 C 
HETATM   20  C   UNL     1      26.113  38.586  46.916  1.00  0.00     0.235 C 
BRANCH  17  21
HETATM   21  O   UNL     1      27.496  35.534  46.878  1.00  0.00    -0.394 OA
HETATM   22  H   UNL     1      28.332  35.250  47.305  1.00  0.00     0.210 HD
ENDBRANCH  17  21
ENDBRANCH  11  14
ENDBRANCH   6   7
ENDBRANCH   4   6
BRANCH   3  23
HETATM   23  C   UNL     1      25.834  45.330  51.125  1.00  0.00    -0.005 A 
HETATM   24  C   UNL     1      24.657  44.813  50.564  1.00  0.00     0.017 A 
HETATM   25  C   UNL     1      23.784  45.653  49.869  1.00  0.00     0.043 A 
HETATM   26  C   UNL     1      24.094  47.001  49.728  1.00  0.00     0.116 A 
HETATM   27  F   UNL     1      23.254  47.806  49.067  1.00  0.00    -0.206 F 
HETATM   28  C   UNL     1      25.268  47.524  50.257  1.00  0.00     0.043 A 
HETATM   29  C   UNL     1      26.144  46.688  50.951  1.00  0.00     0.017 A 
ENDBRANCH   3  23
BRANCH   1  30
HETATM   30  C   UNL     1      29.025  44.029  54.491  1.00  0.00     0.058 A 
HETATM   31  C   UNL     1      28.959  45.190  55.275  1.00  0.00     0.032 A 
HETATM   32  C   UNL     1      29.829  45.363  56.355  1.00  0.00     0.009 A 
HETATM   33  C   UNL     1      30.781  44.387  56.663  1.00  0.00    -0.062 A 
HETATM   34  C   UNL     1      31.710  44.557  57.832  1.00  0.00     0.048 C 
HETATM   35  C   UNL     1      30.840  43.225  55.887  1.00  0.00     0.009 A 
HETATM   36  C   UNL     1      29.969  43.043  54.807  1.00  0.00     0.032 A 
ENDBRANCH   1  30
TORSDOF 6
ENDMDL
MODEL 9
REMARK VINA RESULT:      -8.8      3.294      4.345
REMARK  6 active torsions:
REMARK  status: ('A' for Active; 'I' for Inactive)
REMARK    1  A    between atoms: C_5  and  N_6 
REMARK    2  A    between atoms: C_8  and  C_9 
REMARK    3  A    between atoms: C_16  and  C_17 
REMARK    4  A    between atoms: C_17  and  N_18 
REMARK    5  A    between atoms: C_22  and  N_23 
REMARK    6  A    between atoms: C_26  and  O_27 
ROOT
HETATM    1  N   UNL     1      28.166  42.907  52.850  1.00  0.00    -0.244 N 
HETATM    2  N   UNL     1      28.764  41.872  52.221  1.00  0.00    -0.167 NA
HETATM    3  C   UNL     1      27.929  41.478  51.259  1.00  0.00     0.097 A 
HETATM    4  C   UNL     1      26.690  42.170  51.344  1.00  0.00     0.016 A 
HETATM    5  C   UNL     1      26.902  43.116  52.333  1.00  0.00     0.130 A 
ENDROOT
BRANCH   4   6
HETATM    6  C   UNL     1      25.455  41.960  50.553  1.00  0.00     0.277 C 
BRANCH   6   7
HETATM    7  N   UNL     1      24.595  43.228  50.348  1.00  0.00    -0.067 N 
HETATM    8  H   UNL     1      24.629  43.698  51.269  1.00  0.00     0.280 HD
HETATM    9  C   UNL     1      25.193  44.165  49.336  1.00  0.00     0.237 C 
HETATM   10  C   UNL     1      24.302  45.367  49.110  1.00  0.00     0.061 C 
HETATM   11  C   UNL     1      22.867  45.021  48.721  1.00  0.00     0.191 C 
HETATM   12  C   UNL     1      22.275  44.005  49.701  1.00  0.00     0.061 C 
HETATM   13  C   UNL     1      23.171  42.825  50.067  1.00  0.00     0.237 C 
BRANCH  11  14
HETATM   14  N   UNL     1      22.670  44.669  47.246  1.00  0.00    -0.064 N 
HETATM   15  H   UNL     1      23.630  44.690  46.835  1.00  0.00     0.280 HD
HETATM   16  C   UNL     1      22.326  43.181  47.007  1.00  0.00     0.266 C 
HETATM   17  C   UNL     1      22.696  42.847  45.559  1.00  0.00     0.144 C 
HETATM   18  C   UNL     1      21.854  43.687  44.604  1.00  0.00     0.035 C 
HETATM   19  C   UNL     1      22.051  45.178  44.867  1.00  0.00     0.030 C 
HETATM   20  C   UNL     1      21.867  45.563  46.333  1.00  0.00     0.235 C 
BRANCH  17  21
HETATM   21  O   UNL     1      24.072  43.215  45.408  1.00  0.00    -0.394 OA
HETATM   22  H   UNL     1      24.132  44.184  45.543  1.00  0.00     0.210 HD
ENDBRANCH  17  21
ENDBRANCH  11  14
ENDBRANCH   6   7
ENDBRANCH   4   6
BRANCH   3  23
HETATM   23  C   UNL     1      28.319  40.432  50.320  1.00  0.00    -0.005 A 
HETATM   24  C   UNL     1      28.132  40.617  48.943  1.00  0.00     0.017 A 
HETATM   25  C   UNL     1      28.514  39.619  48.043  1.00  0.00     0.043 A 
HETATM   26  C   UNL     1      29.072  38.439  48.523  1.00  0.00     0.116 A 
HETATM   27  F   UNL     1      29.443  37.486  47.660  1.00  0.00    -0.206 F 
HETATM   28  C   UNL     1      29.242  38.230  49.886  1.00  0.00     0.043 A 
HETATM   29  C   UNL     1      28.860  39.224  50.789  1.00  0.00     0.017 A 
ENDBRANCH   3  23
BRANCH   1  30
HETATM   30  C   UNL     1      28.791  43.589  53.928  1.00  0.00     0.058 A 
HETATM   31  C   UNL     1      29.968  43.067  54.483  1.00  0.00     0.032 A 
HETATM   32  C   UNL     1      30.592  43.715  55.553  1.00  0.00     0.009 A 
HETATM   33  C   UNL     1      30.049  44.885  56.089  1.00  0.00    -0.062 A 
HETATM   34  C   UNL     1      30.721  45.597  57.228  1.00  0.00     0.048 C 
HETATM   35  C   UNL     1      28.880  45.411  55.529  1.00  0.00     0.009 A 
HETATM   36  C   UNL     1      28.252  44.771  54.455  1.00  0.00     0.032 A 
ENDBRANCH   1  30
TORSDOF 6
ENDMDL
MODEL 10
REMARK VINA RESULT:      -8.7      3.585      7.006
REMARK  6 active torsions:
REMARK  status: ('A' for Active; 'I' for Inactive)
REMARK    1  A    between atoms: C_5  and  N_6 
REMARK    2  A    between atoms: C_8  and  C_9 
REMARK    3  A    between atoms: C_16  and  C_17 
REMARK    4  A    between atoms: C_17  and  N_18 
REMARK    5  A    between atoms: C_22  and  N_23 
REMARK    6  A    between atoms: C_26  and  O_27 
ROOT
HETATM    1  N   UNL     1      26.472  45.037  52.074  1.00  0.00    -0.244 N 
HETATM    2  N   UNL     1      26.603  46.159  51.333  1.00  0.00    -0.167 NA
HETATM    3  C   UNL     1      25.442  46.335  50.701  1.00  0.00     0.097 A 
HETATM    4  C   UNL     1      24.573  45.229  50.913  1.00  0.00     0.016 A 
HETATM    5  C   UNL     1      25.242  44.451  51.843  1.00  0.00     0.130 A 
ENDROOT
BRANCH   4   6
HETATM    6  C   UNL     1      23.247  44.964  50.308  1.00  0.00     0.277 C 
BRANCH   6   7
HETATM    7  N   UNL     1      23.250  43.900  49.187  1.00  0.00    -0.067 N 
HETATM    8  H   UNL     1      22.569  44.267  48.500  1.00  0.00     0.280 HD
HETATM    9  C   UNL     1      24.583  43.800  48.500  1.00  0.00     0.237 C 
HETATM   10  C   UNL     1      24.576  42.710  47.450  1.00  0.00     0.061 C 
HETATM   11  C   UNL     1      24.150  41.340  47.968  1.00  0.00     0.191 C 
HETATM   12  C   UNL     1      22.832  41.443  48.740  1.00  0.00     0.061 C 
HETATM   13  C   UNL     1      22.726  42.598  49.734  1.00  0.00     0.237 C 
BRANCH  11  14
HETATM   14  N   UNL     1      25.248  40.558  48.691  1.00  0.00    -0.064 N 
HETATM   15  H   UNL     1      24.813  39.637  48.923  1.00  0.00     0.280 HD
HETATM   16  C   UNL     1      26.379  40.072  47.755  1.00  0.00     0.266 C 
HETATM   17  C   UNL     1      27.073  38.893  48.441  1.00  0.00     0.144 C 
HETATM   18  C   UNL     1      27.707  39.355  49.748  1.00  0.00     0.035 C 
HETATM   19  C   UNL     1      26.660  39.964  50.680  1.00  0.00     0.030 C 
HETATM   20  C   UNL     1      25.806  41.036  50.009  1.00  0.00     0.235 C 
BRANCH  17  21
HETATM   21  O   UNL     1      26.040  37.945  48.737  1.00  0.00    -0.394 OA
HETATM   22  H   UNL     1      25.239  38.223  48.245  1.00  0.00     0.210 HD
ENDBRANCH  17  21
ENDBRANCH  11  14
ENDBRANCH   6   7
ENDBRANCH   4   6
BRANCH   3  23
HETATM   23  C   UNL     1      25.213  47.523  49.886  1.00  0.00    -0.005 A 
HETATM   24  C   UNL     1      26.296  48.294  49.444  1.00  0.00     0.017 A 
HETATM   25  C   UNL     1      26.077  49.426  48.656  1.00  0.00     0.043 A 
HETATM   26  C   UNL     1      24.776  49.790  48.324  1.00  0.00     0.116 A 
HETATM   27  F   UNL     1      24.567  50.871  47.565  1.00  0.00    -0.206 F 
HETATM   28  C   UNL     1      23.689  49.050  48.775  1.00  0.00     0.043 A 
HETATM   29  C   UNL     1      23.904  47.919  49.564  1.00  0.00     0.017 A 
ENDBRANCH   3  23
BRANCH   1  30
HETATM   30  C   UNL     1      27.526  44.559  52.899  1.00  0.00     0.058 A 
HETATM   31  C   UNL     1      27.725  45.132  54.162  1.00  0.00     0.032 A 
HETATM   32  C   UNL     1      28.764  44.686  54.985  1.00  0.00     0.009 A 
HETATM   33  C   UNL     1      29.622  43.670  54.556  1.00  0.00    -0.062 A 
HETATM   34  C   UNL     1      30.731  43.173  55.438  1.00  0.00     0.048 C 
HETATM   35  C   UNL     1      29.417  43.091  53.298  1.00  0.00     0.009 A 
HETATM   36  C   UNL     1      28.376  43.530  52.472  1.00  0.00     0.032 A 
ENDBRANCH   1  30
TORSDOF 6
ENDMDL
