MODEL 1
REMARK VINA RESULT:     -10.1      0.000      0.000
REMARK  6 active torsions:
REMARK  status: ('A' for Active; 'I' for Inactive)
REMARK    1  A    between atoms: C_2  and  C_3 
REMARK    2  A    between atoms: C_3  and  C_4 
REMARK    3  A    between atoms: C_4  and  C_5 
REMARK    4  A    between atoms: C_8  and  N_9 
REMARK       I    between atoms: N_9  and  C_10 
REMARK    5  A    between atoms: C_10  and  C_11 
REMARK    6  A    between atoms: N_16  and  C_17 
ROOT
HETATM    1  C   UNL     1      24.923  46.138  49.764  1.00  0.00     0.098 A 
HETATM    2  C   UNL     1      23.924  45.446  48.878  1.00  0.00     0.205 A 
HETATM    3  O   UNL     1      24.096  44.301  48.470  1.00  0.00    -0.286 OA
HETATM    4  C   UNL     1      22.735  46.227  48.597  1.00  0.00     0.087 A 
HETATM    5  C   UNL     1      22.565  47.496  49.101  1.00  0.00     0.145 A 
HETATM    6  N   UNL     1      21.324  47.950  48.679  1.00  0.00    -0.216 N 
HETATM    7  N   UNL     1      20.675  46.964  47.986  1.00  0.00    -0.170 NA
HETATM    8  C   UNL     1      21.548  45.952  47.896  1.00  0.00     0.069 A 
HETATM    9  C   UNL     1      21.192  44.718  47.154  1.00  0.00     0.073 C 
HETATM   10  N   UNL     1      23.478  48.081  49.914  1.00  0.00    -0.349 N 
HETATM   11  C   UNL     1      24.627  47.376  50.221  1.00  0.00     0.111 A 
HETATM   12  H   UNL     1      23.280  48.892  50.497  1.00  0.00     0.167 HD
ENDROOT
BRANCH   1  13
HETATM   13  C   UNL     1      26.200  45.517  50.229  1.00  0.00     0.261 C 
HETATM   14  N   UNL     1      26.130  44.908  51.466  1.00  0.00    -0.323 N 
HETATM   15  H   UNL     1      25.219  44.896  51.926  1.00  0.00     0.169 HD
HETATM   16  O   UNL     1      27.207  45.615  49.533  1.00  0.00    -0.267 OA
BRANCH  14  17
HETATM   17  C   UNL     1      27.198  44.373  52.216  1.00  0.00     0.035 A 
HETATM   18  C   UNL     1      28.095  43.423  51.728  1.00  0.00     0.030 A 
HETATM   19  C   UNL     1      29.167  42.989  52.514  1.00  0.00     0.009 A 
HETATM   20  C   UNL     1      29.372  43.507  53.797  1.00  0.00    -0.058 A 
HETATM   21  C   UNL     1      28.454  44.435  54.300  1.00  0.00     0.009 A 
HETATM   22  C   UNL     1      27.373  44.856  53.518  1.00  0.00     0.030 A 
BRANCH  20  23
HETATM   23  C   UNL     1      30.573  43.084  54.608  1.00  0.00     0.038 C 
BRANCH  23  24
HETATM   24  C   UNL     1      30.932  44.127  55.674  1.00  0.00     0.004 C 
BRANCH  24  25
HETATM   25  C   UNL     1      31.445  43.472  56.954  1.00  0.00    -0.004 C 
HETATM   26  C   UNL     1      31.404  44.441  58.126  1.00  0.00     0.005 C 
ENDBRANCH  24  25
ENDBRANCH  23  24
ENDBRANCH  20  23
ENDBRANCH  14  17
ENDBRANCH   1  13
BRANCH   6  27
HETATM   27  C   UNL     1      20.696  49.215  48.873  1.00  0.00     0.060 A 
HETATM   28  C   UNL     1      21.123  50.367  48.200  1.00  0.00     0.031 A 
HETATM   29  C   UNL     1      20.497  51.595  48.442  1.00  0.00     0.002 A 
HETATM   30  C   UNL     1      19.437  51.678  49.341  1.00  0.00     0.000 A 
HETATM   31  C   UNL     1      18.982  50.531  49.988  1.00  0.00     0.002 A 
HETATM   32  C   UNL     1      19.602  49.303  49.751  1.00  0.00     0.031 A 
ENDBRANCH   6  27
TORSDOF 6
ENDMDL
MODEL 2
REMARK VINA RESULT:      -9.8      1.946     10.253
REMARK  6 active torsions:
REMARK  status: ('A' for Active; 'I' for Inactive)
REMARK    1  A    between atoms: C_2  and  C_3 
REMARK    2  A    between atoms: C_3  and  C_4 
REMARK    3  A    between atoms: C_4  and  C_5 
REMARK    4  A    between atoms: C_8  and  N_9 
REMARK       I    between atoms: N_9  and  C_10 
REMARK    5  A    between atoms: C_10  and  C_11 
REMARK    6  A    between atoms: N_16  and  C_17 
ROOT
HETATM    1  C   UNL     1      24.723  47.001  50.109  1.00  0.00     0.098 A 
HETATM    2  C   UNL     1      24.344  45.567  49.859  1.00  0.00     0.205 A 
HETATM    3  O   UNL     1      23.418  45.257  49.115  1.00  0.00    -0.286 OA
HETATM    4  C   UNL     1      25.193  44.601  50.527  1.00  0.00     0.087 A 
HETATM    5  C   UNL     1      26.243  44.988  51.327  1.00  0.00     0.145 A 
HETATM    6  N   UNL     1      26.867  43.837  51.785  1.00  0.00    -0.216 N 
HETATM    7  N   UNL     1      26.282  42.733  51.226  1.00  0.00    -0.170 NA
HETATM    8  C   UNL     1      25.245  43.196  50.514  1.00  0.00     0.069 A 
HETATM    9  C   UNL     1      24.343  42.256  49.804  1.00  0.00     0.073 C 
HETATM   10  N   UNL     1      26.569  46.290  51.514  1.00  0.00    -0.349 N 
HETATM   11  C   UNL     1      25.796  47.254  50.892  1.00  0.00     0.111 A 
HETATM   12  H   UNL     1      27.466  46.603  51.881  1.00  0.00     0.167 HD
ENDROOT
BRANCH   1  13
HETATM   13  C   UNL     1      24.027  48.170  49.492  1.00  0.00     0.261 C 
HETATM   14  N   UNL     1      22.666  48.215  49.713  1.00  0.00    -0.323 N 
HETATM   15  H   UNL     1      22.268  47.485  50.304  1.00  0.00     0.169 HD
HETATM   16  O   UNL     1      24.672  48.968  48.817  1.00  0.00    -0.267 OA
BRANCH  14  17
HETATM   17  C   UNL     1      21.736  49.110  49.140  1.00  0.00     0.035 A 
HETATM   18  C   UNL     1      20.828  48.758  48.143  1.00  0.00     0.030 A 
HETATM   19  C   UNL     1      19.895  49.686  47.672  1.00  0.00     0.009 A 
HETATM   20  C   UNL     1      19.842  50.981  48.199  1.00  0.00    -0.058 A 
HETATM   21  C   UNL     1      20.775  51.345  49.176  1.00  0.00     0.009 A 
HETATM   22  C   UNL     1      21.718  50.419  49.635  1.00  0.00     0.030 A 
BRANCH  20  23
HETATM   23  C   UNL     1      18.784  51.953  47.734  1.00  0.00     0.038 C 
BRANCH  23  24
HETATM   24  C   UNL     1      18.102  52.654  48.915  1.00  0.00     0.004 C 
BRANCH  24  25
HETATM   25  C   UNL     1      17.115  51.730  49.626  1.00  0.00    -0.004 C 
HETATM   26  C   UNL     1      16.086  51.170  48.656  1.00  0.00     0.005 C 
ENDBRANCH  24  25
ENDBRANCH  23  24
ENDBRANCH  20  23
ENDBRANCH  14  17
ENDBRANCH   1  13
BRANCH   6  27
HETATM   27  C   UNL     1      27.960  43.683  52.686  1.00  0.00     0.060 A 
HETATM   28  C   UNL     1      27.964  44.275  53.956  1.00  0.00     0.031 A 
HETATM   29  C   UNL     1      29.070  44.123  54.799  1.00  0.00     0.002 A 
HETATM   30  C   UNL     1      30.169  43.371  54.389  1.00  0.00     0.000 A 
HETATM   31  C   UNL     1      30.158  42.749  53.142  1.00  0.00     0.002 A 
HETATM   32  C   UNL     1      29.057  42.897  52.296  1.00  0.00     0.031 A 
ENDBRANCH   6  27
TORSDOF 6
ENDMDL
MODEL 3
REMARK VINA RESULT:      -9.6      1.768      2.687
REMARK  6 active torsions:
REMARK  status: ('A' for Active; 'I' for Inactive)
REMARK    1  A    between atoms: C_2  and  C_3 
REMARK    2  A    between atoms: C_3  and  C_4 
REMARK    3  A    between atoms: C_4  and  C_5 
REMARK    4  A    between atoms: C_8  and  N_9 
REMARK       I    between atoms: N_9  and  C_10 
REMARK    5  A    between atoms: C_10  and  C_11 
REMARK    6  A    between atoms: N_16  and  C_17 
ROOT
HETATM    1  C   UNL     1      25.405  46.154  50.120  1.00  0.00     0.098 A 
HETATM    2  C   UNL     1      25.505  47.542  49.552  1.00  0.00     0.205 A 
HETATM    3  O   UNL     1      26.564  48.163  49.528  1.00  0.00    -0.286 OA
HETATM    4  C   UNL     1      24.265  48.051  48.998  1.00  0.00     0.087 A 
HETATM    5  C   UNL     1      23.106  47.310  49.016  1.00  0.00     0.145 A 
HETATM    6  N   UNL     1      22.122  48.060  48.388  1.00  0.00    -0.216 N 
HETATM    7  N   UNL     1      22.656  49.224  47.905  1.00  0.00    -0.170 NA
HETATM    8  C   UNL     1      23.930  49.236  48.321  1.00  0.00     0.069 A 
HETATM    9  C   UNL     1      24.808  50.393  48.016  1.00  0.00     0.073 C 
HETATM   10  N   UNL     1      23.057  46.053  49.519  1.00  0.00    -0.349 N 
HETATM   11  C   UNL     1      24.214  45.516  50.052  1.00  0.00     0.111 A 
HETATM   12  H   UNL     1      22.304  45.394  49.326  1.00  0.00     0.167 HD
ENDROOT
BRANCH   1  13
HETATM   13  C   UNL     1      26.558  45.402  50.701  1.00  0.00     0.261 C 
HETATM   14  N   UNL     1      26.424  45.080  52.036  1.00  0.00    -0.323 N 
HETATM   15  H   UNL     1      25.548  45.338  52.490  1.00  0.00     0.169 HD
HETATM   16  O   UNL     1      27.536  45.160  49.999  1.00  0.00    -0.267 OA
BRANCH  14  17
HETATM   17  C   UNL     1      27.401  44.508  52.880  1.00  0.00     0.035 A 
HETATM   18  C   UNL     1      28.006  43.274  52.647  1.00  0.00     0.030 A 
HETATM   19  C   UNL     1      29.013  42.804  53.496  1.00  0.00     0.009 A 
HETATM   20  C   UNL     1      29.445  43.567  54.587  1.00  0.00    -0.058 A 
HETATM   21  C   UNL     1      28.816  44.791  54.840  1.00  0.00     0.009 A 
HETATM   22  C   UNL     1      27.797  45.251  53.997  1.00  0.00     0.030 A 
BRANCH  20  23
HETATM   23  C   UNL     1      30.582  43.084  55.454  1.00  0.00     0.038 C 
BRANCH  23  24
HETATM   24  C   UNL     1      31.321  44.251  56.120  1.00  0.00     0.004 C 
BRANCH  24  25
HETATM   25  C   UNL     1      31.346  44.109  57.641  1.00  0.00    -0.004 C 
HETATM   26  C   UNL     1      30.529  45.202  58.311  1.00  0.00     0.005 C 
ENDBRANCH  24  25
ENDBRANCH  23  24
ENDBRANCH  20  23
ENDBRANCH  14  17
ENDBRANCH   1  13
BRANCH   6  27
HETATM   27  C   UNL     1      20.738  47.780  48.196  1.00  0.00     0.060 A 
HETATM   28  C   UNL     1      19.788  48.008  49.200  1.00  0.00     0.031 A 
HETATM   29  C   UNL     1      18.443  47.691  48.982  1.00  0.00     0.002 A 
HETATM   30  C   UNL     1      18.036  47.161  47.759  1.00  0.00     0.000 A 
HETATM   31  C   UNL     1      18.968  46.964  46.743  1.00  0.00     0.002 A 
HETATM   32  C   UNL     1      20.311  47.278  46.955  1.00  0.00     0.031 A 
ENDBRANCH   6  27
TORSDOF 6
ENDMDL
MODEL 4
REMARK VINA RESULT:      -9.1      2.854     10.389
REMARK  6 active torsions:
REMARK  status: ('A' for Active; 'I' for Inactive)
REMARK    1  A    between atoms: C_2  and  C_3 
REMARK    2  A    between atoms: C_3  and  C_4 
REMARK    3  A    between atoms: C_4  and  C_5 
REMARK    4  A    between atoms: C_8  and  N_9 
REMARK       I    between atoms: N_9  and  C_10 
REMARK    5  A    between atoms: C_10  and  C_11 
REMARK    6  A    between atoms: N_16  and  C_17 
ROOT
HETATM    1  C   UNL     1      24.915  46.849  50.240  1.00  0.00     0.098 A 
HETATM    2  C   UNL     1      25.455  46.717  51.637  1.00  0.00     0.205 A 
HETATM    3  O   UNL     1      25.391  47.634  52.451  1.00  0.00    -0.286 OA
HETATM    4  C   UNL     1      26.001  45.410  51.944  1.00  0.00     0.087 A 
HETATM    5  C   UNL     1      26.024  44.396  51.013  1.00  0.00     0.145 A 
HETATM    6  N   UNL     1      26.575  43.280  51.625  1.00  0.00    -0.216 N 
HETATM    7  N   UNL     1      26.827  43.545  52.944  1.00  0.00    -0.170 NA
HETATM    8  C   UNL     1      26.530  44.840  53.115  1.00  0.00     0.069 A 
HETATM    9  C   UNL     1      26.734  45.489  54.434  1.00  0.00     0.073 C 
HETATM   10  N   UNL     1      25.510  44.545  49.768  1.00  0.00    -0.349 N 
HETATM   11  C   UNL     1      24.968  45.770  49.426  1.00  0.00     0.111 A 
HETATM   12  H   UNL     1      25.283  43.766  49.152  1.00  0.00     0.167 HD
ENDROOT
BRANCH   1  13
HETATM   13  C   UNL     1      24.260  48.083  49.709  1.00  0.00     0.261 C 
HETATM   14  N   UNL     1      22.880  48.056  49.721  1.00  0.00    -0.323 N 
HETATM   15  H   UNL     1      22.436  47.231  50.124  1.00  0.00     0.169 HD
HETATM   16  O   UNL     1      24.956  48.995  49.273  1.00  0.00    -0.267 OA
BRANCH  14  17
HETATM   17  C   UNL     1      22.002  49.005  49.155  1.00  0.00     0.035 A 
HETATM   18  C   UNL     1      21.225  48.769  48.022  1.00  0.00     0.030 A 
HETATM   19  C   UNL     1      20.330  49.739  47.559  1.00  0.00     0.009 A 
HETATM   20  C   UNL     1      20.185  50.958  48.230  1.00  0.00    -0.058 A 
HETATM   21  C   UNL     1      20.988  51.209  49.347  1.00  0.00     0.009 A 
HETATM   22  C   UNL     1      21.894  50.242  49.799  1.00  0.00     0.030 A 
BRANCH  20  23
HETATM   23  C   UNL     1      19.165  51.969  47.764  1.00  0.00     0.038 C 
BRANCH  23  24
HETATM   24  C   UNL     1      18.437  52.623  48.944  1.00  0.00     0.004 C 
BRANCH  24  25
HETATM   25  C   UNL     1      17.102  51.938  49.234  1.00  0.00    -0.004 C 
HETATM   26  C   UNL     1      16.186  52.838  50.049  1.00  0.00     0.005 C 
ENDBRANCH  24  25
ENDBRANCH  23  24
ENDBRANCH  20  23
ENDBRANCH  14  17
ENDBRANCH   1  13
BRANCH   6  27
HETATM   27  C   UNL     1      26.877  41.995  51.087  1.00  0.00     0.060 A 
HETATM   28  C   UNL     1      28.160  41.438  51.170  1.00  0.00     0.031 A 
HETATM   29  C   UNL     1      28.422  40.187  50.603  1.00  0.00     0.002 A 
HETATM   30  C   UNL     1      27.406  39.479  49.964  1.00  0.00     0.000 A 
HETATM   31  C   UNL     1      26.119  40.009  49.908  1.00  0.00     0.002 A 
HETATM   32  C   UNL     1      25.852  41.258  50.472  1.00  0.00     0.031 A 
ENDBRANCH   6  27
TORSDOF 6
ENDMDL
MODEL 5
REMARK VINA RESULT:      -9.0      2.448     10.540
REMARK  6 active torsions:
REMARK  status: ('A' for Active; 'I' for Inactive)
REMARK    1  A    between atoms: C_2  and  C_3 
REMARK    2  A    between atoms: C_3  and  C_4 
REMARK    3  A    between atoms: C_4  and  C_5 
REMARK    4  A    between atoms: C_8  and  N_9 
REMARK       I    between atoms: N_9  and  C_10 
REMARK    5  A    between atoms: C_10  and  C_11 
REMARK    6  A    between atoms: N_16  and  C_17 
ROOT
HETATM    1  C   UNL     1      26.263  45.555  52.197  1.00  0.00     0.098 A 
HETATM    2  C   UNL     1      26.124  46.707  53.153  1.00  0.00     0.205 A 
HETATM    3  O   UNL     1      25.286  47.590  52.995  1.00  0.00    -0.286 OA
HETATM    4  C   UNL     1      27.024  46.650  54.289  1.00  0.00     0.087 A 
HETATM    5  C   UNL     1      27.927  45.624  54.448  1.00  0.00     0.145 A 
HETATM    6  N   UNL     1      28.606  45.846  55.637  1.00  0.00    -0.216 N 
HETATM    7  N   UNL     1      28.094  46.946  56.271  1.00  0.00    -0.170 NA
HETATM    8  C   UNL     1      27.182  47.454  55.431  1.00  0.00     0.069 A 
HETATM    9  C   UNL     1      26.453  48.699  55.778  1.00  0.00     0.073 C 
HETATM   10  N   UNL     1      28.011  44.591  53.576  1.00  0.00    -0.349 N 
HETATM   11  C   UNL     1      27.169  44.592  52.478  1.00  0.00     0.111 A 
HETATM   12  H   UNL     1      28.474  43.708  53.785  1.00  0.00     0.167 HD
ENDROOT
BRANCH   1  13
HETATM   13  C   UNL     1      25.414  45.371  50.981  1.00  0.00     0.261 C 
HETATM   14  N   UNL     1      24.737  46.501  50.572  1.00  0.00    -0.323 N 
HETATM   15  H   UNL     1      24.905  47.359  51.098  1.00  0.00     0.169 HD
HETATM   16  O   UNL     1      25.339  44.261  50.461  1.00  0.00    -0.267 OA
BRANCH  14  17
HETATM   17  C   UNL     1      23.761  46.592  49.556  1.00  0.00     0.035 A 
HETATM   18  C   UNL     1      23.171  45.489  48.940  1.00  0.00     0.030 A 
HETATM   19  C   UNL     1      22.164  45.662  47.986  1.00  0.00     0.009 A 
HETATM   20  C   UNL     1      21.716  46.941  47.640  1.00  0.00    -0.058 A 
HETATM   21  C   UNL     1      22.330  48.050  48.233  1.00  0.00     0.009 A 
HETATM   22  C   UNL     1      23.349  47.874  49.176  1.00  0.00     0.030 A 
BRANCH  20  23
HETATM   23  C   UNL     1      20.579  47.113  46.662  1.00  0.00     0.038 C 
BRANCH  23  24
HETATM   24  C   UNL     1      19.736  48.352  46.987  1.00  0.00     0.004 C 
BRANCH  24  25
HETATM   25  C   UNL     1      18.254  48.007  47.120  1.00  0.00    -0.004 C 
HETATM   26  C   UNL     1      17.968  47.299  48.435  1.00  0.00     0.005 C 
ENDBRANCH  24  25
ENDBRANCH  23  24
ENDBRANCH  20  23
ENDBRANCH  14  17
ENDBRANCH   1  13
BRANCH   6  27
HETATM   27  C   UNL     1      29.678  45.118  56.231  1.00  0.00     0.060 A 
HETATM   28  C   UNL     1      30.321  44.068  55.564  1.00  0.00     0.031 A 
HETATM   29  C   UNL     1      31.350  43.359  56.194  1.00  0.00     0.002 A 
HETATM   30  C   UNL     1      31.752  43.703  57.483  1.00  0.00     0.000 A 
HETATM   31  C   UNL     1      31.143  44.770  58.140  1.00  0.00     0.002 A 
HETATM   32  C   UNL     1      30.116  45.480  57.516  1.00  0.00     0.031 A 
ENDBRANCH   6  27
TORSDOF 6
ENDMDL
MODEL 6
REMARK VINA RESULT:      -9.0      5.665     10.261
REMARK  6 active torsions:
REMARK  status: ('A' for Active; 'I' for Inactive)
REMARK    1  A    between atoms: C_2  and  C_3 
REMARK    2  A    between atoms: C_3  and  C_4 
REMARK    3  A    between atoms: C_4  and  C_5 
REMARK    4  A    between atoms: C_8  and  N_9 
REMARK       I    between atoms: N_9  and  C_10 
REMARK    5  A    between atoms: C_10  and  C_11 
REMARK    6  A    between atoms: N_16  and  C_17 
ROOT
HETATM    1  C   UNL     1      27.986  41.914  51.855  1.00  0.00     0.098 A 
HETATM    2  C   UNL     1      27.318  43.257  51.957  1.00  0.00     0.205 A 
HETATM    3  O   UNL     1      26.444  43.613  51.171  1.00  0.00    -0.286 OA
HETATM    4  C   UNL     1      27.758  44.058  53.083  1.00  0.00     0.087 A 
HETATM    5  C   UNL     1      28.717  43.610  53.961  1.00  0.00     0.145 A 
HETATM    6  N   UNL     1      28.886  44.587  54.930  1.00  0.00    -0.216 N 
HETATM    7  N   UNL     1      27.997  45.608  54.727  1.00  0.00    -0.170 NA
HETATM    8  C   UNL     1      27.360  45.309  53.586  1.00  0.00     0.069 A 
HETATM    9  C   UNL     1      26.345  46.236  53.028  1.00  0.00     0.073 C 
HETATM   10  N   UNL     1      29.285  42.384  53.850  1.00  0.00    -0.349 N 
HETATM   11  C   UNL     1      28.894  41.575  52.799  1.00  0.00     0.111 A 
HETATM   12  H   UNL     1      29.796  41.926  54.602  1.00  0.00     0.167 HD
ENDROOT
BRANCH   1  13
HETATM   13  C   UNL     1      27.664  40.896  50.810  1.00  0.00     0.261 C 
HETATM   14  N   UNL     1      28.681  40.648  49.912  1.00  0.00    -0.323 N 
HETATM   15  H   UNL     1      29.563  41.138  50.063  1.00  0.00     0.169 HD
HETATM   16  O   UNL     1      26.545  40.390  50.786  1.00  0.00    -0.267 OA
BRANCH  14  17
HETATM   17  C   UNL     1      28.618  39.855  48.746  1.00  0.00     0.035 A 
HETATM   18  C   UNL     1      28.949  38.502  48.704  1.00  0.00     0.030 A 
HETATM   19  C   UNL     1      28.798  37.770  47.522  1.00  0.00     0.009 A 
HETATM   20  C   UNL     1      28.299  38.374  46.363  1.00  0.00    -0.058 A 
HETATM   21  C   UNL     1      27.997  39.739  46.395  1.00  0.00     0.009 A 
HETATM   22  C   UNL     1      28.165  40.473  47.575  1.00  0.00     0.030 A 
BRANCH  20  23
HETATM   23  C   UNL     1      28.072  37.557  45.114  1.00  0.00     0.038 C 
BRANCH  23  24
HETATM   24  C   UNL     1      28.074  38.434  43.856  1.00  0.00     0.004 C 
BRANCH  24  25
HETATM   25  C   UNL     1      29.468  38.531  43.238  1.00  0.00    -0.004 C 
HETATM   26  C   UNL     1      29.827  39.972  42.910  1.00  0.00     0.005 C 
ENDBRANCH  24  25
ENDBRANCH  23  24
ENDBRANCH  20  23
ENDBRANCH  14  17
ENDBRANCH   1  13
BRANCH   6  27
HETATM   27  C   UNL     1      29.796  44.645  56.026  1.00  0.00     0.060 A 
HETATM   28  C   UNL     1      30.821  43.705  56.191  1.00  0.00     0.031 A 
HETATM   29  C   UNL     1      31.673  43.780  57.297  1.00  0.00     0.002 A 
HETATM   30  C   UNL     1      31.519  44.798  58.235  1.00  0.00     0.000 A 
HETATM   31  C   UNL     1      30.525  45.759  58.061  1.00  0.00     0.002 A 
HETATM   32  C   UNL     1      29.671  45.689  56.958  1.00  0.00     0.031 A 
ENDBRANCH   6  27
TORSDOF 6
ENDMDL
MODEL 7
REMARK VINA RESULT:      -8.8      3.266     11.125
REMARK  6 active torsions:
REMARK  status: ('A' for Active; 'I' for Inactive)
REMARK    1  A    between atoms: C_2  and  C_3 
REMARK    2  A    between atoms: C_3  and  C_4 
REMARK    3  A    between atoms: C_4  and  C_5 
REMARK    4  A    between atoms: C_8  and  N_9 
REMARK       I    between atoms: N_9  and  C_10 
REMARK    5  A    between atoms: C_10  and  C_11 
REMARK    6  A    between atoms: N_16  and  C_17 
ROOT
HETATM    1  C   UNL     1      22.290  48.951  48.470  1.00  0.00     0.098 A 
HETATM    2  C   UNL     1      23.600  49.647  48.223  1.00  0.00     0.205 A 
HETATM    3  O   UNL     1      23.667  50.728  47.647  1.00  0.00    -0.286 OA
HETATM    4  C   UNL     1      24.754  48.956  48.768  1.00  0.00     0.087 A 
HETATM    5  C   UNL     1      24.633  47.760  49.438  1.00  0.00     0.145 A 
HETATM    6  N   UNL     1      25.902  47.385  49.853  1.00  0.00    -0.216 N 
HETATM    7  N   UNL     1      26.809  48.358  49.529  1.00  0.00    -0.170 NA
HETATM    8  C   UNL     1      26.121  49.273  48.832  1.00  0.00     0.069 A 
HETATM    9  C   UNL     1      26.810  50.461  48.270  1.00  0.00     0.073 C 
HETATM   10  N   UNL     1      23.433  47.171  49.658  1.00  0.00    -0.349 N 
HETATM   11  C   UNL     1      22.299  47.793  49.168  1.00  0.00     0.111 A 
HETATM   12  H   UNL     1      23.280  46.439  50.349  1.00  0.00     0.167 HD
ENDROOT
BRANCH   1  13
HETATM   13  C   UNL     1      20.963  49.492  48.047  1.00  0.00     0.261 C 
HETATM   14  N   UNL     1      20.542  50.603  48.748  1.00  0.00    -0.323 N 
HETATM   15  H   UNL     1      21.181  50.978  49.450  1.00  0.00     0.169 HD
HETATM   16  O   UNL     1      20.331  48.917  47.166  1.00  0.00    -0.267 OA
BRANCH  14  17
HETATM   17  C   UNL     1      19.283  51.236  48.671  1.00  0.00     0.035 A 
HETATM   18  C   UNL     1      18.622  51.514  47.475  1.00  0.00     0.030 A 
HETATM   19  C   UNL     1      17.347  52.087  47.484  1.00  0.00     0.009 A 
HETATM   20  C   UNL     1      16.701  52.380  48.691  1.00  0.00    -0.058 A 
HETATM   21  C   UNL     1      17.376  52.131  49.890  1.00  0.00     0.009 A 
HETATM   22  C   UNL     1      18.660  51.573  49.878  1.00  0.00     0.030 A 
BRANCH  20  23
HETATM   23  C   UNL     1      15.295  52.931  48.690  1.00  0.00     0.038 C 
BRANCH  23  24
HETATM   24  C   UNL     1      14.608  52.728  50.045  1.00  0.00     0.004 C 
BRANCH  24  25
HETATM   25  C   UNL     1      13.882  53.992  50.504  1.00  0.00    -0.004 C 
HETATM   26  C   UNL     1      14.626  54.673  51.643  1.00  0.00     0.005 C 
ENDBRANCH  24  25
ENDBRANCH  23  24
ENDBRANCH  20  23
ENDBRANCH  14  17
ENDBRANCH   1  13
BRANCH   6  27
HETATM   27  C   UNL     1      26.335  46.207  50.529  1.00  0.00     0.060 A 
HETATM   28  C   UNL     1      26.948  45.145  49.851  1.00  0.00     0.031 A 
HETATM   29  C   UNL     1      27.331  43.994  50.547  1.00  0.00     0.002 A 
HETATM   30  C   UNL     1      27.120  43.901  51.921  1.00  0.00     0.000 A 
HETATM   31  C   UNL     1      26.544  44.966  52.609  1.00  0.00     0.002 A 
HETATM   32  C   UNL     1      26.160  46.118  51.919  1.00  0.00     0.031 A 
ENDBRANCH   6  27
TORSDOF 6
ENDMDL
MODEL 8
REMARK VINA RESULT:      -8.5      3.681      4.996
REMARK  6 active torsions:
REMARK  status: ('A' for Active; 'I' for Inactive)
REMARK    1  A    between atoms: C_2  and  C_3 
REMARK    2  A    between atoms: C_3  and  C_4 
REMARK    3  A    between atoms: C_4  and  C_5 
REMARK    4  A    between atoms: C_8  and  N_9 
REMARK       I    between atoms: N_9  and  C_10 
REMARK    5  A    between atoms: C_10  and  C_11 
REMARK    6  A    between atoms: N_16  and  C_17 
ROOT
HETATM    1  C   UNL     1      24.977  45.371  49.745  1.00  0.00     0.098 A 
HETATM    2  C   UNL     1      25.952  46.499  49.551  1.00  0.00     0.205 A 
HETATM    3  O   UNL     1      27.167  46.318  49.549  1.00  0.00    -0.286 OA
HETATM    4  C   UNL     1      25.333  47.789  49.318  1.00  0.00     0.087 A 
HETATM    5  C   UNL     1      23.966  47.944  49.295  1.00  0.00     0.145 A 
HETATM    6  N   UNL     1      23.701  49.278  49.021  1.00  0.00    -0.216 N 
HETATM    7  N   UNL     1      24.871  49.950  48.792  1.00  0.00    -0.170 NA
HETATM    8  C   UNL     1      25.849  49.063  49.024  1.00  0.00     0.069 A 
HETATM    9  C   UNL     1      27.272  49.470  48.919  1.00  0.00     0.073 C 
HETATM   10  N   UNL     1      23.116  46.901  49.454  1.00  0.00    -0.349 N 
HETATM   11  C   UNL     1      23.655  45.645  49.670  1.00  0.00     0.111 A 
HETATM   12  H   UNL     1      22.131  46.928  49.198  1.00  0.00     0.167 HD
ENDROOT
BRANCH   1  13
HETATM   13  C   UNL     1      25.376  43.946  49.951  1.00  0.00     0.261 C 
HETATM   14  N   UNL     1      26.401  43.509  49.137  1.00  0.00    -0.323 N 
HETATM   15  H   UNL     1      26.820  44.196  48.509  1.00  0.00     0.169 HD
HETATM   16  O   UNL     1      24.768  43.262  50.769  1.00  0.00    -0.267 OA
BRANCH  14  17
HETATM   17  C   UNL     1      26.886  42.190  49.007  1.00  0.00     0.035 A 
HETATM   18  C   UNL     1      27.511  41.484  50.033  1.00  0.00     0.030 A 
HETATM   19  C   UNL     1      27.906  40.156  49.844  1.00  0.00     0.009 A 
HETATM   20  C   UNL     1      27.670  39.504  48.629  1.00  0.00    -0.058 A 
HETATM   21  C   UNL     1      27.072  40.221  47.588  1.00  0.00     0.009 A 
HETATM   22  C   UNL     1      26.692  41.555  47.775  1.00  0.00     0.030 A 
BRANCH  20  23
HETATM   23  C   UNL     1      28.035  38.048  48.460  1.00  0.00     0.038 C 
BRANCH  23  24
HETATM   24  C   UNL     1      28.306  37.373  49.810  1.00  0.00     0.004 C 
BRANCH  24  25
HETATM   25  C   UNL     1      29.781  37.457  50.197  1.00  0.00    -0.004 C 
HETATM   26  C   UNL     1      29.976  37.214  51.686  1.00  0.00     0.005 C 
ENDBRANCH  24  25
ENDBRANCH  23  24
ENDBRANCH  20  23
ENDBRANCH  14  17
ENDBRANCH   1  13
BRANCH   6  27
HETATM   27  C   UNL     1      22.457  49.970  48.948  1.00  0.00     0.060 A 
HETATM   28  C   UNL     1      21.873  50.567  50.072  1.00  0.00     0.031 A 
HETATM   29  C   UNL     1      20.636  51.211  49.963  1.00  0.00     0.002 A 
HETATM   30  C   UNL     1      19.984  51.276  48.734  1.00  0.00     0.000 A 
HETATM   31  C   UNL     1      20.574  50.715  47.604  1.00  0.00     0.002 A 
HETATM   32  C   UNL     1      21.808  50.071  47.707  1.00  0.00     0.031 A 
ENDBRANCH   6  27
TORSDOF 6
ENDMDL
MODEL 9
REMARK VINA RESULT:      -8.4      4.050     10.083
REMARK  6 active torsions:
REMARK  status: ('A' for Active; 'I' for Inactive)
REMARK    1  A    between atoms: C_2  and  C_3 
REMARK    2  A    between atoms: C_3  and  C_4 
REMARK    3  A    between atoms: C_4  and  C_5 
REMARK    4  A    between atoms: C_8  and  N_9 
REMARK       I    between atoms: N_9  and  C_10 
REMARK    5  A    between atoms: C_10  and  C_11 
REMARK    6  A    between atoms: N_16  and  C_17 
ROOT
HETATM    1  C   UNL     1      26.938  44.268  51.563  1.00  0.00     0.098 A 
HETATM    2  C   UNL     1      26.459  45.506  52.269  1.00  0.00     0.205 A 
HETATM    3  O   UNL     1      25.540  46.192  51.831  1.00  0.00    -0.286 OA
HETATM    4  C   UNL     1      27.139  45.779  53.520  1.00  0.00     0.087 A 
HETATM    5  C   UNL     1      28.142  44.966  53.993  1.00  0.00     0.145 A 
HETATM    6  N   UNL     1      28.556  45.479  55.213  1.00  0.00    -0.216 N 
HETATM    7  N   UNL     1      27.781  46.553  55.557  1.00  0.00    -0.170 NA
HETATM    8  C   UNL     1      26.967  46.760  54.512  1.00  0.00     0.069 A 
HETATM    9  C   UNL     1      26.010  47.893  54.520  1.00  0.00     0.073 C 
HETATM   10  N   UNL     1      28.535  43.846  53.339  1.00  0.00    -0.349 N 
HETATM   11  C   UNL     1      27.913  43.533  52.144  1.00  0.00     0.111 A 
HETATM   12  H   UNL     1      29.081  43.100  53.769  1.00  0.00     0.167 HD
ENDROOT
BRANCH   1  13
HETATM   13  C   UNL     1      26.358  43.756  50.284  1.00  0.00     0.261 C 
HETATM   14  N   UNL     1      24.983  43.835  50.201  1.00  0.00    -0.323 N 
HETATM   15  H   UNL     1      24.495  44.268  50.985  1.00  0.00     0.169 HD
HETATM   16  O   UNL     1      27.102  43.278  49.433  1.00  0.00    -0.267 OA
BRANCH  14  17
HETATM   17  C   UNL     1      24.156  43.303  49.188  1.00  0.00     0.035 A 
HETATM   18  C   UNL     1      23.860  41.947  49.056  1.00  0.00     0.030 A 
HETATM   19  C   UNL     1      22.980  41.504  48.064  1.00  0.00     0.009 A 
HETATM   20  C   UNL     1      22.368  42.412  47.193  1.00  0.00    -0.058 A 
HETATM   21  C   UNL     1      22.689  43.769  47.303  1.00  0.00     0.009 A 
HETATM   22  C   UNL     1      23.583  44.207  48.287  1.00  0.00     0.030 A 
BRANCH  20  23
HETATM   23  C   UNL     1      21.364  41.932  46.172  1.00  0.00     0.038 C 
BRANCH  23  24
HETATM   24  C   UNL     1      22.006  40.984  45.151  1.00  0.00     0.004 C 
BRANCH  24  25
HETATM   25  C   UNL     1      23.076  41.690  44.320  1.00  0.00    -0.004 C 
HETATM   26  C   UNL     1      24.427  41.007  44.467  1.00  0.00     0.005 C 
ENDBRANCH  24  25
ENDBRANCH  23  24
ENDBRANCH  20  23
ENDBRANCH  14  17
ENDBRANCH   1  13
BRANCH   6  27
HETATM   27  C   UNL     1      29.602  45.050  56.081  1.00  0.00     0.060 A 
HETATM   28  C   UNL     1      30.480  44.016  55.732  1.00  0.00     0.031 A 
HETATM   29  C   UNL     1      31.475  43.606  56.626  1.00  0.00     0.002 A 
HETATM   30  C   UNL     1      31.609  44.231  57.863  1.00  0.00     0.000 A 
HETATM   31  C   UNL     1      30.763  45.284  58.205  1.00  0.00     0.002 A 
HETATM   32  C   UNL     1      29.769  45.698  57.316  1.00  0.00     0.031 A 
ENDBRANCH   6  27
TORSDOF 6
ENDMDL
MODEL 10
REMARK VINA RESULT:      -8.4      6.789     10.132
REMARK  6 active torsions:
REMARK  status: ('A' for Active; 'I' for Inactive)
REMARK    1  A    between atoms: C_2  and  C_3 
REMARK    2  A    between atoms: C_3  and  C_4 
REMARK    3  A    between atoms: C_4  and  C_5 
REMARK    4  A    between atoms: C_8  and  N_9 
REMARK       I    between atoms: N_9  and  C_10 
REMARK    5  A    between atoms: C_10  and  C_11 
REMARK    6  A    between atoms: N_16  and  C_17 
ROOT
HETATM    1  C   UNL     1      27.712  39.986  49.489  1.00  0.00     0.098 A 
HETATM    2  C   UNL     1      27.714  40.602  48.117  1.00  0.00     0.205 A 
HETATM    3  O   UNL     1      27.581  41.810  47.944  1.00  0.00    -0.286 OA
HETATM    4  C   UNL     1      27.938  39.657  47.040  1.00  0.00     0.087 A 
HETATM    5  C   UNL     1      28.116  38.314  47.278  1.00  0.00     0.145 A 
HETATM    6  N   UNL     1      28.335  37.698  46.055  1.00  0.00    -0.216 N 
HETATM    7  N   UNL     1      28.377  38.635  45.059  1.00  0.00    -0.170 NA
HETATM    8  C   UNL     1      28.085  39.802  45.650  1.00  0.00     0.069 A 
HETATM    9  C   UNL     1      27.992  41.046  44.847  1.00  0.00     0.073 C 
HETATM   10  N   UNL     1      28.128  37.796  48.531  1.00  0.00    -0.349 N 
HETATM   11  C   UNL     1      27.929  38.655  49.596  1.00  0.00     0.111 A 
HETATM   12  H   UNL     1      28.500  36.876  48.760  1.00  0.00     0.167 HD
ENDROOT
BRANCH   1  13
HETATM   13  C   UNL     1      27.550  40.763  50.754  1.00  0.00     0.261 C 
HETATM   14  N   UNL     1      28.560  41.668  51.010  1.00  0.00    -0.323 N 
HETATM   15  H   UNL     1      29.291  41.759  50.305  1.00  0.00     0.169 HD
HETATM   16  O   UNL     1      26.590  40.533  51.485  1.00  0.00    -0.267 OA
BRANCH  14  17
HETATM   17  C   UNL     1      28.749  42.428  52.185  1.00  0.00     0.035 A 
HETATM   18  C   UNL     1      29.817  42.251  53.064  1.00  0.00     0.030 A 
HETATM   19  C   UNL     1      29.969  43.087  54.174  1.00  0.00     0.009 A 
HETATM   20  C   UNL     1      29.064  44.127  54.418  1.00  0.00    -0.058 A 
HETATM   21  C   UNL     1      27.975  44.284  53.555  1.00  0.00     0.009 A 
HETATM   22  C   UNL     1      27.816  43.435  52.454  1.00  0.00     0.030 A 
BRANCH  20  23
HETATM   23  C   UNL     1      29.279  45.068  55.579  1.00  0.00     0.038 C 
BRANCH  23  24
HETATM   24  C   UNL     1      30.750  45.107  56.011  1.00  0.00     0.004 C 
BRANCH  24  25
HETATM   25  C   UNL     1      30.946  44.500  57.399  1.00  0.00    -0.004 C 
HETATM   26  C   UNL     1      31.810  43.250  57.337  1.00  0.00     0.005 C 
ENDBRANCH  24  25
ENDBRANCH  23  24
ENDBRANCH  20  23
ENDBRANCH  14  17
ENDBRANCH   1  13
BRANCH   6  27
HETATM   27  C   UNL     1      28.514  36.318  45.742  1.00  0.00     0.060 A 
HETATM   28  C   UNL     1      27.574  35.346  46.106  1.00  0.00     0.031 A 
HETATM   29  C   UNL     1      27.802  33.999  45.805  1.00  0.00     0.002 A 
HETATM   30  C   UNL     1      28.959  33.617  45.129  1.00  0.00     0.000 A 
HETATM   31  C   UNL     1      29.882  34.581  44.731  1.00  0.00     0.002 A 
HETATM   32  C   UNL     1      29.659  35.927  45.028  1.00  0.00     0.031 A 
ENDBRANCH   6  27
TORSDOF 6
ENDMDL
