MODEL 1
REMARK VINA RESULT:      -9.0      0.000      0.000
REMARK  5 active torsions:
REMARK  status: ('A' for Active; 'I' for Inactive)
REMARK    1  A    between atoms: C_9  and  C_10 
REMARK    2  A    between atoms: C_13  and  O_14 
REMARK    3  A    between atoms: O_14  and  C_15 
REMARK    4  A    between atoms: C_20  and  C_21 
REMARK       I    between atoms: C_21  and  N_22 
REMARK    5  A    between atoms: N_22  and  C_23 
ROOT
HETATM    1  C   UNL     1      26.271  47.119  51.974  1.00  0.00     0.070 C 
HETATM    2  C   UNL     1      25.647  45.814  51.542  1.00  0.00     0.037 C 
HETATM    3  N   UNL     1      24.741  45.903  50.485  1.00  0.00    -0.192 N 
HETATM    4  C   UNL     1      23.905  44.895  50.165  1.00  0.00     0.725 A 
HETATM    5  N   UNL     1      24.111  43.662  50.717  1.00  0.00    -0.084 N 
HETATM    6  N   UNL     1      23.132  42.796  50.381  1.00  0.00    -0.149 NA
HETATM    7  C   UNL     1      22.395  43.569  49.573  1.00  0.00     0.275 A 
HETATM    8  N   UNL     1      22.833  44.859  49.414  1.00  0.00    -0.054 NA
HETATM    9  C   UNL     1      25.245  43.339  51.583  1.00  0.00     0.202 C 
HETATM   10  C   UNL     1      25.905  44.609  52.118  1.00  0.00     0.062 C 
HETATM   11  H   UNL     1      24.491  46.840  50.174  1.00  0.00     0.184 HD
ENDROOT
BRANCH   9  12
HETATM   12  C   UNL     1      26.208  42.435  50.805  1.00  0.00    -0.028 A 
HETATM   13  C   UNL     1      26.978  41.450  51.444  1.00  0.00     0.012 A 
HETATM   14  C   UNL     1      27.863  40.655  50.713  1.00  0.00     0.037 A 
HETATM   15  C   UNL     1      28.012  40.828  49.337  1.00  0.00     0.074 A 
HETATM   16  C   UNL     1      27.267  41.816  48.694  1.00  0.00     0.037 A 
HETATM   17  C   UNL     1      26.373  42.612  49.422  1.00  0.00     0.012 A 
BRANCH  15  18
HETATM   18  O   UNL     1      28.925  39.994  48.759  1.00  0.00    -0.290 OA
BRANCH  18  19
HETATM   19  C   UNL     1      29.154  38.747  49.392  1.00  0.00     0.505 C 
HETATM   20  F   UNL     1      28.448  37.782  48.755  1.00  0.00    -0.184 F 
HETATM   21  F   UNL     1      30.466  38.443  49.226  1.00  0.00    -0.184 F 
ENDBRANCH  18  19
ENDBRANCH  15  18
ENDBRANCH   9  12
BRANCH  10  22
HETATM   22  C   UNL     1      26.647  44.527  53.414  1.00  0.00     0.256 C 
HETATM   23  N   UNL     1      28.020  44.507  53.294  1.00  0.00    -0.323 N 
HETATM   24  H   UNL     1      28.427  44.621  52.376  1.00  0.00     0.169 HD
HETATM   25  O   UNL     1      26.014  44.430  54.459  1.00  0.00    -0.267 OA
BRANCH  23  26
HETATM   26  C   UNL     1      28.964  44.334  54.333  1.00  0.00     0.035 A 
HETATM   27  C   UNL     1      29.722  43.177  54.522  1.00  0.00     0.029 A 
HETATM   28  C   UNL     1      30.643  43.095  55.571  1.00  0.00     0.002 A 
HETATM   29  C   UNL     1      30.822  44.173  56.435  1.00  0.00     0.000 A 
HETATM   30  C   UNL     1      30.072  45.331  56.256  1.00  0.00     0.002 A 
HETATM   31  C   UNL     1      29.143  45.409  55.215  1.00  0.00     0.029 A 
ENDBRANCH  23  26
ENDBRANCH  10  22
TORSDOF 5
ENDMDL
MODEL 2
REMARK VINA RESULT:      -8.3      2.869      5.915
REMARK  5 active torsions:
REMARK  status: ('A' for Active; 'I' for Inactive)
REMARK    1  A    between atoms: C_9  and  C_10 
REMARK    2  A    between atoms: C_13  and  O_14 
REMARK    3  A    between atoms: O_14  and  C_15 
REMARK    4  A    between atoms: C_20  and  C_21 
REMARK       I    between atoms: C_21  and  N_22 
REMARK    5  A    between atoms: N_22  and  C_23 
ROOT
HETATM    1  C   UNL     1      23.137  42.609  49.859  1.00  0.00     0.070 C 
HETATM    2  C   UNL     1      24.206  43.657  50.053  1.00  0.00     0.037 C 
HETATM    3  N   UNL     1      23.742  44.951  50.292  1.00  0.00    -0.192 N 
HETATM    4  C   UNL     1      24.545  46.031  50.214  1.00  0.00     0.725 A 
HETATM    5  N   UNL     1      25.897  45.848  50.151  1.00  0.00    -0.084 N 
HETATM    6  N   UNL     1      26.550  47.015  49.972  1.00  0.00    -0.149 NA
HETATM    7  C   UNL     1      25.521  47.872  49.993  1.00  0.00     0.275 A 
HETATM    8  N   UNL     1      24.278  47.311  50.139  1.00  0.00    -0.054 NA
HETATM    9  C   UNL     1      26.546  44.539  50.244  1.00  0.00     0.202 C 
HETATM   10  C   UNL     1      25.543  43.413  49.998  1.00  0.00     0.062 C 
HETATM   11  H   UNL     1      22.739  45.102  50.199  1.00  0.00     0.184 HD
ENDROOT
BRANCH   9  12
HETATM   12  C   UNL     1      27.250  44.441  51.602  1.00  0.00    -0.028 A 
HETATM   13  C   UNL     1      28.468  43.762  51.756  1.00  0.00     0.012 A 
HETATM   14  C   UNL     1      29.077  43.670  53.010  1.00  0.00     0.037 A 
HETATM   15  C   UNL     1      28.484  44.239  54.138  1.00  0.00     0.074 A 
HETATM   16  C   UNL     1      27.263  44.900  54.000  1.00  0.00     0.037 A 
HETATM   17  C   UNL     1      26.652  45.000  52.743  1.00  0.00     0.012 A 
BRANCH  15  18
HETATM   18  O   UNL     1      29.181  44.054  55.296  1.00  0.00    -0.290 OA
BRANCH  18  19
HETATM   19  C   UNL     1      30.484  43.506  55.187  1.00  0.00     0.505 C 
HETATM   20  F   UNL     1      31.401  44.487  55.368  1.00  0.00    -0.184 F 
HETATM   21  F   UNL     1      30.642  42.631  56.211  1.00  0.00    -0.184 F 
ENDBRANCH  18  19
ENDBRANCH  15  18
ENDBRANCH   9  12
BRANCH  10  22
HETATM   22  C   UNL     1      26.058  42.110  49.476  1.00  0.00     0.256 C 
HETATM   23  N   UNL     1      26.494  41.230  50.443  1.00  0.00    -0.323 N 
HETATM   24  H   UNL     1      26.372  41.480  51.414  1.00  0.00     0.169 HD
HETATM   25  O   UNL     1      26.113  41.934  48.263  1.00  0.00    -0.267 OA
BRANCH  23  26
HETATM   26  C   UNL     1      27.117  39.978  50.237  1.00  0.00     0.035 A 
HETATM   27  C   UNL     1      26.459  38.840  49.764  1.00  0.00     0.029 A 
HETATM   28  C   UNL     1      27.156  37.642  49.578  1.00  0.00     0.002 A 
HETATM   29  C   UNL     1      28.520  37.572  49.854  1.00  0.00     0.000 A 
HETATM   30  C   UNL     1      29.186  38.700  50.325  1.00  0.00     0.002 A 
HETATM   31  C   UNL     1      28.487  39.894  50.523  1.00  0.00     0.029 A 
ENDBRANCH  23  26
ENDBRANCH  10  22
TORSDOF 5
ENDMDL
MODEL 3
REMARK VINA RESULT:      -8.0      3.472      6.864
REMARK  5 active torsions:
REMARK  status: ('A' for Active; 'I' for Inactive)
REMARK    1  A    between atoms: C_9  and  C_10 
REMARK    2  A    between atoms: C_13  and  O_14 
REMARK    3  A    between atoms: O_14  and  C_15 
REMARK    4  A    between atoms: C_20  and  C_21 
REMARK       I    between atoms: C_21  and  N_22 
REMARK    5  A    between atoms: N_22  and  C_23 
ROOT
HETATM    1  C   UNL     1      22.810  43.173  49.654  1.00  0.00     0.070 C 
HETATM    2  C   UNL     1      23.931  44.155  49.897  1.00  0.00     0.037 C 
HETATM    3  N   UNL     1      23.554  45.497  49.940  1.00  0.00    -0.192 N 
HETATM    4  C   UNL     1      24.451  46.501  49.875  1.00  0.00     0.725 A 
HETATM    5  N   UNL     1      25.779  46.214  50.024  1.00  0.00    -0.084 N 
HETATM    6  N   UNL     1      26.549  47.304  49.828  1.00  0.00    -0.149 NA
HETATM    7  C   UNL     1      25.605  48.231  49.619  1.00  0.00     0.275 A 
HETATM    8  N   UNL     1      24.309  47.781  49.639  1.00  0.00    -0.054 NA
HETATM    9  C   UNL     1      26.292  44.879  50.335  1.00  0.00     0.202 C 
HETATM   10  C   UNL     1      25.236  43.809  50.058  1.00  0.00     0.062 C 
HETATM   11  H   UNL     1      22.589  45.710  49.691  1.00  0.00     0.184 HD
ENDROOT
BRANCH   9  12
HETATM   12  C   UNL     1      26.794  44.877  51.783  1.00  0.00    -0.028 A 
HETATM   13  C   UNL     1      26.184  45.655  52.779  1.00  0.00     0.012 A 
HETATM   14  C   UNL     1      26.676  45.650  54.086  1.00  0.00     0.037 A 
HETATM   15  C   UNL     1      27.790  44.884  54.429  1.00  0.00     0.074 A 
HETATM   16  C   UNL     1      28.417  44.121  53.444  1.00  0.00     0.037 A 
HETATM   17  C   UNL     1      27.923  44.118  52.133  1.00  0.00     0.012 A 
BRANCH  15  18
HETATM   18  O   UNL     1      28.168  44.992  55.736  1.00  0.00    -0.290 OA
BRANCH  18  19
HETATM   19  C   UNL     1      28.826  46.187  56.123  1.00  0.00     0.505 C 
HETATM   20  F   UNL     1      28.642  46.392  57.450  1.00  0.00    -0.184 F 
HETATM   21  F   UNL     1      30.156  45.994  55.940  1.00  0.00    -0.184 F 
ENDBRANCH  18  19
ENDBRANCH  15  18
ENDBRANCH   9  12
BRANCH  10  22
HETATM   22  C   UNL     1      25.702  42.423  49.743  1.00  0.00     0.256 C 
HETATM   23  N   UNL     1      26.222  42.260  48.478  1.00  0.00    -0.323 N 
HETATM   24  H   UNL     1      26.325  43.075  47.889  1.00  0.00     0.169 HD
HETATM   25  O   UNL     1      25.545  41.538  50.577  1.00  0.00    -0.267 OA
BRANCH  23  26
HETATM   26  C   UNL     1      26.642  41.051  47.878  1.00  0.00     0.035 A 
HETATM   27  C   UNL     1      25.901  40.347  46.926  1.00  0.00     0.029 A 
HETATM   28  C   UNL     1      26.397  39.161  46.374  1.00  0.00     0.002 A 
HETATM   29  C   UNL     1      27.643  38.674  46.760  1.00  0.00     0.000 A 
HETATM   30  C   UNL     1      28.391  39.368  47.707  1.00  0.00     0.002 A 
HETATM   31  C   UNL     1      27.890  40.545  48.268  1.00  0.00     0.029 A 
ENDBRANCH  23  26
ENDBRANCH  10  22
TORSDOF 5
ENDMDL
MODEL 4
REMARK VINA RESULT:      -7.9      4.161      7.685
REMARK  5 active torsions:
REMARK  status: ('A' for Active; 'I' for Inactive)
REMARK    1  A    between atoms: C_9  and  C_10 
REMARK    2  A    between atoms: C_13  and  O_14 
REMARK    3  A    between atoms: O_14  and  C_15 
REMARK    4  A    between atoms: C_20  and  C_21 
REMARK       I    between atoms: C_21  and  N_22 
REMARK    5  A    between atoms: N_22  and  C_23 
ROOT
HETATM    1  C   UNL     1      22.126  47.307  48.998  1.00  0.00     0.070 C 
HETATM    2  C   UNL     1      23.614  47.311  49.253  1.00  0.00     0.037 C 
HETATM    3  N   UNL     1      24.231  48.561  49.181  1.00  0.00    -0.192 N 
HETATM    4  C   UNL     1      25.570  48.700  49.111  1.00  0.00     0.725 A 
HETATM    5  N   UNL     1      26.364  47.619  49.370  1.00  0.00    -0.084 N 
HETATM    6  N   UNL     1      27.667  47.894  49.156  1.00  0.00    -0.149 NA
HETATM    7  C   UNL     1      27.587  49.189  48.822  1.00  0.00     0.275 A 
HETATM    8  N   UNL     1      26.323  49.720  48.782  1.00  0.00    -0.054 NA
HETATM    9  C   UNL     1      25.850  46.318  49.804  1.00  0.00     0.202 C 
HETATM   10  C   UNL     1      24.352  46.203  49.526  1.00  0.00     0.062 C 
HETATM   11  H   UNL     1      23.658  49.336  48.852  1.00  0.00     0.184 HD
ENDROOT
BRANCH   9  12
HETATM   12  C   UNL     1      26.212  46.121  51.280  1.00  0.00    -0.028 A 
HETATM   13  C   UNL     1      25.941  47.103  52.246  1.00  0.00     0.012 A 
HETATM   14  C   UNL     1      26.301  46.905  53.581  1.00  0.00     0.037 A 
HETATM   15  C   UNL     1      26.948  45.736  53.982  1.00  0.00     0.074 A 
HETATM   16  C   UNL     1      27.240  44.761  53.028  1.00  0.00     0.037 A 
HETATM   17  C   UNL     1      26.875  44.952  51.689  1.00  0.00     0.012 A 
BRANCH  15  18
HETATM   18  O   UNL     1      27.255  45.689  55.312  1.00  0.00    -0.290 OA
BRANCH  18  19
HETATM   19  C   UNL     1      28.628  45.696  55.659  1.00  0.00     0.505 C 
HETATM   20  F   UNL     1      29.247  46.723  55.028  1.00  0.00    -0.184 F 
HETATM   21  F   UNL     1      28.709  45.952  56.989  1.00  0.00    -0.184 F 
ENDBRANCH  18  19
ENDBRANCH  15  18
ENDBRANCH   9  12
BRANCH  10  22
HETATM   22  C   UNL     1      23.773  44.837  49.336  1.00  0.00     0.256 C 
HETATM   23  N   UNL     1      23.918  44.317  48.068  1.00  0.00    -0.323 N 
HETATM   24  H   UNL     1      24.454  44.840  47.390  1.00  0.00     0.169 HD
HETATM   25  O   UNL     1      23.178  44.307  50.268  1.00  0.00    -0.267 OA
BRANCH  23  26
HETATM   26  C   UNL     1      23.386  43.102  47.579  1.00  0.00     0.035 A 
HETATM   27  C   UNL     1      23.911  41.841  47.869  1.00  0.00     0.029 A 
HETATM   28  C   UNL     1      23.314  40.687  47.352  1.00  0.00     0.002 A 
HETATM   29  C   UNL     1      22.181  40.782  46.547  1.00  0.00     0.000 A 
HETATM   30  C   UNL     1      21.649  42.033  46.251  1.00  0.00     0.002 A 
HETATM   31  C   UNL     1      22.252  43.187  46.758  1.00  0.00     0.029 A 
ENDBRANCH  23  26
ENDBRANCH  10  22
TORSDOF 5
ENDMDL
MODEL 5
REMARK VINA RESULT:      -7.8      7.437     10.934
REMARK  5 active torsions:
REMARK  status: ('A' for Active; 'I' for Inactive)
REMARK    1  A    between atoms: C_9  and  C_10 
REMARK    2  A    between atoms: C_13  and  O_14 
REMARK    3  A    between atoms: O_14  and  C_15 
REMARK    4  A    between atoms: C_20  and  C_21 
REMARK       I    between atoms: C_21  and  N_22 
REMARK    5  A    between atoms: N_22  and  C_23 
ROOT
HETATM    1  C   UNL     1      19.392  45.110  48.358  1.00  0.00     0.070 C 
HETATM    2  C   UNL     1      19.706  46.579  48.518  1.00  0.00     0.037 C 
HETATM    3  N   UNL     1      19.272  47.158  49.711  1.00  0.00    -0.192 N 
HETATM    4  C   UNL     1      19.228  48.493  49.890  1.00  0.00     0.725 A 
HETATM    5  N   UNL     1      19.855  49.304  48.986  1.00  0.00    -0.084 N 
HETATM    6  N   UNL     1      19.630  50.609  49.246  1.00  0.00    -0.149 NA
HETATM    7  C   UNL     1      18.898  50.508  50.363  1.00  0.00     0.275 A 
HETATM    8  N   UNL     1      18.630  49.232  50.791  1.00  0.00    -0.054 NA
HETATM    9  C   UNL     1      20.653  48.807  47.864  1.00  0.00     0.202 C 
HETATM   10  C   UNL     1      20.353  47.334  47.591  1.00  0.00     0.062 C 
HETATM   11  H   UNL     1      18.686  46.582  50.313  1.00  0.00     0.184 HD
ENDROOT
BRANCH   9  12
HETATM   12  C   UNL     1      22.131  49.081  48.159  1.00  0.00    -0.028 A 
HETATM   13  C   UNL     1      22.793  50.204  47.638  1.00  0.00     0.012 A 
HETATM   14  C   UNL     1      24.147  50.419  47.906  1.00  0.00     0.037 A 
HETATM   15  C   UNL     1      24.875  49.518  48.685  1.00  0.00     0.074 A 
HETATM   16  C   UNL     1      24.232  48.389  49.193  1.00  0.00     0.037 A 
HETATM   17  C   UNL     1      22.872  48.173  48.932  1.00  0.00     0.012 A 
BRANCH  15  18
HETATM   18  O   UNL     1      26.189  49.846  48.848  1.00  0.00    -0.290 OA
BRANCH  18  19
HETATM   19  C   UNL     1      27.095  48.786  49.100  1.00  0.00     0.505 C 
HETATM   20  F   UNL     1      28.366  49.240  48.976  1.00  0.00    -0.184 F 
HETATM   21  F   UNL     1      26.938  48.419  50.397  1.00  0.00    -0.184 F 
ENDBRANCH  18  19
ENDBRANCH  15  18
ENDBRANCH   9  12
BRANCH  10  22
HETATM   22  C   UNL     1      20.577  46.812  46.207  1.00  0.00     0.256 C 
HETATM   23  N   UNL     1      19.463  46.823  45.396  1.00  0.00    -0.323 N 
HETATM   24  H   UNL     1      18.613  47.239  45.748  1.00  0.00     0.169 HD
HETATM   25  O   UNL     1      21.682  46.371  45.908  1.00  0.00    -0.267 OA
BRANCH  23  26
HETATM   26  C   UNL     1      19.358  46.302  44.086  1.00  0.00     0.035 A 
HETATM   27  C   UNL     1      19.454  47.071  42.924  1.00  0.00     0.029 A 
HETATM   28  C   UNL     1      19.349  46.472  41.665  1.00  0.00     0.002 A 
HETATM   29  C   UNL     1      19.157  45.097  41.554  1.00  0.00     0.000 A 
HETATM   30  C   UNL     1      19.060  44.320  42.706  1.00  0.00     0.002 A 
HETATM   31  C   UNL     1      19.152  44.921  43.964  1.00  0.00     0.029 A 
ENDBRANCH  23  26
ENDBRANCH  10  22
TORSDOF 5
ENDMDL
MODEL 6
REMARK VINA RESULT:      -7.7     11.609     14.698
REMARK  5 active torsions:
REMARK  status: ('A' for Active; 'I' for Inactive)
REMARK    1  A    between atoms: C_9  and  C_10 
REMARK    2  A    between atoms: C_13  and  O_14 
REMARK    3  A    between atoms: O_14  and  C_15 
REMARK    4  A    between atoms: C_20  and  C_21 
REMARK       I    between atoms: C_21  and  N_22 
REMARK    5  A    between atoms: N_22  and  C_23 
ROOT
HETATM    1  C   UNL     1      14.313  54.245  46.780  1.00  0.00     0.070 C 
HETATM    2  C   UNL     1      14.864  52.891  47.160  1.00  0.00     0.037 C 
HETATM    3  N   UNL     1      14.990  51.979  46.112  1.00  0.00    -0.192 N 
HETATM    4  C   UNL     1      15.201  50.665  46.322  1.00  0.00     0.725 A 
HETATM    5  N   UNL     1      15.553  50.241  47.572  1.00  0.00    -0.084 N 
HETATM    6  N   UNL     1      15.624  48.895  47.641  1.00  0.00    -0.149 NA
HETATM    7  C   UNL     1      15.354  48.575  46.369  1.00  0.00     0.275 A 
HETATM    8  N   UNL     1      15.090  49.628  45.529  1.00  0.00    -0.054 NA
HETATM    9  C   UNL     1      15.798  51.144  48.698  1.00  0.00     0.202 C 
HETATM   10  C   UNL     1      15.217  52.530  48.423  1.00  0.00     0.062 C 
HETATM   11  H   UNL     1      14.597  52.256  45.214  1.00  0.00     0.184 HD
ENDROOT
BRANCH   9  12
HETATM   12  C   UNL     1      17.303  51.163  48.987  1.00  0.00    -0.028 A 
HETATM   13  C   UNL     1      17.887  50.297  49.924  1.00  0.00     0.012 A 
HETATM   14  C   UNL     1      19.258  50.349  50.184  1.00  0.00     0.037 A 
HETATM   15  C   UNL     1      20.076  51.270  49.528  1.00  0.00     0.074 A 
HETATM   16  C   UNL     1      19.504  52.149  48.608  1.00  0.00     0.037 A 
HETATM   17  C   UNL     1      18.130  52.095  48.340  1.00  0.00     0.012 A 
BRANCH  15  18
HETATM   18  O   UNL     1      21.390  51.220  49.895  1.00  0.00    -0.290 OA
BRANCH  18  19
HETATM   19  C   UNL     1      22.309  50.715  48.941  1.00  0.00     0.505 C 
HETATM   20  F   UNL     1      23.014  51.743  48.409  1.00  0.00    -0.184 F 
HETATM   21  F   UNL     1      23.199  49.938  49.608  1.00  0.00    -0.184 F 
ENDBRANCH  18  19
ENDBRANCH  15  18
ENDBRANCH   9  12
BRANCH  10  22
HETATM   22  C   UNL     1      14.836  53.381  49.592  1.00  0.00     0.256 C 
HETATM   23  N   UNL     1      15.400  54.638  49.602  1.00  0.00    -0.323 N 
HETATM   24  H   UNL     1      15.955  54.926  48.808  1.00  0.00     0.169 HD
HETATM   25  O   UNL     1      14.119  52.906  50.466  1.00  0.00    -0.267 OA
BRANCH  23  26
HETATM   26  C   UNL     1      15.298  55.610  50.624  1.00  0.00     0.035 A 
HETATM   27  C   UNL     1      15.183  55.312  51.984  1.00  0.00     0.029 A 
HETATM   28  C   UNL     1      15.099  56.337  52.931  1.00  0.00     0.002 A 
HETATM   29  C   UNL     1      15.140  57.670  52.529  1.00  0.00     0.000 A 
HETATM   30  C   UNL     1      15.256  57.979  51.177  1.00  0.00     0.002 A 
HETATM   31  C   UNL     1      15.327  56.955  50.229  1.00  0.00     0.029 A 
ENDBRANCH  23  26
ENDBRANCH  10  22
TORSDOF 5
ENDMDL
MODEL 7
REMARK VINA RESULT:      -7.6     12.112     13.333
REMARK  5 active torsions:
REMARK  status: ('A' for Active; 'I' for Inactive)
REMARK    1  A    between atoms: C_9  and  C_10 
REMARK    2  A    between atoms: C_13  and  O_14 
REMARK    3  A    between atoms: O_14  and  C_15 
REMARK    4  A    between atoms: C_20  and  C_21 
REMARK       I    between atoms: C_21  and  N_22 
REMARK    5  A    between atoms: N_22  and  C_23 
ROOT
HETATM    1  C   UNL     1      28.283  52.311  38.379  1.00  0.00     0.070 C 
HETATM    2  C   UNL     1      27.532  51.066  38.786  1.00  0.00     0.037 C 
HETATM    3  N   UNL     1      26.413  50.760  38.011  1.00  0.00    -0.192 N 
HETATM    4  C   UNL     1      25.492  49.857  38.400  1.00  0.00     0.725 A 
HETATM    5  N   UNL     1      25.775  49.032  39.452  1.00  0.00    -0.084 N 
HETATM    6  N   UNL     1      24.717  48.263  39.782  1.00  0.00    -0.149 NA
HETATM    7  C   UNL     1      23.842  48.642  38.842  1.00  0.00     0.275 A 
HETATM    8  N   UNL     1      24.276  49.615  37.977  1.00  0.00    -0.054 NA
HETATM    9  C   UNL     1      27.065  49.009  40.143  1.00  0.00     0.202 C 
HETATM   10  C   UNL     1      27.873  50.270  39.834  1.00  0.00     0.062 C 
HETATM   11  H   UNL     1      26.131  51.454  37.320  1.00  0.00     0.184 HD
ENDROOT
BRANCH   9  12
HETATM   12  C   UNL     1      27.794  47.714  39.770  1.00  0.00    -0.028 A 
HETATM   13  C   UNL     1      27.619  46.529  40.502  1.00  0.00     0.012 A 
HETATM   14  C   UNL     1      28.312  45.368  40.153  1.00  0.00     0.037 A 
HETATM   15  C   UNL     1      29.203  45.362  39.078  1.00  0.00     0.074 A 
HETATM   16  C   UNL     1      29.399  46.538  38.355  1.00  0.00     0.037 A 
HETATM   17  C   UNL     1      28.701  47.703  38.698  1.00  0.00     0.012 A 
BRANCH  15  18
HETATM   18  O   UNL     1      29.821  44.164  38.866  1.00  0.00    -0.290 OA
BRANCH  18  19
HETATM   19  C   UNL     1      29.565  43.513  37.634  1.00  0.00     0.505 C 
HETATM   20  F   UNL     1      29.860  42.195  37.751  1.00  0.00    -0.184 F 
HETATM   21  F   UNL     1      28.231  43.593  37.403  1.00  0.00    -0.184 F 
ENDBRANCH  18  19
ENDBRANCH  15  18
ENDBRANCH   9  12
BRANCH  10  22
HETATM   22  C   UNL     1      28.887  50.721  40.836  1.00  0.00     0.256 C 
HETATM   23  N   UNL     1      30.196  50.454  40.495  1.00  0.00    -0.323 N 
HETATM   24  H   UNL     1      30.387  50.053  39.588  1.00  0.00     0.169 HD
HETATM   25  O   UNL     1      28.505  51.230  41.884  1.00  0.00    -0.267 OA
BRANCH  23  26
HETATM   26  C   UNL     1      31.345  50.675  41.289  1.00  0.00     0.035 A 
HETATM   27  C   UNL     1      31.412  50.428  42.662  1.00  0.00     0.029 A 
HETATM   28  C   UNL     1      32.595  50.665  43.369  1.00  0.00     0.002 A 
HETATM   29  C   UNL     1      33.725  51.142  42.709  1.00  0.00     0.000 A 
HETATM   30  C   UNL     1      33.670  51.391  41.341  1.00  0.00     0.002 A 
HETATM   31  C   UNL     1      32.485  51.167  40.636  1.00  0.00     0.029 A 
ENDBRANCH  23  26
ENDBRANCH  10  22
TORSDOF 5
ENDMDL
MODEL 8
REMARK VINA RESULT:      -7.6     10.307     13.672
REMARK  5 active torsions:
REMARK  status: ('A' for Active; 'I' for Inactive)
REMARK    1  A    between atoms: C_9  and  C_10 
REMARK    2  A    between atoms: C_13  and  O_14 
REMARK    3  A    between atoms: O_14  and  C_15 
REMARK    4  A    between atoms: C_20  and  C_21 
REMARK       I    between atoms: C_21  and  N_22 
REMARK    5  A    between atoms: N_22  and  C_23 
ROOT
HETATM    1  C   UNL     1      15.176  51.994  46.564  1.00  0.00     0.070 C 
HETATM    2  C   UNL     1      16.009  50.987  47.321  1.00  0.00     0.037 C 
HETATM    3  N   UNL     1      16.143  49.740  46.710  1.00  0.00    -0.192 N 
HETATM    4  C   UNL     1      16.614  48.662  47.368  1.00  0.00     0.725 A 
HETATM    5  N   UNL     1      17.212  48.837  48.585  1.00  0.00    -0.084 N 
HETATM    6  N   UNL     1      17.531  47.657  49.157  1.00  0.00    -0.149 NA
HETATM    7  C   UNL     1      17.143  46.811  48.195  1.00  0.00     0.275 A 
HETATM    8  N   UNL     1      16.577  47.385  47.084  1.00  0.00    -0.054 NA
HETATM    9  C   UNL     1      17.451  50.147  49.193  1.00  0.00     0.202 C 
HETATM   10  C   UNL     1      16.598  51.224  48.524  1.00  0.00     0.062 C 
HETATM   11  H   UNL     1      15.582  49.576  45.876  1.00  0.00     0.184 HD
ENDROOT
BRANCH   9  12
HETATM   12  C   UNL     1      18.954  50.440  49.138  1.00  0.00    -0.028 A 
HETATM   13  C   UNL     1      19.659  50.466  47.924  1.00  0.00     0.012 A 
HETATM   14  C   UNL     1      21.033  50.716  47.905  1.00  0.00     0.037 A 
HETATM   15  C   UNL     1      21.738  50.932  49.090  1.00  0.00     0.074 A 
HETATM   16  C   UNL     1      21.052  50.890  50.303  1.00  0.00     0.037 A 
HETATM   17  C   UNL     1      19.672  50.646  50.327  1.00  0.00     0.012 A 
BRANCH  15  18
HETATM   18  O   UNL     1      23.076  51.144  48.919  1.00  0.00    -0.290 OA
BRANCH  18  19
HETATM   19  C   UNL     1      23.813  50.128  48.263  1.00  0.00     0.505 C 
HETATM   20  F   UNL     1      24.802  50.693  47.528  1.00  0.00    -0.184 F 
HETATM   21  F   UNL     1      24.419  49.383  49.221  1.00  0.00    -0.184 F 
ENDBRANCH  18  19
ENDBRANCH  15  18
ENDBRANCH   9  12
BRANCH  10  22
HETATM   22  C   UNL     1      16.244  52.439  49.320  1.00  0.00     0.256 C 
HETATM   23  N   UNL     1      14.936  52.486  49.754  1.00  0.00    -0.323 N 
HETATM   24  H   UNL     1      14.340  51.690  49.579  1.00  0.00     0.169 HD
HETATM   25  O   UNL     1      17.089  53.312  49.483  1.00  0.00    -0.267 OA
BRANCH  23  26
HETATM   26  C   UNL     1      14.302  53.551  50.433  1.00  0.00     0.035 A 
HETATM   27  C   UNL     1      14.840  54.208  51.542  1.00  0.00     0.029 A 
HETATM   28  C   UNL     1      14.149  55.261  52.149  1.00  0.00     0.002 A 
HETATM   29  C   UNL     1      12.918  55.676  51.646  1.00  0.00     0.000 A 
HETATM   30  C   UNL     1      12.372  55.029  50.541  1.00  0.00     0.002 A 
HETATM   31  C   UNL     1      13.056  53.968  49.943  1.00  0.00     0.029 A 
ENDBRANCH  23  26
ENDBRANCH  10  22
TORSDOF 5
ENDMDL
MODEL 9
REMARK VINA RESULT:      -7.5      4.316      6.128
REMARK  5 active torsions:
REMARK  status: ('A' for Active; 'I' for Inactive)
REMARK    1  A    between atoms: C_9  and  C_10 
REMARK    2  A    between atoms: C_13  and  O_14 
REMARK    3  A    between atoms: O_14  and  C_15 
REMARK    4  A    between atoms: C_20  and  C_21 
REMARK       I    between atoms: C_21  and  N_22 
REMARK    5  A    between atoms: N_22  and  C_23 
ROOT
HETATM    1  C   UNL     1      27.771  48.482  49.213  1.00  0.00     0.070 C 
HETATM    2  C   UNL     1      26.262  48.520  49.163  1.00  0.00     0.037 C 
HETATM    3  N   UNL     1      25.715  49.393  48.222  1.00  0.00    -0.192 N 
HETATM    4  C   UNL     1      24.414  49.745  48.236  1.00  0.00     0.725 A 
HETATM    5  N   UNL     1      23.547  49.047  49.028  1.00  0.00    -0.084 N 
HETATM    6  N   UNL     1      22.311  49.587  49.010  1.00  0.00    -0.149 NA
HETATM    7  C   UNL     1      22.497  50.584  48.136  1.00  0.00     0.275 A 
HETATM    8  N   UNL     1      23.769  50.716  47.639  1.00  0.00    -0.054 NA
HETATM    9  C   UNL     1      23.928  47.871  49.812  1.00  0.00     0.202 C 
HETATM   10  C   UNL     1      25.446  47.785  49.965  1.00  0.00     0.062 C 
HETATM   11  H   UNL     1      26.366  50.009  47.736  1.00  0.00     0.184 HD
ENDROOT
BRANCH   9  12
HETATM   12  C   UNL     1      23.313  46.630  49.156  1.00  0.00    -0.028 A 
HETATM   13  C   UNL     1      22.569  46.712  47.969  1.00  0.00     0.012 A 
HETATM   14  C   UNL     1      22.001  45.567  47.405  1.00  0.00     0.037 A 
HETATM   15  C   UNL     1      22.148  44.320  48.013  1.00  0.00     0.074 A 
HETATM   16  C   UNL     1      22.869  44.229  49.204  1.00  0.00     0.037 A 
HETATM   17  C   UNL     1      23.446  45.373  49.770  1.00  0.00     0.012 A 
BRANCH  15  18
HETATM   18  O   UNL     1      21.524  43.297  47.360  1.00  0.00    -0.290 OA
BRANCH  18  19
HETATM   19  C   UNL     1      20.762  43.630  46.214  1.00  0.00     0.505 C 
HETATM   20  F   UNL     1      20.967  42.700  45.250  1.00  0.00    -0.184 F 
HETATM   21  F   UNL     1      19.452  43.548  46.560  1.00  0.00    -0.184 F 
ENDBRANCH  18  19
ENDBRANCH  15  18
ENDBRANCH   9  12
BRANCH  10  22
HETATM   22  C   UNL     1      25.996  47.062  51.153  1.00  0.00     0.256 C 
HETATM   23  N   UNL     1      26.347  45.750  50.921  1.00  0.00    -0.323 N 
HETATM   24  H   UNL     1      26.286  45.392  49.978  1.00  0.00     0.169 HD
HETATM   25  O   UNL     1      26.045  47.641  52.233  1.00  0.00    -0.267 OA
BRANCH  23  26
HETATM   26  C   UNL     1      26.795  44.806  51.874  1.00  0.00     0.035 A 
HETATM   27  C   UNL     1      26.175  44.576  53.104  1.00  0.00     0.029 A 
HETATM   28  C   UNL     1      26.678  43.613  53.984  1.00  0.00     0.002 A 
HETATM   29  C   UNL     1      27.800  42.863  53.639  1.00  0.00     0.000 A 
HETATM   30  C   UNL     1      28.426  43.084  52.415  1.00  0.00     0.002 A 
HETATM   31  C   UNL     1      27.931  44.054  51.541  1.00  0.00     0.029 A 
ENDBRANCH  23  26
ENDBRANCH  10  22
TORSDOF 5
ENDMDL
MODEL 10
REMARK VINA RESULT:      -7.5     13.358     15.570
REMARK  5 active torsions:
REMARK  status: ('A' for Active; 'I' for Inactive)
REMARK    1  A    between atoms: C_9  and  C_10 
REMARK    2  A    between atoms: C_13  and  O_14 
REMARK    3  A    between atoms: O_14  and  C_15 
REMARK    4  A    between atoms: C_20  and  C_21 
REMARK       I    between atoms: C_21  and  N_22 
REMARK    5  A    between atoms: N_22  and  C_23 
ROOT
HETATM    1  C   UNL     1      24.392  48.162  36.403  1.00  0.00     0.070 C 
HETATM    2  C   UNL     1      25.339  48.219  37.578  1.00  0.00     0.037 C 
HETATM    3  N   UNL     1      26.428  47.349  37.515  1.00  0.00    -0.192 N 
HETATM    4  C   UNL     1      27.201  47.083  38.586  1.00  0.00     0.725 A 
HETATM    5  N   UNL     1      27.083  47.864  39.700  1.00  0.00    -0.084 N 
HETATM    6  N   UNL     1      27.844  47.405  40.715  1.00  0.00    -0.149 NA
HETATM    7  C   UNL     1      28.441  46.367  40.116  1.00  0.00     0.275 A 
HETATM    8  N   UNL     1      28.075  46.135  38.814  1.00  0.00    -0.054 NA
HETATM    9  C   UNL     1      26.216  49.041  39.779  1.00  0.00     0.202 C 
HETATM   10  C   UNL     1      25.181  49.034  38.655  1.00  0.00     0.062 C 
HETATM   11  H   UNL     1      26.432  46.676  36.751  1.00  0.00     0.184 HD
ENDROOT
BRANCH   9  12
HETATM   12  C   UNL     1      27.097  50.295  39.786  1.00  0.00    -0.028 A 
HETATM   13  C   UNL     1      27.474  50.928  40.980  1.00  0.00     0.012 A 
HETATM   14  C   UNL     1      28.261  52.082  40.956  1.00  0.00     0.037 A 
HETATM   15  C   UNL     1      28.680  52.638  39.747  1.00  0.00     0.074 A 
HETATM   16  C   UNL     1      28.296  52.028  38.552  1.00  0.00     0.037 A 
HETATM   17  C   UNL     1      27.512  50.867  38.572  1.00  0.00     0.012 A 
BRANCH  15  18
HETATM   18  O   UNL     1      29.426  53.773  39.876  1.00  0.00    -0.290 OA
BRANCH  18  19
HETATM   19  C   UNL     1      30.603  53.688  40.660  1.00  0.00     0.505 C 
HETATM   20  F   UNL     1      31.552  53.005  39.974  1.00  0.00    -0.184 F 
HETATM   21  F   UNL     1      31.074  54.950  40.823  1.00  0.00    -0.184 F 
ENDBRANCH  18  19
ENDBRANCH  15  18
ENDBRANCH   9  12
BRANCH  10  22
HETATM   22  C   UNL     1      23.893  49.764  38.876  1.00  0.00     0.256 C 
HETATM   23  N   UNL     1      23.133  49.292  39.924  1.00  0.00    -0.323 N 
HETATM   24  H   UNL     1      23.514  48.559  40.507  1.00  0.00     0.169 HD
HETATM   25  O   UNL     1      23.579  50.664  38.105  1.00  0.00    -0.267 OA
BRANCH  23  26
HETATM   26  C   UNL     1      21.838  49.719  40.298  1.00  0.00     0.035 A 
HETATM   27  C   UNL     1      21.498  51.045  40.576  1.00  0.00     0.029 A 
HETATM   28  C   UNL     1      20.187  51.382  40.927  1.00  0.00     0.002 A 
HETATM   29  C   UNL     1      19.202  50.400  40.995  1.00  0.00     0.000 A 
HETATM   30  C   UNL     1      19.530  49.076  40.720  1.00  0.00     0.002 A 
HETATM   31  C   UNL     1      20.842  48.736  40.381  1.00  0.00     0.029 A 
ENDBRANCH  23  26
ENDBRANCH  10  22
TORSDOF 5
ENDMDL
