MODEL 1
REMARK VINA RESULT:      -8.7      0.000      0.000
REMARK  6 active torsions:
REMARK  status: ('A' for Active; 'I' for Inactive)
REMARK    1  A    between atoms: O_2  and  C_3 
REMARK    2  A    between atoms: C_6  and  C_7 
REMARK    3  A    between atoms: C_7  and  N_8 
REMARK       I    between atoms: N_8  and  C_9 
REMARK    4  A    between atoms: C_9  and  C_10 
REMARK    5  A    between atoms: C_10  and  O_11 
REMARK    6  A    between atoms: N_12  and  C_13 
ROOT
HETATM    1  C   UNL     1      27.929  49.098  40.737  1.00  0.00     0.256 C 
HETATM    2  N   UNL     1      28.101  50.177  39.745  1.00  0.00    -0.254 N 
HETATM    3  C   UNL     1      27.249  50.271  38.653  1.00  0.00     0.330 C 
HETATM    4  O   UNL     1      27.149  51.242  37.899  1.00  0.00    -0.246 OA
HETATM    5  N   UNL     1      26.430  49.221  38.383  1.00  0.00    -0.308 N 
HETATM    6  C   UNL     1      26.337  48.050  39.110  1.00  0.00     0.048 A 
HETATM    7  C   UNL     1      27.055  47.939  40.289  1.00  0.00     0.035 A 
HETATM    8  C   UNL     1      25.511  47.020  38.655  1.00  0.00     0.031 A 
HETATM    9  C   UNL     1      25.401  45.841  39.390  1.00  0.00     0.021 A 
HETATM   10  C   UNL     1      26.103  45.716  40.585  1.00  0.00     0.011 A 
HETATM   11 BR   UNL     1      25.961  44.124  41.595  1.00  0.00    -0.051 Br
HETATM   12  C   UNL     1      26.913  46.756  41.043  1.00  0.00     0.034 A 
HETATM   13  H   UNL     1      25.872  49.343  37.547  1.00  0.00     0.170 HD
ENDROOT
BRANCH   1  14
HETATM   14  C   UNL     1      29.343  48.479  41.145  1.00  0.00     0.279 C 
HETATM   15  N   UNL     1      29.890  49.070  42.276  1.00  0.00    -0.352 N 
HETATM   16  H   UNL     1      29.430  49.903  42.633  1.00  0.00     0.162 HD
HETATM   17  O   UNL     1      29.870  47.530  40.566  1.00  0.00    -0.268 OA
BRANCH  15  18
HETATM   18  C   UNL     1      31.119  48.621  42.876  1.00  0.00     0.161 C 
BRANCH  18  19
HETATM   19  C   UNL     1      32.231  49.625  42.721  1.00  0.00    -0.040 A 
HETATM   20  C   UNL     1      32.299  50.757  43.540  1.00  0.00     0.011 A 
HETATM   21  C   UNL     1      33.371  51.647  43.423  1.00  0.00     0.037 A 
HETATM   22  C   UNL     1      34.389  51.418  42.496  1.00  0.00     0.068 A 
HETATM   23  C   UNL     1      34.302  50.317  41.645  1.00  0.00     0.037 A 
HETATM   24  C   UNL     1      33.230  49.426  41.758  1.00  0.00     0.011 A 
BRANCH  22  25
HETATM   25  O   UNL     1      35.401  52.339  42.505  1.00  0.00    -0.356 OA
HETATM   26  C   UNL     1      36.176  52.400  43.698  1.00  0.00     0.210 C 
ENDBRANCH  22  25
ENDBRANCH  18  19
ENDBRANCH  15  18
ENDBRANCH   1  14
BRANCH   1  27
HETATM   27  O   UNL     1      27.239  49.665  41.854  1.00  0.00    -0.359 OA
HETATM   28  H   UNL     1      27.616  50.561  41.920  1.00  0.00     0.213 HD
ENDBRANCH   1  27
BRANCH   2  29
HETATM   29  C   UNL     1      29.135  51.181  39.940  1.00  0.00     0.042 A 
HETATM   30  C   UNL     1      28.966  52.286  40.791  1.00  0.00     0.030 A 
HETATM   31  C   UNL     1      29.985  53.230  40.978  1.00  0.00     0.002 A 
HETATM   32  C   UNL     1      31.200  53.090  40.320  1.00  0.00     0.000 A 
HETATM   33  C   UNL     1      31.399  52.004  39.480  1.00  0.00     0.002 A 
HETATM   34  C   UNL     1      30.380  51.062  39.297  1.00  0.00     0.030 A 
ENDBRANCH   2  29
TORSDOF 6
ENDMDL
MODEL 2
REMARK VINA RESULT:      -8.7     11.942     13.495
REMARK  6 active torsions:
REMARK  status: ('A' for Active; 'I' for Inactive)
REMARK    1  A    between atoms: O_2  and  C_3 
REMARK    2  A    between atoms: C_6  and  C_7 
REMARK    3  A    between atoms: C_7  and  N_8 
REMARK       I    between atoms: N_8  and  C_9 
REMARK    4  A    between atoms: C_9  and  C_10 
REMARK    5  A    between atoms: C_10  and  O_11 
REMARK    6  A    between atoms: N_12  and  C_13 
ROOT
HETATM    1  C   UNL     1      25.951  43.012  50.077  1.00  0.00     0.256 C 
HETATM    2  N   UNL     1      26.722  41.870  50.605  1.00  0.00    -0.254 N 
HETATM    3  C   UNL     1      26.589  40.609  50.039  1.00  0.00     0.330 C 
HETATM    4  O   UNL     1      27.335  39.648  50.238  1.00  0.00    -0.246 OA
HETATM    5  N   UNL     1      25.565  40.398  49.172  1.00  0.00    -0.308 N 
HETATM    6  C   UNL     1      24.632  41.333  48.767  1.00  0.00     0.048 A 
HETATM    7  C   UNL     1      24.779  42.646  49.183  1.00  0.00     0.035 A 
HETATM    8  C   UNL     1      23.578  40.941  47.937  1.00  0.00     0.031 A 
HETATM    9  C   UNL     1      22.641  41.881  47.513  1.00  0.00     0.021 A 
HETATM   10  C   UNL     1      22.781  43.207  47.907  1.00  0.00     0.011 A 
HETATM   11 BR   UNL     1      21.519  44.495  47.338  1.00  0.00    -0.051 Br
HETATM   12  C   UNL     1      23.845  43.596  48.723  1.00  0.00     0.034 A 
HETATM   13  H   UNL     1      25.505  39.445  48.836  1.00  0.00     0.170 HD
ENDROOT
BRANCH   1  14
HETATM   14  C   UNL     1      25.362  43.892  51.271  1.00  0.00     0.279 C 
HETATM   15  N   UNL     1      25.914  45.165  51.333  1.00  0.00    -0.352 N 
HETATM   16  H   UNL     1      26.711  45.355  50.731  1.00  0.00     0.162 HD
HETATM   17  O   UNL     1      24.463  43.518  52.022  1.00  0.00    -0.268 OA
BRANCH  15  18
HETATM   18  C   UNL     1      25.478  46.162  52.276  1.00  0.00     0.161 C 
BRANCH  18  19
HETATM   19  C   UNL     1      26.370  46.232  53.486  1.00  0.00    -0.040 A 
HETATM   20  C   UNL     1      26.880  45.068  54.075  1.00  0.00     0.011 A 
HETATM   21  C   UNL     1      27.755  45.153  55.161  1.00  0.00     0.037 A 
HETATM   22  C   UNL     1      28.138  46.396  55.671  1.00  0.00     0.068 A 
HETATM   23  C   UNL     1      27.597  47.556  55.119  1.00  0.00     0.037 A 
HETATM   24  C   UNL     1      26.720  47.473  54.034  1.00  0.00     0.011 A 
BRANCH  22  25
HETATM   25  O   UNL     1      29.028  46.348  56.709  1.00  0.00    -0.356 OA
HETATM   26  C   UNL     1      30.127  45.457  56.545  1.00  0.00     0.210 C 
ENDBRANCH  22  25
ENDBRANCH  18  19
ENDBRANCH  15  18
ENDBRANCH   1  14
BRANCH   1  27
HETATM   27  O   UNL     1      26.835  43.757  49.235  1.00  0.00    -0.359 OA
HETATM   28  H   UNL     1      26.405  44.629  49.175  1.00  0.00     0.213 HD
ENDBRANCH   1  27
BRANCH   2  29
HETATM   29  C   UNL     1      27.667  42.074  51.692  1.00  0.00     0.042 A 
HETATM   30  C   UNL     1      27.559  41.406  52.923  1.00  0.00     0.030 A 
HETATM   31  C   UNL     1      28.493  41.603  53.949  1.00  0.00     0.002 A 
HETATM   32  C   UNL     1      29.560  42.474  53.767  1.00  0.00     0.000 A 
HETATM   33  C   UNL     1      29.697  43.142  52.559  1.00  0.00     0.002 A 
HETATM   34  C   UNL     1      28.764  42.940  51.536  1.00  0.00     0.030 A 
ENDBRANCH   2  29
TORSDOF 6
ENDMDL
MODEL 3
REMARK VINA RESULT:      -8.5     11.304     14.002
REMARK  6 active torsions:
REMARK  status: ('A' for Active; 'I' for Inactive)
REMARK    1  A    between atoms: O_2  and  C_3 
REMARK    2  A    between atoms: C_6  and  C_7 
REMARK    3  A    between atoms: C_7  and  N_8 
REMARK       I    between atoms: N_8  and  C_9 
REMARK    4  A    between atoms: C_9  and  C_10 
REMARK    5  A    between atoms: C_10  and  O_11 
REMARK    6  A    between atoms: N_12  and  C_13 
ROOT
HETATM    1  C   UNL     1      26.006  43.473  52.005  1.00  0.00     0.256 C 
HETATM    2  N   UNL     1      25.797  42.328  51.099  1.00  0.00    -0.254 N 
HETATM    3  C   UNL     1      26.441  41.120  51.332  1.00  0.00     0.330 C 
HETATM    4  O   UNL     1      26.173  40.045  50.790  1.00  0.00    -0.246 OA
HETATM    5  N   UNL     1      27.445  41.092  52.246  1.00  0.00    -0.308 N 
HETATM    6  C   UNL     1      27.890  42.158  53.003  1.00  0.00     0.048 A 
HETATM    7  C   UNL     1      27.209  43.362  52.926  1.00  0.00     0.035 A 
HETATM    8  C   UNL     1      28.998  41.995  53.840  1.00  0.00     0.031 A 
HETATM    9  C   UNL     1      29.444  43.062  54.617  1.00  0.00     0.021 A 
HETATM   10  C   UNL     1      28.764  44.274  54.565  1.00  0.00     0.011 A 
HETATM   11 BR   UNL     1      29.355  45.730  55.616  1.00  0.00    -0.051 Br
HETATM   12  C   UNL     1      27.648  44.425  53.740  1.00  0.00     0.034 A 
HETATM   13  H   UNL     1      27.896  40.190  52.329  1.00  0.00     0.170 HD
ENDROOT
BRANCH   1  14
HETATM   14  C   UNL     1      26.187  44.823  51.173  1.00  0.00     0.279 C 
HETATM   15  N   UNL     1      25.203  45.765  51.442  1.00  0.00    -0.352 N 
HETATM   16  H   UNL     1      24.413  45.463  52.006  1.00  0.00     0.162 HD
HETATM   17  O   UNL     1      27.134  45.045  50.421  1.00  0.00    -0.268 OA
BRANCH  15  18
HETATM   18  C   UNL     1      25.207  47.086  50.870  1.00  0.00     0.161 C 
BRANCH  18  19
HETATM   19  C   UNL     1      24.148  47.255  49.813  1.00  0.00    -0.040 A 
HETATM   20  C   UNL     1      23.538  46.143  49.220  1.00  0.00     0.011 A 
HETATM   21  C   UNL     1      22.514  46.318  48.285  1.00  0.00     0.037 A 
HETATM   22  C   UNL     1      22.082  47.598  47.933  1.00  0.00     0.068 A 
HETATM   23  C   UNL     1      22.717  48.709  48.485  1.00  0.00     0.037 A 
HETATM   24  C   UNL     1      23.743  48.538  49.420  1.00  0.00     0.011 A 
BRANCH  22  25
HETATM   25  O   UNL     1      21.048  47.636  47.037  1.00  0.00    -0.356 OA
HETATM   26  C   UNL     1      19.806  48.119  47.541  1.00  0.00     0.210 C 
ENDBRANCH  22  25
ENDBRANCH  18  19
ENDBRANCH  15  18
ENDBRANCH   1  14
BRANCH   1  27
HETATM   27  O   UNL     1      24.877  43.521  52.883  1.00  0.00    -0.359 OA
HETATM   28  H   UNL     1      24.741  44.475  53.022  1.00  0.00     0.213 HD
ENDBRANCH   1  27
BRANCH   2  29
HETATM   29  C   UNL     1      24.871  42.447  49.984  1.00  0.00     0.042 A 
HETATM   30  C   UNL     1      25.293  42.407  48.644  1.00  0.00     0.030 A 
HETATM   31  C   UNL     1      24.379  42.503  47.584  1.00  0.00     0.002 A 
HETATM   32  C   UNL     1      23.021  42.638  47.841  1.00  0.00     0.000 A 
HETATM   33  C   UNL     1      22.575  42.673  49.153  1.00  0.00     0.002 A 
HETATM   34  C   UNL     1      23.489  42.574  50.209  1.00  0.00     0.030 A 
ENDBRANCH   2  29
TORSDOF 6
ENDMDL
MODEL 4
REMARK VINA RESULT:      -8.3      9.943     12.530
REMARK  6 active torsions:
REMARK  status: ('A' for Active; 'I' for Inactive)
REMARK    1  A    between atoms: O_2  and  C_3 
REMARK    2  A    between atoms: C_6  and  C_7 
REMARK    3  A    between atoms: C_7  and  N_8 
REMARK       I    between atoms: N_8  and  C_9 
REMARK    4  A    between atoms: C_9  and  C_10 
REMARK    5  A    between atoms: C_10  and  O_11 
REMARK    6  A    between atoms: N_12  and  C_13 
ROOT
HETATM    1  C   UNL     1      25.382  43.336  50.630  1.00  0.00     0.256 C 
HETATM    2  N   UNL     1      24.515  42.814  49.557  1.00  0.00    -0.254 N 
HETATM    3  C   UNL     1      24.593  41.482  49.174  1.00  0.00     0.330 C 
HETATM    4  O   UNL     1      23.778  40.887  48.466  1.00  0.00    -0.246 OA
HETATM    5  N   UNL     1      25.642  40.745  49.622  1.00  0.00    -0.308 N 
HETATM    6  C   UNL     1      26.652  41.184  50.456  1.00  0.00     0.048 A 
HETATM    7  C   UNL     1      26.570  42.459  50.989  1.00  0.00     0.035 A 
HETATM    8  C   UNL     1      27.717  40.330  50.758  1.00  0.00     0.031 A 
HETATM    9  C   UNL     1      28.732  40.761  51.610  1.00  0.00     0.021 A 
HETATM   10  C   UNL     1      28.660  42.034  52.167  1.00  0.00     0.011 A 
HETATM   11 BR   UNL     1      30.027  42.631  53.327  1.00  0.00    -0.051 Br
HETATM   12  C   UNL     1      27.584  42.875  51.875  1.00  0.00     0.034 A 
HETATM   13  H   UNL     1      25.657  39.797  49.265  1.00  0.00     0.170 HD
ENDROOT
BRANCH   1  14
HETATM   14  C   UNL     1      25.969  44.767  50.234  1.00  0.00     0.279 C 
HETATM   15  N   UNL     1      25.630  45.764  51.139  1.00  0.00    -0.352 N 
HETATM   16  H   UNL     1      24.948  45.529  51.855  1.00  0.00     0.162 HD
HETATM   17  O   UNL     1      26.704  44.964  49.268  1.00  0.00    -0.268 OA
BRANCH  15  18
HETATM   18  C   UNL     1      26.114  47.115  51.031  1.00  0.00     0.161 C 
BRANCH  18  19
HETATM   19  C   UNL     1      25.361  47.910  49.997  1.00  0.00    -0.040 A 
HETATM   20  C   UNL     1      23.979  47.757  49.835  1.00  0.00     0.011 A 
HETATM   21  C   UNL     1      23.286  48.547  48.913  1.00  0.00     0.037 A 
HETATM   22  C   UNL     1      23.959  49.501  48.146  1.00  0.00     0.068 A 
HETATM   23  C   UNL     1      25.341  49.625  48.269  1.00  0.00     0.037 A 
HETATM   24  C   UNL     1      26.037  48.835  49.189  1.00  0.00     0.011 A 
BRANCH  22  25
HETATM   25  O   UNL     1      23.165  50.236  47.308  1.00  0.00    -0.356 OA
HETATM   26  C   UNL     1      21.763  50.147  47.543  1.00  0.00     0.210 C 
ENDBRANCH  22  25
ENDBRANCH  18  19
ENDBRANCH  15  18
ENDBRANCH   1  14
BRANCH   1  27
HETATM   27  O   UNL     1      24.590  43.382  51.821  1.00  0.00    -0.359 OA
HETATM   28  H   UNL     1      25.206  43.081  52.512  1.00  0.00     0.213 HD
ENDBRANCH   1  27
BRANCH   2  29
HETATM   29  C   UNL     1      23.534  43.687  48.931  1.00  0.00     0.042 A 
HETATM   30  C   UNL     1      22.383  44.135  49.602  1.00  0.00     0.030 A 
HETATM   31  C   UNL     1      21.461  44.992  48.985  1.00  0.00     0.002 A 
HETATM   32  C   UNL     1      21.670  45.424  47.681  1.00  0.00     0.000 A 
HETATM   33  C   UNL     1      22.801  45.005  46.997  1.00  0.00     0.002 A 
HETATM   34  C   UNL     1      23.721  44.151  47.617  1.00  0.00     0.030 A 
ENDBRANCH   2  29
TORSDOF 6
ENDMDL
MODEL 5
REMARK VINA RESULT:      -8.2     12.422     14.904
REMARK  6 active torsions:
REMARK  status: ('A' for Active; 'I' for Inactive)
REMARK    1  A    between atoms: O_2  and  C_3 
REMARK    2  A    between atoms: C_6  and  C_7 
REMARK    3  A    between atoms: C_7  and  N_8 
REMARK       I    between atoms: N_8  and  C_9 
REMARK    4  A    between atoms: C_9  and  C_10 
REMARK    5  A    between atoms: C_10  and  O_11 
REMARK    6  A    between atoms: N_12  and  C_13 
ROOT
HETATM    1  C   UNL     1      28.345  43.806  52.981  1.00  0.00     0.256 C 
HETATM    2  N   UNL     1      27.087  44.432  52.532  1.00  0.00    -0.254 N 
HETATM    3  C   UNL     1      26.651  45.623  53.099  1.00  0.00     0.330 C 
HETATM    4  O   UNL     1      25.756  46.346  52.657  1.00  0.00    -0.246 OA
HETATM    5  N   UNL     1      27.263  46.057  54.231  1.00  0.00    -0.308 N 
HETATM    6  C   UNL     1      28.312  45.438  54.882  1.00  0.00     0.048 A 
HETATM    7  C   UNL     1      28.890  44.320  54.303  1.00  0.00     0.035 A 
HETATM    8  C   UNL     1      28.778  45.960  56.092  1.00  0.00     0.031 A 
HETATM    9  C   UNL     1      29.845  45.348  56.747  1.00  0.00     0.021 A 
HETATM   10  C   UNL     1      30.449  44.234  56.173  1.00  0.00     0.011 A 
HETATM   11 BR   UNL     1      31.899  43.396  57.048  1.00  0.00    -0.051 Br
HETATM   12  C   UNL     1      29.989  43.728  54.956  1.00  0.00     0.034 A 
HETATM   13  H   UNL     1      26.862  46.906  54.611  1.00  0.00     0.170 HD
ENDROOT
BRANCH   1  14
HETATM   14  C   UNL     1      28.162  42.228  53.140  1.00  0.00     0.279 C 
HETATM   15  N   UNL     1      28.921  41.498  52.235  1.00  0.00    -0.352 N 
HETATM   16  H   UNL     1      29.384  42.017  51.493  1.00  0.00     0.162 HD
HETATM   17  O   UNL     1      27.478  41.701  54.016  1.00  0.00    -0.268 OA
BRANCH  15  18
HETATM   18  C   UNL     1      28.979  40.060  52.244  1.00  0.00     0.161 C 
BRANCH  18  19
HETATM   19  C   UNL     1      28.834  39.473  50.865  1.00  0.00    -0.040 A 
HETATM   20  C   UNL     1      27.974  40.051  49.923  1.00  0.00     0.011 A 
HETATM   21  C   UNL     1      27.897  39.529  48.628  1.00  0.00     0.037 A 
HETATM   22  C   UNL     1      28.677  38.434  48.254  1.00  0.00     0.068 A 
HETATM   23  C   UNL     1      29.500  37.826  49.201  1.00  0.00     0.037 A 
HETATM   24  C   UNL     1      29.578  38.344  50.497  1.00  0.00     0.011 A 
BRANCH  22  25
HETATM   25  O   UNL     1      28.540  38.042  46.950  1.00  0.00    -0.356 OA
HETATM   26  C   UNL     1      27.960  39.000  46.070  1.00  0.00     0.210 C 
ENDBRANCH  22  25
ENDBRANCH  18  19
ENDBRANCH  15  18
ENDBRANCH   1  14
BRANCH   1  27
HETATM   27  O   UNL     1      29.346  44.145  52.017  1.00  0.00    -0.359 OA
HETATM   28  H   UNL     1      30.161  43.773  52.400  1.00  0.00     0.213 HD
ENDBRANCH   1  27
BRANCH   2  29
HETATM   29  C   UNL     1      26.323  43.828  51.452  1.00  0.00     0.042 A 
HETATM   30  C   UNL     1      26.822  43.716  50.143  1.00  0.00     0.030 A 
HETATM   31  C   UNL     1      26.076  43.111  49.122  1.00  0.00     0.002 A 
HETATM   32  C   UNL     1      24.811  42.601  49.387  1.00  0.00     0.000 A 
HETATM   33  C   UNL     1      24.296  42.689  50.672  1.00  0.00     0.002 A 
HETATM   34  C   UNL     1      25.045  43.291  51.689  1.00  0.00     0.030 A 
ENDBRANCH   2  29
TORSDOF 6
ENDMDL
MODEL 6
REMARK VINA RESULT:      -8.2     11.257     12.736
REMARK  6 active torsions:
REMARK  status: ('A' for Active; 'I' for Inactive)
REMARK    1  A    between atoms: O_2  and  C_3 
REMARK    2  A    between atoms: C_6  and  C_7 
REMARK    3  A    between atoms: C_7  and  N_8 
REMARK       I    between atoms: N_8  and  C_9 
REMARK    4  A    between atoms: C_9  and  C_10 
REMARK    5  A    between atoms: C_10  and  O_11 
REMARK    6  A    between atoms: N_12  and  C_13 
ROOT
HETATM    1  C   UNL     1      24.782  43.264  50.232  1.00  0.00     0.256 C 
HETATM    2  N   UNL     1      24.561  44.716  50.369  1.00  0.00    -0.254 N 
HETATM    3  C   UNL     1      23.763  45.396  49.459  1.00  0.00     0.330 C 
HETATM    4  O   UNL     1      23.327  46.541  49.598  1.00  0.00    -0.246 OA
HETATM    5  N   UNL     1      23.405  44.757  48.315  1.00  0.00    -0.308 N 
HETATM    6  C   UNL     1      23.740  43.464  47.963  1.00  0.00     0.048 A 
HETATM    7  C   UNL     1      24.418  42.677  48.879  1.00  0.00     0.035 A 
HETATM    8  C   UNL     1      23.371  42.974  46.707  1.00  0.00     0.031 A 
HETATM    9  C   UNL     1      23.693  41.666  46.350  1.00  0.00     0.021 A 
HETATM   10  C   UNL     1      24.361  40.856  47.262  1.00  0.00     0.011 A 
HETATM   11 BR   UNL     1      24.801  39.078  46.793  1.00  0.00    -0.051 Br
HETATM   12  C   UNL     1      24.710  41.346  48.521  1.00  0.00     0.034 A 
HETATM   13  H   UNL     1      22.863  45.330  47.680  1.00  0.00     0.170 HD
ENDROOT
BRANCH   1  14
HETATM   14  C   UNL     1      26.314  42.901  50.495  1.00  0.00     0.279 C 
HETATM   15  N   UNL     1      26.490  42.006  51.542  1.00  0.00    -0.352 N 
HETATM   16  H   UNL     1      25.675  41.793  52.111  1.00  0.00     0.162 HD
HETATM   17  O   UNL     1      27.245  43.310  49.803  1.00  0.00    -0.268 OA
BRANCH  15  18
HETATM   18  C   UNL     1      27.776  41.473  51.907  1.00  0.00     0.161 C 
BRANCH  18  19
HETATM   19  C   UNL     1      28.475  42.322  52.935  1.00  0.00    -0.040 A 
HETATM   20  C   UNL     1      27.748  43.066  53.872  1.00  0.00     0.011 A 
HETATM   21  C   UNL     1      28.413  43.801  54.857  1.00  0.00     0.037 A 
HETATM   22  C   UNL     1      29.808  43.801  54.925  1.00  0.00     0.068 A 
HETATM   23  C   UNL     1      30.538  43.101  53.967  1.00  0.00     0.037 A 
HETATM   24  C   UNL     1      29.876  42.366  52.979  1.00  0.00     0.011 A 
BRANCH  22  25
HETATM   25  O   UNL     1      30.338  44.527  55.957  1.00  0.00    -0.356 OA
HETATM   26  C   UNL     1      31.278  43.843  56.779  1.00  0.00     0.210 C 
ENDBRANCH  22  25
ENDBRANCH  18  19
ENDBRANCH  15  18
ENDBRANCH   1  14
BRANCH   1  27
HETATM   27  O   UNL     1      23.902  42.620  51.158  1.00  0.00    -0.359 OA
HETATM   28  H   UNL     1      23.764  41.741  50.761  1.00  0.00     0.213 HD
ENDBRANCH   1  27
BRANCH   2  29
HETATM   29  C   UNL     1      25.139  45.433  51.495  1.00  0.00     0.042 A 
HETATM   30  C   UNL     1      24.883  45.076  52.830  1.00  0.00     0.030 A 
HETATM   31  C   UNL     1      25.468  45.770  53.899  1.00  0.00     0.002 A 
HETATM   32  C   UNL     1      26.325  46.835  53.658  1.00  0.00     0.000 A 
HETATM   33  C   UNL     1      26.603  47.205  52.351  1.00  0.00     0.002 A 
HETATM   34  C   UNL     1      26.020  46.509  51.286  1.00  0.00     0.030 A 
ENDBRANCH   2  29
TORSDOF 6
ENDMDL
MODEL 7
REMARK VINA RESULT:      -8.1     10.322     11.842
REMARK  6 active torsions:
REMARK  status: ('A' for Active; 'I' for Inactive)
REMARK    1  A    between atoms: O_2  and  C_3 
REMARK    2  A    between atoms: C_6  and  C_7 
REMARK    3  A    between atoms: C_7  and  N_8 
REMARK       I    between atoms: N_8  and  C_9 
REMARK    4  A    between atoms: C_9  and  C_10 
REMARK    5  A    between atoms: C_10  and  O_11 
REMARK    6  A    between atoms: N_12  and  C_13 
ROOT
HETATM    1  C   UNL     1      19.985  47.268  48.362  1.00  0.00     0.256 C 
HETATM    2  N   UNL     1      18.890  48.148  47.912  1.00  0.00    -0.254 N 
HETATM    3  C   UNL     1      17.869  47.650  47.113  1.00  0.00     0.330 C 
HETATM    4  O   UNL     1      16.803  48.218  46.870  1.00  0.00    -0.246 OA
HETATM    5  N   UNL     1      18.031  46.423  46.554  1.00  0.00    -0.308 N 
HETATM    6  C   UNL     1      19.119  45.588  46.718  1.00  0.00     0.048 A 
HETATM    7  C   UNL     1      20.115  45.956  47.607  1.00  0.00     0.035 A 
HETATM    8  C   UNL     1      19.182  44.388  46.003  1.00  0.00     0.031 A 
HETATM    9  C   UNL     1      20.270  43.535  46.173  1.00  0.00     0.021 A 
HETATM   10  C   UNL     1      21.273  43.880  47.074  1.00  0.00     0.011 A 
HETATM   11 BR   UNL     1      22.753  42.730  47.318  1.00  0.00    -0.051 Br
HETATM   12  C   UNL     1      21.195  45.071  47.797  1.00  0.00     0.034 A 
HETATM   13  H   UNL     1      17.268  46.146  45.949  1.00  0.00     0.170 HD
ENDROOT
BRANCH   1  14
HETATM   14  C   UNL     1      21.391  48.012  48.239  1.00  0.00     0.279 C 
HETATM   15  N   UNL     1      22.005  48.222  49.467  1.00  0.00    -0.352 N 
HETATM   16  H   UNL     1      21.457  48.026  50.300  1.00  0.00     0.162 HD
HETATM   17  O   UNL     1      21.920  48.310  47.169  1.00  0.00    -0.268 OA
BRANCH  15  18
HETATM   18  C   UNL     1      23.316  48.802  49.596  1.00  0.00     0.161 C 
BRANCH  18  19
HETATM   19  C   UNL     1      24.399  47.758  49.665  1.00  0.00    -0.040 A 
HETATM   20  C   UNL     1      24.083  46.397  49.749  1.00  0.00     0.011 A 
HETATM   21  C   UNL     1      25.100  45.437  49.751  1.00  0.00     0.037 A 
HETATM   22  C   UNL     1      26.440  45.820  49.664  1.00  0.00     0.068 A 
HETATM   23  C   UNL     1      26.762  47.175  49.627  1.00  0.00     0.037 A 
HETATM   24  C   UNL     1      25.748  48.137  49.627  1.00  0.00     0.011 A 
BRANCH  22  25
HETATM   25  O   UNL     1      27.338  44.787  49.636  1.00  0.00    -0.356 OA
HETATM   26  C   UNL     1      26.823  43.507  49.988  1.00  0.00     0.210 C 
ENDBRANCH  22  25
ENDBRANCH  18  19
ENDBRANCH  15  18
ENDBRANCH   1  14
BRANCH   1  27
HETATM   27  O   UNL     1      19.685  46.887  49.708  1.00  0.00    -0.359 OA
HETATM   28  H   UNL     1      18.712  46.896  49.733  1.00  0.00     0.213 HD
ENDBRANCH   1  27
BRANCH   2  29
HETATM   29  C   UNL     1      18.850  49.535  48.349  1.00  0.00     0.042 A 
HETATM   30  C   UNL     1      18.372  49.914  49.615  1.00  0.00     0.030 A 
HETATM   31  C   UNL     1      18.362  51.256  50.023  1.00  0.00     0.002 A 
HETATM   32  C   UNL     1      18.831  52.250  49.175  1.00  0.00     0.000 A 
HETATM   33  C   UNL     1      19.315  51.904  47.922  1.00  0.00     0.002 A 
HETATM   34  C   UNL     1      19.327  50.564  47.519  1.00  0.00     0.030 A 
ENDBRANCH   2  29
TORSDOF 6
ENDMDL
MODEL 8
REMARK VINA RESULT:      -7.9      3.846      8.122
REMARK  6 active torsions:
REMARK  status: ('A' for Active; 'I' for Inactive)
REMARK    1  A    between atoms: O_2  and  C_3 
REMARK    2  A    between atoms: C_6  and  C_7 
REMARK    3  A    between atoms: C_7  and  N_8 
REMARK       I    between atoms: N_8  and  C_9 
REMARK    4  A    between atoms: C_9  and  C_10 
REMARK    5  A    between atoms: C_10  and  O_11 
REMARK    6  A    between atoms: N_12  and  C_13 
ROOT
HETATM    1  C   UNL     1      35.071  51.133  40.517  1.00  0.00     0.256 C 
HETATM    2  N   UNL     1      34.341  52.280  39.944  1.00  0.00    -0.254 N 
HETATM    3  C   UNL     1      34.942  53.529  39.865  1.00  0.00     0.330 C 
HETATM    4  O   UNL     1      34.527  54.487  39.210  1.00  0.00    -0.246 OA
HETATM    5  N   UNL     1      36.101  53.730  40.546  1.00  0.00    -0.308 N 
HETATM    6  C   UNL     1      36.772  52.794  41.309  1.00  0.00     0.048 A 
HETATM    7  C   UNL     1      36.307  51.489  41.326  1.00  0.00     0.035 A 
HETATM    8  C   UNL     1      37.908  53.176  42.026  1.00  0.00     0.031 A 
HETATM    9  C   UNL     1      38.599  52.235  42.788  1.00  0.00     0.021 A 
HETATM   10  C   UNL     1      38.156  50.917  42.805  1.00  0.00     0.011 A 
HETATM   11 BR   UNL     1      39.084  49.628  43.830  1.00  0.00    -0.051 Br
HETATM   12  C   UNL     1      37.030  50.537  42.073  1.00  0.00     0.034 A 
HETATM   13  H   UNL     1      36.455  54.675  40.478  1.00  0.00     0.170 HD
ENDROOT
BRANCH   1  14
HETATM   14  C   UNL     1      34.120  50.285  41.478  1.00  0.00     0.279 C 
HETATM   15  N   UNL     1      33.684  49.098  40.903  1.00  0.00    -0.352 N 
HETATM   16  H   UNL     1      33.882  48.961  39.916  1.00  0.00     0.162 HD
HETATM   17  O   UNL     1      33.851  50.604  42.635  1.00  0.00    -0.268 OA
BRANCH  15  18
HETATM   18  C   UNL     1      32.884  48.134  41.612  1.00  0.00     0.161 C 
BRANCH  18  19
HETATM   19  C   UNL     1      31.412  48.310  41.351  1.00  0.00    -0.040 A 
HETATM   20  C   UNL     1      30.545  48.733  42.366  1.00  0.00     0.011 A 
HETATM   21  C   UNL     1      29.192  48.950  42.091  1.00  0.00     0.037 A 
HETATM   22  C   UNL     1      28.687  48.755  40.804  1.00  0.00     0.068 A 
HETATM   23  C   UNL     1      29.535  48.288  39.801  1.00  0.00     0.037 A 
HETATM   24  C   UNL     1      30.889  48.069  40.073  1.00  0.00     0.011 A 
BRANCH  22  25
HETATM   25  O   UNL     1      27.356  49.037  40.654  1.00  0.00    -0.356 OA
HETATM   26  C   UNL     1      27.052  50.258  39.988  1.00  0.00     0.210 C 
ENDBRANCH  22  25
ENDBRANCH  18  19
ENDBRANCH  15  18
ENDBRANCH   1  14
BRANCH   1  27
HETATM   27  O   UNL     1      35.564  50.362  39.418  1.00  0.00    -0.359 OA
HETATM   28  H   UNL     1      34.753  50.097  38.949  1.00  0.00     0.213 HD
ENDBRANCH   1  27
BRANCH   2  29
HETATM   29  C   UNL     1      33.001  52.091  39.411  1.00  0.00     0.042 A 
HETATM   30  C   UNL     1      32.757  51.419  38.201  1.00  0.00     0.030 A 
HETATM   31  C   UNL     1      31.455  51.231  37.715  1.00  0.00     0.002 A 
HETATM   32  C   UNL     1      30.365  51.709  38.431  1.00  0.00     0.000 A 
HETATM   33  C   UNL     1      30.575  52.370  39.633  1.00  0.00     0.002 A 
HETATM   34  C   UNL     1      31.876  52.553  40.115  1.00  0.00     0.030 A 
ENDBRANCH   2  29
TORSDOF 6
ENDMDL
MODEL 9
REMARK VINA RESULT:      -7.9     11.482     14.168
REMARK  6 active torsions:
REMARK  status: ('A' for Active; 'I' for Inactive)
REMARK    1  A    between atoms: O_2  and  C_3 
REMARK    2  A    between atoms: C_6  and  C_7 
REMARK    3  A    between atoms: C_7  and  N_8 
REMARK       I    between atoms: N_8  and  C_9 
REMARK    4  A    between atoms: C_9  and  C_10 
REMARK    5  A    between atoms: C_10  and  O_11 
REMARK    6  A    between atoms: N_12  and  C_13 
ROOT
HETATM    1  C   UNL     1      26.968  42.924  51.530  1.00  0.00     0.256 C 
HETATM    2  N   UNL     1      27.353  41.753  50.721  1.00  0.00    -0.254 N 
HETATM    3  C   UNL     1      28.336  40.880  51.169  1.00  0.00     0.330 C 
HETATM    4  O   UNL     1      28.576  39.764  50.702  1.00  0.00    -0.246 OA
HETATM    5  N   UNL     1      29.100  41.260  52.226  1.00  0.00    -0.308 N 
HETATM    6  C   UNL     1      28.987  42.441  52.933  1.00  0.00     0.048 A 
HETATM    7  C   UNL     1      27.943  43.301  52.633  1.00  0.00     0.035 A 
HETATM    8  C   UNL     1      29.908  42.732  53.943  1.00  0.00     0.031 A 
HETATM    9  C   UNL     1      29.792  43.915  54.670  1.00  0.00     0.021 A 
HETATM   10  C   UNL     1      28.742  44.784  54.393  1.00  0.00     0.011 A 
HETATM   11 BR   UNL     1      28.569  46.391  55.373  1.00  0.00    -0.051 Br
HETATM   12  C   UNL     1      27.815  44.479  53.395  1.00  0.00     0.034 A 
HETATM   13  H   UNL     1      29.824  40.594  52.466  1.00  0.00     0.170 HD
ENDROOT
BRANCH   1  14
HETATM   14  C   UNL     1      26.797  44.214  50.606  1.00  0.00     0.279 C 
HETATM   15  N   UNL     1      25.526  44.770  50.676  1.00  0.00    -0.352 N 
HETATM   16  H   UNL     1      24.815  44.239  51.172  1.00  0.00     0.162 HD
HETATM   17  O   UNL     1      27.709  44.715  49.950  1.00  0.00    -0.268 OA
BRANCH  15  18
HETATM   18  C   UNL     1      25.164  45.984  49.992  1.00  0.00     0.161 C 
BRANCH  18  19
HETATM   19  C   UNL     1      23.810  45.891  49.342  1.00  0.00    -0.040 A 
HETATM   20  C   UNL     1      23.129  47.043  48.929  1.00  0.00     0.011 A 
HETATM   21  C   UNL     1      21.899  46.936  48.273  1.00  0.00     0.037 A 
HETATM   22  C   UNL     1      21.336  45.684  48.014  1.00  0.00     0.068 A 
HETATM   23  C   UNL     1      21.987  44.537  48.465  1.00  0.00     0.037 A 
HETATM   24  C   UNL     1      23.216  44.641  49.123  1.00  0.00     0.011 A 
BRANCH  22  25
HETATM   25  O   UNL     1      20.151  45.711  47.332  1.00  0.00    -0.356 OA
HETATM   26  C   UNL     1      19.006  45.275  48.058  1.00  0.00     0.210 C 
ENDBRANCH  22  25
ENDBRANCH  18  19
ENDBRANCH  15  18
ENDBRANCH   1  14
BRANCH   1  27
HETATM   27  O   UNL     1      25.760  42.579  52.214  1.00  0.00    -0.359 OA
HETATM   28  H   UNL     1      25.853  41.621  52.364  1.00  0.00     0.213 HD
ENDBRANCH   1  27
BRANCH   2  29
HETATM   29  C   UNL     1      26.664  41.479  49.470  1.00  0.00     0.042 A 
HETATM   30  C   UNL     1      27.333  41.421  48.235  1.00  0.00     0.030 A 
HETATM   31  C   UNL     1      26.650  41.135  47.044  1.00  0.00     0.002 A 
HETATM   32  C   UNL     1      25.282  40.897  47.061  1.00  0.00     0.000 A 
HETATM   33  C   UNL     1      24.597  40.939  48.266  1.00  0.00     0.002 A 
HETATM   34  C   UNL     1      25.282  41.222  49.453  1.00  0.00     0.030 A 
ENDBRANCH   2  29
TORSDOF 6
ENDMDL
MODEL 10
REMARK VINA RESULT:      -7.7     12.341     14.723
REMARK  6 active torsions:
REMARK  status: ('A' for Active; 'I' for Inactive)
REMARK    1  A    between atoms: O_2  and  C_3 
REMARK    2  A    between atoms: C_6  and  C_7 
REMARK    3  A    between atoms: C_7  and  N_8 
REMARK       I    between atoms: N_8  and  C_9 
REMARK    4  A    between atoms: C_9  and  C_10 
REMARK    5  A    between atoms: C_10  and  O_11 
REMARK    6  A    between atoms: N_12  and  C_13 
ROOT
HETATM    1  C   UNL     1      26.864  44.765  53.864  1.00  0.00     0.256 C 
HETATM    2  N   UNL     1      27.609  45.838  54.549  1.00  0.00    -0.254 N 
HETATM    3  C   UNL     1      27.282  47.171  54.333  1.00  0.00     0.330 C 
HETATM    4  O   UNL     1      27.670  48.126  55.009  1.00  0.00    -0.246 OA
HETATM    5  N   UNL     1      26.449  47.469  53.303  1.00  0.00    -0.308 N 
HETATM    6  C   UNL     1      25.860  46.565  52.441  1.00  0.00     0.048 A 
HETATM    7  C   UNL     1      26.029  45.211  52.677  1.00  0.00     0.035 A 
HETATM    8  C   UNL     1      25.095  47.032  51.369  1.00  0.00     0.031 A 
HETATM    9  C   UNL     1      24.486  46.126  50.503  1.00  0.00     0.021 A 
HETATM   10  C   UNL     1      24.631  44.762  50.732  1.00  0.00     0.011 A 
HETATM   11 BR   UNL     1      23.809  43.521  49.568  1.00  0.00    -0.051 Br
HETATM   12  C   UNL     1      25.383  44.302  51.815  1.00  0.00     0.034 A 
HETATM   13  H   UNL     1      26.293  48.462  53.179  1.00  0.00     0.170 HD
ENDROOT
BRANCH   1  14
HETATM   14  C   UNL     1      27.863  43.641  53.330  1.00  0.00     0.279 C 
HETATM   15  N   UNL     1      27.517  42.362  53.747  1.00  0.00    -0.352 N 
HETATM   16  H   UNL     1      26.781  42.285  54.443  1.00  0.00     0.162 HD
HETATM   17  O   UNL     1      28.804  43.863  52.569  1.00  0.00    -0.268 OA
BRANCH  15  18
HETATM   18  C   UNL     1      28.225  41.183  53.322  1.00  0.00     0.161 C 
BRANCH  18  19
HETATM   19  C   UNL     1      27.820  40.740  51.941  1.00  0.00    -0.040 A 
HETATM   20  C   UNL     1      26.520  40.954  51.467  1.00  0.00     0.011 A 
HETATM   21  C   UNL     1      26.177  40.591  50.161  1.00  0.00     0.037 A 
HETATM   22  C   UNL     1      27.124  40.017  49.311  1.00  0.00     0.068 A 
HETATM   23  C   UNL     1      28.407  39.759  49.791  1.00  0.00     0.037 A 
HETATM   24  C   UNL     1      28.751  40.119  51.098  1.00  0.00     0.011 A 
BRANCH  22  25
HETATM   25  O   UNL     1      26.678  39.743  48.047  1.00  0.00    -0.356 OA
HETATM   26  C   UNL     1      25.397  40.267  47.712  1.00  0.00     0.210 C 
ENDBRANCH  22  25
ENDBRANCH  18  19
ENDBRANCH  15  18
ENDBRANCH   1  14
BRANCH   1  27
HETATM   27  O   UNL     1      25.916  44.250  54.804  1.00  0.00    -0.359 OA
HETATM   28  H   UNL     1      26.003  44.854  55.564  1.00  0.00     0.213 HD
ENDBRANCH   1  27
BRANCH   2  29
HETATM   29  C   UNL     1      28.658  45.500  55.498  1.00  0.00     0.042 A 
HETATM   30  C   UNL     1      29.765  44.707  55.150  1.00  0.00     0.030 A 
HETATM   31  C   UNL     1      30.775  44.410  56.076  1.00  0.00     0.002 A 
HETATM   32  C   UNL     1      30.703  44.902  57.373  1.00  0.00     0.000 A 
HETATM   33  C   UNL     1      29.626  45.694  57.743  1.00  0.00     0.002 A 
HETATM   34  C   UNL     1      28.621  45.991  56.815  1.00  0.00     0.030 A 
ENDBRANCH   2  29
TORSDOF 6
ENDMDL
