MODEL 1
REMARK VINA RESULT:      -9.3      0.000      0.000
REMARK  5 active torsions:
REMARK  status: ('A' for Active; 'I' for Inactive)
REMARK    1  A    between atoms: C_3  and  O_4 
REMARK    2  A    between atoms: O_4  and  C_5 
REMARK    3  A    between atoms: C_5  and  C_6 
REMARK       I    between atoms: C_6  and  N_7 
REMARK    4  A    between atoms: N_7  and  N_8 
REMARK    5  A    between atoms: C_9  and  C_10 
ROOT
HETATM    1  C   UNL     1      26.274  46.483  53.846  1.00  0.00     0.261 C 
HETATM    2  N   UNL     1      26.461  46.521  52.469  1.00  0.00    -0.246 N 
HETATM    3  O   UNL     1      25.789  47.372  54.541  1.00  0.00    -0.269 OA
HETATM    4  H   UNL     1      26.691  45.638  52.015  1.00  0.00     0.192 HD
ENDROOT
BRANCH   2   5
HETATM    5  N   UNL     1      26.084  47.516  51.599  1.00  0.00    -0.184 NA
HETATM    6  C   UNL     1      26.213  47.334  50.324  1.00  0.00     0.152 C 
BRANCH   6   7
HETATM    7  C   UNL     1      25.841  48.397  49.409  1.00  0.00     0.011 A 
HETATM    8  C   UNL     1      24.510  48.796  49.055  1.00  0.00     0.004 A 
HETATM    9  C   UNL     1      24.618  49.858  48.155  1.00  0.00     0.043 A 
HETATM   10  C   UNL     1      23.221  48.346  49.410  1.00  0.00     0.014 A 
HETATM   11  C   UNL     1      23.502  50.494  47.597  1.00  0.00     0.030 A 
HETATM   12  N   UNL     1      25.960  50.096  47.969  1.00  0.00    -0.364 N 
HETATM   13  C   UNL     1      22.237  50.028  47.966  1.00  0.00     0.002 A 
HETATM   14  C   UNL     1      22.095  48.968  48.858  1.00  0.00     0.001 A 
HETATM   15  H   UNL     1      26.335  50.814  47.364  1.00  0.00     0.165 HD
HETATM   16  C   UNL     1      26.704  49.221  48.711  1.00  0.00     0.102 A 
ENDBRANCH   6   7
ENDBRANCH   2   5
BRANCH   1  17
HETATM   17  C   UNL     1      26.826  45.208  54.480  1.00  0.00     0.280 C 
BRANCH  17  18
HETATM   18  O   UNL     1      28.126  44.899  53.979  1.00  0.00    -0.342 OA
BRANCH  18  19
HETATM   19  C   UNL     1      29.065  44.698  54.961  1.00  0.00     0.075 A 
HETATM   20  C   UNL     1      29.911  43.587  54.822  1.00  0.00    -0.029 A 
HETATM   21  C   UNL     1      29.807  42.658  53.645  1.00  0.00     0.051 C 
HETATM   22  C   UNL     1      30.907  43.363  55.787  1.00  0.00     0.009 A 
HETATM   23  C   UNL     1      31.051  44.225  56.874  1.00  0.00     0.001 A 
HETATM   24  C   UNL     1      30.214  45.330  57.000  1.00  0.00     0.003 A 
HETATM   25  C   UNL     1      29.230  45.572  56.041  1.00  0.00     0.037 A 
ENDBRANCH  18  19
ENDBRANCH  17  18
ENDBRANCH   1  17
TORSDOF 5
ENDMDL
MODEL 2
REMARK VINA RESULT:      -8.8      0.691      1.635
REMARK  5 active torsions:
REMARK  status: ('A' for Active; 'I' for Inactive)
REMARK    1  A    between atoms: C_3  and  O_4 
REMARK    2  A    between atoms: O_4  and  C_5 
REMARK    3  A    between atoms: C_5  and  C_6 
REMARK       I    between atoms: C_6  and  N_7 
REMARK    4  A    between atoms: N_7  and  N_8 
REMARK    5  A    between atoms: C_9  and  C_10 
ROOT
HETATM    1  C   UNL     1      25.845  46.871  53.776  1.00  0.00     0.261 C 
HETATM    2  N   UNL     1      25.860  46.736  52.393  1.00  0.00    -0.246 N 
HETATM    3  O   UNL     1      25.539  47.880  54.407  1.00  0.00    -0.269 OA
HETATM    4  H   UNL     1      25.945  45.788  52.028  1.00  0.00     0.192 HD
ENDROOT
BRANCH   2   5
HETATM    5  N   UNL     1      25.472  47.664  51.456  1.00  0.00    -0.184 NA
HETATM    6  C   UNL     1      25.980  47.623  50.266  1.00  0.00     0.152 C 
BRANCH   6   7
HETATM    7  C   UNL     1      25.591  48.620  49.288  1.00  0.00     0.011 A 
HETATM    8  C   UNL     1      24.254  49.014  48.951  1.00  0.00     0.004 A 
HETATM    9  C   UNL     1      24.344  50.004  47.970  1.00  0.00     0.043 A 
HETATM   10  C   UNL     1      22.972  48.613  49.383  1.00  0.00     0.014 A 
HETATM   11  C   UNL     1      23.218  50.615  47.405  1.00  0.00     0.030 A 
HETATM   12  N   UNL     1      25.682  50.205  47.720  1.00  0.00    -0.364 N 
HETATM   13  C   UNL     1      21.961  50.198  47.852  1.00  0.00     0.002 A 
HETATM   14  C   UNL     1      21.836  49.211  48.825  1.00  0.00     0.001 A 
HETATM   15  H   UNL     1      26.046  50.869  47.050  1.00  0.00     0.165 HD
HETATM   16  C   UNL     1      26.440  49.375  48.500  1.00  0.00     0.102 A 
ENDBRANCH   6   7
ENDBRANCH   2   5
BRANCH   1  17
HETATM   17  C   UNL     1      26.350  45.623  54.495  1.00  0.00     0.280 C 
BRANCH  17  18
HETATM   18  O   UNL     1      27.539  45.894  55.237  1.00  0.00    -0.342 OA
BRANCH  18  19
HETATM   19  C   UNL     1      28.550  44.992  55.014  1.00  0.00     0.075 A 
HETATM   20  C   UNL     1      29.625  44.996  55.916  1.00  0.00    -0.029 A 
HETATM   21  C   UNL     1      29.669  45.938  57.086  1.00  0.00     0.051 C 
HETATM   22  C   UNL     1      30.665  44.068  55.743  1.00  0.00     0.009 A 
HETATM   23  C   UNL     1      30.639  43.159  54.685  1.00  0.00     0.001 A 
HETATM   24  C   UNL     1      29.564  43.155  53.800  1.00  0.00     0.003 A 
HETATM   25  C   UNL     1      28.518  44.062  53.968  1.00  0.00     0.037 A 
ENDBRANCH  18  19
ENDBRANCH  17  18
ENDBRANCH   1  17
TORSDOF 5
ENDMDL
MODEL 3
REMARK VINA RESULT:      -8.6      2.022      3.099
REMARK  5 active torsions:
REMARK  status: ('A' for Active; 'I' for Inactive)
REMARK    1  A    between atoms: C_3  and  O_4 
REMARK    2  A    between atoms: O_4  and  C_5 
REMARK    3  A    between atoms: C_5  and  C_6 
REMARK       I    between atoms: C_6  and  N_7 
REMARK    4  A    between atoms: N_7  and  N_8 
REMARK    5  A    between atoms: C_9  and  C_10 
ROOT
HETATM    1  C   UNL     1      27.755  43.165  53.007  1.00  0.00     0.261 C 
HETATM    2  N   UNL     1      27.334  44.490  53.037  1.00  0.00    -0.246 N 
HETATM    3  O   UNL     1      27.318  42.277  52.279  1.00  0.00    -0.269 OA
HETATM    4  H   UNL     1      27.922  45.144  53.551  1.00  0.00     0.192 HD
ENDROOT
BRANCH   2   5
HETATM    5  N   UNL     1      26.405  45.092  52.223  1.00  0.00    -0.184 NA
HETATM    6  C   UNL     1      26.703  46.198  51.621  1.00  0.00     0.152 C 
BRANCH   6   7
HETATM    7  C   UNL     1      25.711  46.847  50.784  1.00  0.00     0.011 A 
HETATM    8  C   UNL     1      25.933  47.939  49.883  1.00  0.00     0.004 A 
HETATM    9  C   UNL     1      24.709  48.239  49.281  1.00  0.00     0.043 A 
HETATM   10  C   UNL     1      27.061  48.709  49.528  1.00  0.00     0.014 A 
HETATM   11  C   UNL     1      24.559  49.265  48.340  1.00  0.00     0.030 A 
HETATM   12  N   UNL     1      23.780  47.364  49.795  1.00  0.00    -0.364 N 
HETATM   13  C   UNL     1      25.693  50.012  48.008  1.00  0.00     0.002 A 
HETATM   14  C   UNL     1      26.927  49.742  48.593  1.00  0.00     0.001 A 
HETATM   15  H   UNL     1      22.802  47.351  49.537  1.00  0.00     0.165 HD
HETATM   16  C   UNL     1      24.369  46.528  50.703  1.00  0.00     0.102 A 
ENDBRANCH   6   7
ENDBRANCH   2   5
BRANCH   1  17
HETATM   17  C   UNL     1      28.808  42.858  54.070  1.00  0.00     0.280 C 
BRANCH  17  18
HETATM   18  O   UNL     1      29.772  43.905  54.164  1.00  0.00    -0.342 OA
BRANCH  18  19
HETATM   19  C   UNL     1      30.266  44.092  55.432  1.00  0.00     0.075 A 
HETATM   20  C   UNL     1      29.889  45.266  56.102  1.00  0.00    -0.029 A 
HETATM   21  C   UNL     1      28.973  46.275  55.469  1.00  0.00     0.051 C 
HETATM   22  C   UNL     1      30.345  45.480  57.413  1.00  0.00     0.009 A 
HETATM   23  C   UNL     1      31.170  44.548  58.040  1.00  0.00     0.001 A 
HETATM   24  C   UNL     1      31.533  43.381  57.373  1.00  0.00     0.003 A 
HETATM   25  C   UNL     1      31.075  43.148  56.076  1.00  0.00     0.037 A 
ENDBRANCH  18  19
ENDBRANCH  17  18
ENDBRANCH   1  17
TORSDOF 5
ENDMDL
MODEL 4
REMARK VINA RESULT:      -8.6      1.709      2.354
REMARK  5 active torsions:
REMARK  status: ('A' for Active; 'I' for Inactive)
REMARK    1  A    between atoms: C_3  and  O_4 
REMARK    2  A    between atoms: O_4  and  C_5 
REMARK    3  A    between atoms: C_5  and  C_6 
REMARK       I    between atoms: C_6  and  N_7 
REMARK    4  A    between atoms: N_7  and  N_8 
REMARK    5  A    between atoms: C_9  and  C_10 
ROOT
HETATM    1  C   UNL     1      26.415  44.069  51.058  1.00  0.00     0.261 C 
HETATM    2  N   UNL     1      27.251  44.941  50.369  1.00  0.00    -0.246 N 
HETATM    3  O   UNL     1      25.194  44.155  51.156  1.00  0.00    -0.269 OA
HETATM    4  H   UNL     1      28.209  44.629  50.216  1.00  0.00     0.192 HD
ENDROOT
BRANCH   2   5
HETATM    5  N   UNL     1      26.886  46.025  49.607  1.00  0.00    -0.184 NA
HETATM    6  C   UNL     1      26.544  47.130  50.188  1.00  0.00     0.152 C 
BRANCH   6   7
HETATM    7  C   UNL     1      26.133  48.264  49.382  1.00  0.00     0.011 A 
HETATM    8  C   UNL     1      24.789  48.691  49.127  1.00  0.00     0.004 A 
HETATM    9  C   UNL     1      24.857  49.823  48.312  1.00  0.00     0.043 A 
HETATM   10  C   UNL     1      23.516  48.214  49.506  1.00  0.00     0.014 A 
HETATM   11  C   UNL     1      23.718  50.503  47.863  1.00  0.00     0.030 A 
HETATM   12  N   UNL     1      26.189  50.076  48.082  1.00  0.00    -0.364 N 
HETATM   13  C   UNL     1      22.470  50.008  48.254  1.00  0.00     0.002 A 
HETATM   14  C   UNL     1      22.367  48.879  49.061  1.00  0.00     0.001 A 
HETATM   15  H   UNL     1      26.538  50.840  47.520  1.00  0.00     0.165 HD
HETATM   16  C   UNL     1      26.965  49.142  48.713  1.00  0.00     0.102 A 
ENDBRANCH   6   7
ENDBRANCH   2   5
BRANCH   1  17
HETATM   17  C   UNL     1      27.184  42.977  51.797  1.00  0.00     0.280 C 
BRANCH  17  18
HETATM   18  O   UNL     1      26.952  43.038  53.203  1.00  0.00    -0.342 OA
BRANCH  18  19
HETATM   19  C   UNL     1      28.046  43.439  53.930  1.00  0.00     0.075 A 
HETATM   20  C   UNL     1      27.979  44.694  54.553  1.00  0.00    -0.029 A 
HETATM   21  C   UNL     1      26.758  45.565  54.444  1.00  0.00     0.051 C 
HETATM   22  C   UNL     1      29.064  45.129  55.332  1.00  0.00     0.009 A 
HETATM   23  C   UNL     1      30.198  44.331  55.480  1.00  0.00     0.001 A 
HETATM   24  C   UNL     1      30.254  43.083  54.866  1.00  0.00     0.003 A 
HETATM   25  C   UNL     1      29.178  42.633  54.100  1.00  0.00     0.037 A 
ENDBRANCH  18  19
ENDBRANCH  17  18
ENDBRANCH   1  17
TORSDOF 5
ENDMDL
MODEL 5
REMARK VINA RESULT:      -8.6      1.561      2.455
REMARK  5 active torsions:
REMARK  status: ('A' for Active; 'I' for Inactive)
REMARK    1  A    between atoms: C_3  and  O_4 
REMARK    2  A    between atoms: O_4  and  C_5 
REMARK    3  A    between atoms: C_5  and  C_6 
REMARK       I    between atoms: C_6  and  N_7 
REMARK    4  A    between atoms: N_7  and  N_8 
REMARK    5  A    between atoms: C_9  and  C_10 
ROOT
HETATM    1  C   UNL     1      26.531  47.548  54.126  1.00  0.00     0.261 C 
HETATM    2  N   UNL     1      26.448  47.083  52.819  1.00  0.00    -0.246 N 
HETATM    3  O   UNL     1      25.631  48.084  54.768  1.00  0.00    -0.269 OA
HETATM    4  H   UNL     1      27.212  46.492  52.496  1.00  0.00     0.192 HD
ENDROOT
BRANCH   2   5
HETATM    5  N   UNL     1      25.340  47.060  52.006  1.00  0.00    -0.184 NA
HETATM    6  C   UNL     1      25.446  47.428  50.770  1.00  0.00     0.152 C 
BRANCH   6   7
HETATM    7  C   UNL     1      24.269  47.430  49.921  1.00  0.00     0.011 A 
HETATM    8  C   UNL     1      23.741  48.543  49.190  1.00  0.00     0.004 A 
HETATM    9  C   UNL     1      22.609  48.096  48.505  1.00  0.00     0.043 A 
HETATM   10  C   UNL     1      24.115  49.897  49.053  1.00  0.00     0.014 A 
HETATM   11  C   UNL     1      21.838  48.932  47.689  1.00  0.00     0.030 A 
HETATM   12  N   UNL     1      22.455  46.763  48.807  1.00  0.00    -0.364 N 
HETATM   13  C   UNL     1      22.232  50.268  47.572  1.00  0.00     0.002 A 
HETATM   14  C   UNL     1      23.353  50.747  48.244  1.00  0.00     0.001 A 
HETATM   15  H   UNL     1      21.712  46.177  48.450  1.00  0.00     0.165 HD
HETATM   16  C   UNL     1      23.441  46.353  49.662  1.00  0.00     0.102 A 
ENDBRANCH   6   7
ENDBRANCH   2   5
BRANCH   1  17
HETATM   17  C   UNL     1      27.934  47.411  54.712  1.00  0.00     0.280 C 
BRANCH  17  18
HETATM   18  O   UNL     1      27.989  46.377  55.693  1.00  0.00    -0.342 OA
BRANCH  18  19
HETATM   19  C   UNL     1      28.836  45.346  55.366  1.00  0.00     0.075 A 
HETATM   20  C   UNL     1      29.914  45.101  56.230  1.00  0.00    -0.029 A 
HETATM   21  C   UNL     1      30.132  45.921  57.471  1.00  0.00     0.051 C 
HETATM   22  C   UNL     1      30.785  44.035  55.950  1.00  0.00     0.009 A 
HETATM   23  C   UNL     1      30.591  43.236  54.823  1.00  0.00     0.001 A 
HETATM   24  C   UNL     1      29.514  43.480  53.976  1.00  0.00     0.003 A 
HETATM   25  C   UNL     1      28.633  44.526  54.250  1.00  0.00     0.037 A 
ENDBRANCH  18  19
ENDBRANCH  17  18
ENDBRANCH   1  17
TORSDOF 5
ENDMDL
MODEL 6
REMARK VINA RESULT:      -8.5      2.192      9.464
REMARK  5 active torsions:
REMARK  status: ('A' for Active; 'I' for Inactive)
REMARK    1  A    between atoms: C_3  and  O_4 
REMARK    2  A    between atoms: O_4  and  C_5 
REMARK    3  A    between atoms: C_5  and  C_6 
REMARK       I    between atoms: C_6  and  N_7 
REMARK    4  A    between atoms: N_7  and  N_8 
REMARK    5  A    between atoms: C_9  and  C_10 
ROOT
HETATM    1  C   UNL     1      24.917  47.382  50.339  1.00  0.00     0.261 C 
HETATM    2  N   UNL     1      25.086  46.598  51.475  1.00  0.00    -0.246 N 
HETATM    3  O   UNL     1      25.627  48.321  49.989  1.00  0.00    -0.269 OA
HETATM    4  H   UNL     1      24.537  45.742  51.525  1.00  0.00     0.192 HD
ENDROOT
BRANCH   2   5
HETATM    5  N   UNL     1      26.108  46.662  52.392  1.00  0.00    -0.184 NA
HETATM    6  C   UNL     1      26.238  45.721  53.272  1.00  0.00     0.152 C 
BRANCH   6   7
HETATM    7  C   UNL     1      27.300  45.804  54.256  1.00  0.00     0.011 A 
HETATM    8  C   UNL     1      28.380  44.878  54.432  1.00  0.00     0.004 A 
HETATM    9  C   UNL     1      29.168  45.349  55.485  1.00  0.00     0.043 A 
HETATM   10  C   UNL     1      28.758  43.675  53.798  1.00  0.00     0.014 A 
HETATM   11  C   UNL     1      30.314  44.680  55.930  1.00  0.00     0.030 A 
HETATM   12  N   UNL     1      28.590  46.515  55.931  1.00  0.00    -0.364 N 
HETATM   13  C   UNL     1      30.665  43.491  55.285  1.00  0.00     0.002 A 
HETATM   14  C   UNL     1      29.899  42.992  54.235  1.00  0.00     0.001 A 
HETATM   15  H   UNL     1      28.949  47.077  56.692  1.00  0.00     0.165 HD
HETATM   16  C   UNL     1      27.465  46.795  55.206  1.00  0.00     0.102 A 
ENDBRANCH   6   7
ENDBRANCH   2   5
BRANCH   1  17
HETATM   17  C   UNL     1      23.657  47.020  49.557  1.00  0.00     0.280 C 
BRANCH  17  18
HETATM   18  O   UNL     1      23.449  47.911  48.463  1.00  0.00    -0.342 OA
BRANCH  18  19
HETATM   19  C   UNL     1      22.452  48.831  48.677  1.00  0.00     0.075 A 
HETATM   20  C   UNL     1      22.745  50.174  48.399  1.00  0.00    -0.029 A 
HETATM   21  C   UNL     1      24.090  50.596  47.877  1.00  0.00     0.051 C 
HETATM   22  C   UNL     1      21.742  51.142  48.574  1.00  0.00     0.009 A 
HETATM   23  C   UNL     1      20.474  50.779  49.026  1.00  0.00     0.001 A 
HETATM   24  C   UNL     1      20.188  49.443  49.291  1.00  0.00     0.003 A 
HETATM   25  C   UNL     1      21.170  48.469  49.109  1.00  0.00     0.037 A 
ENDBRANCH  18  19
ENDBRANCH  17  18
ENDBRANCH   1  17
TORSDOF 5
ENDMDL
MODEL 7
REMARK VINA RESULT:      -8.3      3.010      9.505
REMARK  5 active torsions:
REMARK  status: ('A' for Active; 'I' for Inactive)
REMARK    1  A    between atoms: C_3  and  O_4 
REMARK    2  A    between atoms: O_4  and  C_5 
REMARK    3  A    between atoms: C_5  and  C_6 
REMARK       I    between atoms: C_6  and  N_7 
REMARK    4  A    between atoms: N_7  and  N_8 
REMARK    5  A    between atoms: C_9  and  C_10 
ROOT
HETATM    1  C   UNL     1      23.381  47.786  49.435  1.00  0.00     0.261 C 
HETATM    2  N   UNL     1      23.727  46.447  49.573  1.00  0.00    -0.246 N 
HETATM    3  O   UNL     1      23.928  48.740  49.984  1.00  0.00    -0.269 OA
HETATM    4  H   UNL     1      23.310  45.798  48.907  1.00  0.00     0.192 HD
ENDROOT
BRANCH   2   5
HETATM    5  N   UNL     1      24.779  45.921  50.283  1.00  0.00    -0.184 NA
HETATM    6  C   UNL     1      24.639  45.676  51.546  1.00  0.00     0.152 C 
BRANCH   6   7
HETATM    7  C   UNL     1      25.760  45.148  52.301  1.00  0.00     0.011 A 
HETATM    8  C   UNL     1      26.543  45.848  53.276  1.00  0.00     0.004 A 
HETATM    9  C   UNL     1      27.509  44.959  53.754  1.00  0.00     0.043 A 
HETATM   10  C   UNL     1      26.528  47.161  53.792  1.00  0.00     0.014 A 
HETATM   11  C   UNL     1      28.453  45.316  54.724  1.00  0.00     0.030 A 
HETATM   12  N   UNL     1      27.320  43.766  53.096  1.00  0.00    -0.364 N 
HETATM   13  C   UNL     1      28.415  46.624  55.217  1.00  0.00     0.002 A 
HETATM   14  C   UNL     1      27.468  47.536  54.759  1.00  0.00     0.001 A 
HETATM   15  H   UNL     1      27.880  42.936  53.243  1.00  0.00     0.165 HD
HETATM   16  C   UNL     1      26.278  43.869  52.216  1.00  0.00     0.102 A 
ENDBRANCH   6   7
ENDBRANCH   2   5
BRANCH   1  17
HETATM   17  C   UNL     1      22.144  47.989  48.564  1.00  0.00     0.280 C 
BRANCH  17  18
HETATM   18  O   UNL     1      20.968  48.142  49.357  1.00  0.00    -0.342 OA
BRANCH  18  19
HETATM   19  C   UNL     1      20.411  49.395  49.288  1.00  0.00     0.075 A 
HETATM   20  C   UNL     1      19.276  49.638  50.077  1.00  0.00    -0.029 A 
HETATM   21  C   UNL     1      18.697  48.579  50.972  1.00  0.00     0.051 C 
HETATM   22  C   UNL     1      18.695  50.916  50.061  1.00  0.00     0.009 A 
HETATM   23  C   UNL     1      19.228  51.931  49.266  1.00  0.00     0.001 A 
HETATM   24  C   UNL     1      20.359  51.685  48.493  1.00  0.00     0.003 A 
HETATM   25  C   UNL     1      20.955  50.423  48.510  1.00  0.00     0.037 A 
ENDBRANCH  18  19
ENDBRANCH  17  18
ENDBRANCH   1  17
TORSDOF 5
ENDMDL
MODEL 8
REMARK VINA RESULT:      -8.1      1.761      2.197
REMARK  5 active torsions:
REMARK  status: ('A' for Active; 'I' for Inactive)
REMARK    1  A    between atoms: C_3  and  O_4 
REMARK    2  A    between atoms: O_4  and  C_5 
REMARK    3  A    between atoms: C_5  and  C_6 
REMARK       I    between atoms: C_6  and  N_7 
REMARK    4  A    between atoms: N_7  and  N_8 
REMARK    5  A    between atoms: C_9  and  C_10 
ROOT
HETATM    1  C   UNL     1      25.764  45.467  52.942  1.00  0.00     0.261 C 
HETATM    2  N   UNL     1      25.582  46.413  51.940  1.00  0.00    -0.246 N 
HETATM    3  O   UNL     1      24.971  44.585  53.266  1.00  0.00    -0.269 OA
HETATM    4  H   UNL     1      26.403  46.947  51.663  1.00  0.00     0.192 HD
ENDROOT
BRANCH   2   5
HETATM    5  N   UNL     1      24.526  46.516  51.067  1.00  0.00    -0.184 NA
HETATM    6  C   UNL     1      24.527  47.448  50.168  1.00  0.00     0.152 C 
BRANCH   6   7
HETATM    7  C   UNL     1      23.398  47.571  49.265  1.00  0.00     0.011 A 
HETATM    8  C   UNL     1      22.704  48.777  48.921  1.00  0.00     0.004 A 
HETATM    9  C   UNL     1      21.694  48.436  48.019  1.00  0.00     0.043 A 
HETATM   10  C   UNL     1      22.833  50.130  49.302  1.00  0.00     0.014 A 
HETATM   11  C   UNL     1      20.813  49.379  47.476  1.00  0.00     0.030 A 
HETATM   12  N   UNL     1      21.771  47.077  47.821  1.00  0.00    -0.364 N 
HETATM   13  C   UNL     1      20.965  50.712  47.870  1.00  0.00     0.002 A 
HETATM   14  C   UNL     1      21.958  51.085  48.771  1.00  0.00     0.001 A 
HETATM   15  H   UNL     1      21.158  46.551  47.212  1.00  0.00     0.165 HD
HETATM   16  C   UNL     1      22.786  46.546  48.569  1.00  0.00     0.102 A 
ENDBRANCH   6   7
ENDBRANCH   2   5
BRANCH   1  17
HETATM   17  C   UNL     1      27.065  45.670  53.714  1.00  0.00     0.280 C 
BRANCH  17  18
HETATM   18  O   UNL     1      27.954  44.569  53.534  1.00  0.00    -0.342 OA
BRANCH  18  19
HETATM   19  C   UNL     1      28.929  44.479  54.497  1.00  0.00     0.075 A 
HETATM   20  C   UNL     1      29.870  43.447  54.365  1.00  0.00    -0.029 A 
HETATM   21  C   UNL     1      29.825  42.482  53.214  1.00  0.00     0.051 C 
HETATM   22  C   UNL     1      30.903  43.339  55.311  1.00  0.00     0.009 A 
HETATM   23  C   UNL     1      30.991  44.238  56.374  1.00  0.00     0.001 A 
HETATM   24  C   UNL     1      30.059  45.266  56.493  1.00  0.00     0.003 A 
HETATM   25  C   UNL     1      29.036  45.393  55.553  1.00  0.00     0.037 A 
ENDBRANCH  18  19
ENDBRANCH  17  18
ENDBRANCH   1  17
TORSDOF 5
ENDMDL
MODEL 9
REMARK VINA RESULT:      -8.1      5.127      7.005
REMARK  5 active torsions:
REMARK  status: ('A' for Active; 'I' for Inactive)
REMARK    1  A    between atoms: C_3  and  O_4 
REMARK    2  A    between atoms: O_4  and  C_5 
REMARK    3  A    between atoms: C_5  and  C_6 
REMARK       I    between atoms: C_6  and  N_7 
REMARK    4  A    between atoms: N_7  and  N_8 
REMARK    5  A    between atoms: C_9  and  C_10 
ROOT
HETATM    1  C   UNL     1      26.569  44.704  53.970  1.00  0.00     0.261 C 
HETATM    2  N   UNL     1      27.202  43.662  53.301  1.00  0.00    -0.246 N 
HETATM    3  O   UNL     1      25.445  45.143  53.738  1.00  0.00    -0.269 OA
HETATM    4  H   UNL     1      28.044  43.288  53.733  1.00  0.00     0.192 HD
ENDROOT
BRANCH   2   5
HETATM    5  N   UNL     1      26.685  42.871  52.303  1.00  0.00    -0.184 NA
HETATM    6  C   UNL     1      27.380  41.877  51.851  1.00  0.00     0.152 C 
BRANCH   6   7
HETATM    7  C   UNL     1      26.844  41.060  50.778  1.00  0.00     0.011 A 
HETATM    8  C   UNL     1      27.497  39.960  50.130  1.00  0.00     0.004 A 
HETATM    9  C   UNL     1      26.618  39.461  49.166  1.00  0.00     0.043 A 
HETATM   10  C   UNL     1      28.761  39.347  50.267  1.00  0.00     0.014 A 
HETATM   11  C   UNL     1      26.939  38.378  48.339  1.00  0.00     0.030 A 
HETATM   12  N   UNL     1      25.477  40.225  49.226  1.00  0.00    -0.364 N 
HETATM   13  C   UNL     1      28.197  37.790  48.496  1.00  0.00     0.002 A 
HETATM   14  C   UNL     1      29.098  38.266  49.445  1.00  0.00     0.001 A 
HETATM   15  H   UNL     1      24.666  40.089  48.637  1.00  0.00     0.165 HD
HETATM   16  C   UNL     1      25.603  41.193  50.185  1.00  0.00     0.102 A 
ENDBRANCH   6   7
ENDBRANCH   2   5
BRANCH   1  17
HETATM   17  C   UNL     1      27.462  45.356  55.023  1.00  0.00     0.280 C 
BRANCH  17  18
HETATM   18  O   UNL     1      28.838  45.276  54.659  1.00  0.00    -0.342 OA
BRANCH  18  19
HETATM   19  C   UNL     1      29.667  44.922  55.696  1.00  0.00     0.075 A 
HETATM   20  C   UNL     1      30.463  43.780  55.521  1.00  0.00    -0.029 A 
HETATM   21  C   UNL     1      30.425  42.979  54.250  1.00  0.00     0.051 C 
HETATM   22  C   UNL     1      31.348  43.403  56.544  1.00  0.00     0.009 A 
HETATM   23  C   UNL     1      31.431  44.143  57.723  1.00  0.00     0.001 A 
HETATM   24  C   UNL     1      30.645  45.280  57.885  1.00  0.00     0.003 A 
HETATM   25  C   UNL     1      29.772  45.675  56.871  1.00  0.00     0.037 A 
ENDBRANCH  18  19
ENDBRANCH  17  18
ENDBRANCH   1  17
TORSDOF 5
ENDMDL
MODEL 10
REMARK VINA RESULT:      -8.1      4.805      8.781
REMARK  5 active torsions:
REMARK  status: ('A' for Active; 'I' for Inactive)
REMARK    1  A    between atoms: C_3  and  O_4 
REMARK    2  A    between atoms: O_4  and  C_5 
REMARK    3  A    between atoms: C_5  and  C_6 
REMARK       I    between atoms: C_6  and  N_7 
REMARK    4  A    between atoms: N_7  and  N_8 
REMARK    5  A    between atoms: C_9  and  C_10 
ROOT
HETATM    1  C   UNL     1      26.336  43.456  50.622  1.00  0.00     0.261 C 
HETATM    2  N   UNL     1      26.961  43.033  51.790  1.00  0.00    -0.246 N 
HETATM    3  O   UNL     1      25.876  44.575  50.406  1.00  0.00    -0.269 OA
HETATM    4  H   UNL     1      27.459  42.146  51.744  1.00  0.00     0.192 HD
ENDROOT
BRANCH   2   5
HETATM    5  N   UNL     1      27.255  43.784  52.902  1.00  0.00    -0.184 NA
HETATM    6  C   UNL     1      28.488  43.932  53.267  1.00  0.00     0.152 C 
BRANCH   6   7
HETATM    7  C   UNL     1      28.794  44.702  54.458  1.00  0.00     0.011 A 
HETATM    8  C   UNL     1      29.755  44.371  55.468  1.00  0.00     0.004 A 
HETATM    9  C   UNL     1      29.725  45.390  56.423  1.00  0.00     0.043 A 
HETATM   10  C   UNL     1      30.644  43.293  55.666  1.00  0.00     0.014 A 
HETATM   11  C   UNL     1      30.542  45.386  57.561  1.00  0.00     0.030 A 
HETATM   12  N   UNL     1      28.785  46.304  56.010  1.00  0.00    -0.364 N 
HETATM   13  C   UNL     1      31.412  44.305  57.731  1.00  0.00     0.002 A 
HETATM   14  C   UNL     1      31.464  43.271  56.800  1.00  0.00     0.001 A 
HETATM   15  H   UNL     1      28.549  47.150  56.511  1.00  0.00     0.165 HD
HETATM   16  C   UNL     1      28.214  45.899  54.834  1.00  0.00     0.102 A 
ENDBRANCH   6   7
ENDBRANCH   2   5
BRANCH   1  17
HETATM   17  C   UNL     1      26.179  42.335  49.598  1.00  0.00     0.280 C 
BRANCH  17  18
HETATM   18  O   UNL     1      27.376  42.148  48.844  1.00  0.00    -0.342 OA
BRANCH  18  19
HETATM   19  C   UNL     1      27.874  40.869  48.900  1.00  0.00     0.075 A 
HETATM   20  C   UNL     1      28.074  40.203  47.682  1.00  0.00    -0.029 A 
HETATM   21  C   UNL     1      27.770  40.860  46.365  1.00  0.00     0.051 C 
HETATM   22  C   UNL     1      28.612  38.906  47.694  1.00  0.00     0.009 A 
HETATM   23  C   UNL     1      28.935  38.280  48.898  1.00  0.00     0.001 A 
HETATM   24  C   UNL     1      28.742  38.951  50.102  1.00  0.00     0.003 A 
HETATM   25  C   UNL     1      28.221  40.245  50.104  1.00  0.00     0.037 A 
ENDBRANCH  18  19
ENDBRANCH  17  18
ENDBRANCH   1  17
TORSDOF 5
ENDMDL
