MODEL 1
REMARK VINA RESULT:      -8.9      0.000      0.000
REMARK  7 active torsions:
REMARK  status: ('A' for Active; 'I' for Inactive)
REMARK    1  A    between atoms: C_2  and  N_3 
REMARK    2  A    between atoms: C_2  and  C_17 
REMARK       I    between atoms: N_3  and  C_4 
REMARK    3  A    between atoms: C_4  and  C_5 
REMARK    4  A    between atoms: C_7  and  N_8 
REMARK    5  A    between atoms: C_17  and  O_18 
REMARK    6  A    between atoms: C_17  and  C_19 
REMARK    7  A    between atoms: C_22  and  O_23 
ROOT
HETATM    1  N   UNL     1      26.119  46.482  51.619  1.00  0.00    -0.349 N 
HETATM    2  C   UNL     1      26.505  46.480  50.295  1.00  0.00     0.270 C 
HETATM    3  O   UNL     1      26.970  45.503  49.720  1.00  0.00    -0.266 OA
HETATM    4  H   UNL     1      25.898  47.392  52.016  1.00  0.00     0.163 HD
ENDROOT
BRANCH   1   5
HETATM    5  C   UNL     1      26.335  45.339  52.501  1.00  0.00     0.114 C 
HETATM    6  C   UNL     1      25.110  44.425  52.474  1.00  0.00     0.035 C 
BRANCH   5   7
HETATM    7  C   UNL     1      26.777  45.754  53.934  1.00  0.00     0.173 C 
BRANCH   7   8
HETATM    8  O   UNL     1      26.977  47.171  53.995  1.00  0.00    -0.389 OA
HETATM    9  H   UNL     1      27.362  47.428  53.138  1.00  0.00     0.210 HD
ENDBRANCH   7   8
BRANCH   7  10
HETATM   10  C   UNL     1      28.017  45.041  54.448  1.00  0.00    -0.028 A 
HETATM   11  C   UNL     1      28.828  45.651  55.414  1.00  0.00     0.012 A 
HETATM   12  C   UNL     1      29.969  45.002  55.895  1.00  0.00     0.037 A 
HETATM   13  C   UNL     1      30.323  43.736  55.425  1.00  0.00     0.068 A 
HETATM   14  C   UNL     1      29.520  43.118  54.469  1.00  0.00     0.037 A 
HETATM   15  C   UNL     1      28.376  43.766  53.985  1.00  0.00     0.012 A 
BRANCH  13  16
HETATM   16  O   UNL     1      31.463  43.218  55.975  1.00  0.00    -0.356 OA
HETATM   17  C   UNL     1      31.749  43.580  57.320  1.00  0.00     0.210 C 
ENDBRANCH  13  16
ENDBRANCH   7  10
ENDBRANCH   5   7
ENDBRANCH   1   5
BRANCH   2  18
HETATM   18  C   UNL     1      26.334  47.794  49.595  1.00  0.00     0.126 A 
HETATM   19  N   UNL     1      25.050  48.201  49.386  1.00  0.00    -0.224 NA
HETATM   20  C   UNL     1      24.886  49.395  48.751  1.00  0.00     0.151 A 
HETATM   21  C   UNL     1      25.960  50.178  48.324  1.00  0.00     0.052 A 
HETATM   22  C   UNL     1      27.258  49.730  48.558  1.00  0.00     0.006 A 
HETATM   23  C   UNL     1      27.453  48.517  49.208  1.00  0.00     0.037 A 
BRANCH  20  24
HETATM   24  N   UNL     1      23.557  49.860  48.520  1.00  0.00    -0.227 N 
HETATM   25  N   UNL     1      22.714  49.260  47.635  1.00  0.00    -0.179 NA
HETATM   26  C   UNL     1      21.593  49.980  47.703  1.00  0.00     0.141 A 
HETATM   27  C   UNL     1      21.685  51.041  48.618  1.00  0.00     0.040 A 
HETATM   28  C   UNL     1      22.955  50.942  49.130  1.00  0.00     0.122 A 
ENDBRANCH  20  24
ENDBRANCH   2  18
TORSDOF 7
ENDMDL
MODEL 2
REMARK VINA RESULT:      -8.6      3.411      8.536
REMARK  7 active torsions:
REMARK  status: ('A' for Active; 'I' for Inactive)
REMARK    1  A    between atoms: C_2  and  N_3 
REMARK    2  A    between atoms: C_2  and  C_17 
REMARK       I    between atoms: N_3  and  C_4 
REMARK    3  A    between atoms: C_4  and  C_5 
REMARK    4  A    between atoms: C_7  and  N_8 
REMARK    5  A    between atoms: C_17  and  O_18 
REMARK    6  A    between atoms: C_17  and  C_19 
REMARK    7  A    between atoms: C_22  and  O_23 
ROOT
HETATM    1  N   UNL     1      26.727  43.491  52.041  1.00  0.00    -0.349 N 
HETATM    2  C   UNL     1      26.074  44.200  53.027  1.00  0.00     0.270 C 
HETATM    3  O   UNL     1      24.869  44.128  53.236  1.00  0.00    -0.266 OA
HETATM    4  H   UNL     1      27.694  43.755  51.870  1.00  0.00     0.163 HD
ENDROOT
BRANCH   1   5
HETATM    5  C   UNL     1      26.018  42.665  51.068  1.00  0.00     0.114 C 
HETATM    6  C   UNL     1      26.617  41.259  51.048  1.00  0.00     0.035 C 
BRANCH   5   7
HETATM    7  C   UNL     1      25.926  43.328  49.663  1.00  0.00     0.173 C 
BRANCH   7   8
HETATM    8  O   UNL     1      27.143  43.110  48.937  1.00  0.00    -0.389 OA
HETATM    9  H   UNL     1      27.701  43.890  49.104  1.00  0.00     0.210 HD
ENDBRANCH   7   8
BRANCH   7  10
HETATM   10  C   UNL     1      25.602  44.812  49.681  1.00  0.00    -0.028 A 
HETATM   11  C   UNL     1      24.268  45.240  49.673  1.00  0.00     0.012 A 
HETATM   12  C   UNL     1      23.960  46.604  49.692  1.00  0.00     0.037 A 
HETATM   13  C   UNL     1      24.971  47.565  49.720  1.00  0.00     0.068 A 
HETATM   14  C   UNL     1      26.301  47.150  49.734  1.00  0.00     0.037 A 
HETATM   15  C   UNL     1      26.613  45.785  49.715  1.00  0.00     0.012 A 
BRANCH  13  16
HETATM   16  O   UNL     1      24.532  48.860  49.732  1.00  0.00    -0.356 OA
HETATM   17  C   UNL     1      23.198  49.090  49.296  1.00  0.00     0.210 C 
ENDBRANCH  13  16
ENDBRANCH   7  10
ENDBRANCH   5   7
ENDBRANCH   1   5
BRANCH   2  18
HETATM   18  C   UNL     1      26.958  45.102  53.834  1.00  0.00     0.126 A 
HETATM   19  N   UNL     1      27.961  44.497  54.531  1.00  0.00    -0.224 NA
HETATM   20  C   UNL     1      28.768  45.311  55.265  1.00  0.00     0.151 A 
HETATM   21  C   UNL     1      28.598  46.696  55.321  1.00  0.00     0.052 A 
HETATM   22  C   UNL     1      27.564  47.279  54.592  1.00  0.00     0.006 A 
HETATM   23  C   UNL     1      26.727  46.471  53.831  1.00  0.00     0.037 A 
BRANCH  20  24
HETATM   24  N   UNL     1      29.835  44.717  56.003  1.00  0.00    -0.227 N 
HETATM   25  N   UNL     1      30.258  45.206  57.202  1.00  0.00    -0.179 NA
HETATM   26  C   UNL     1      31.254  44.394  57.560  1.00  0.00     0.141 A 
HETATM   27  C   UNL     1      31.492  43.380  56.618  1.00  0.00     0.040 A 
HETATM   28  C   UNL     1      30.568  43.609  55.628  1.00  0.00     0.122 A 
ENDBRANCH  20  24
ENDBRANCH   2  18
TORSDOF 7
ENDMDL
MODEL 3
REMARK VINA RESULT:      -8.5      1.898      2.500
REMARK  7 active torsions:
REMARK  status: ('A' for Active; 'I' for Inactive)
REMARK    1  A    between atoms: C_2  and  N_3 
REMARK    2  A    between atoms: C_2  and  C_17 
REMARK       I    between atoms: N_3  and  C_4 
REMARK    3  A    between atoms: C_4  and  C_5 
REMARK    4  A    between atoms: C_7  and  N_8 
REMARK    5  A    between atoms: C_17  and  O_18 
REMARK    6  A    between atoms: C_17  and  C_19 
REMARK    7  A    between atoms: C_22  and  O_23 
ROOT
HETATM    1  N   UNL     1      25.090  47.223  50.822  1.00  0.00    -0.349 N 
HETATM    2  C   UNL     1      25.519  47.897  49.699  1.00  0.00     0.270 C 
HETATM    3  O   UNL     1      26.620  47.737  49.184  1.00  0.00    -0.266 OA
HETATM    4  H   UNL     1      24.225  47.557  51.239  1.00  0.00     0.163 HD
ENDROOT
BRANCH   1   5
HETATM    5  C   UNL     1      25.960  46.326  51.579  1.00  0.00     0.114 C 
HETATM    6  C   UNL     1      25.813  44.897  51.056  1.00  0.00     0.035 C 
BRANCH   5   7
HETATM    7  C   UNL     1      25.769  46.453  53.118  1.00  0.00     0.173 C 
BRANCH   7   8
HETATM    8  O   UNL     1      25.359  47.784  53.454  1.00  0.00    -0.389 OA
HETATM    9  H   UNL     1      25.667  48.354  52.727  1.00  0.00     0.210 HD
ENDBRANCH   7   8
BRANCH   7  10
HETATM   10  C   UNL     1      26.986  46.070  53.943  1.00  0.00    -0.028 A 
HETATM   11  C   UNL     1      27.637  47.034  54.725  1.00  0.00     0.012 A 
HETATM   12  C   UNL     1      28.756  46.690  55.489  1.00  0.00     0.037 A 
HETATM   13  C   UNL     1      29.247  45.384  55.490  1.00  0.00     0.068 A 
HETATM   14  C   UNL     1      28.604  44.416  54.721  1.00  0.00     0.037 A 
HETATM   15  C   UNL     1      27.483  44.757  53.954  1.00  0.00     0.012 A 
BRANCH  13  16
HETATM   16  O   UNL     1      30.348  45.186  56.277  1.00  0.00    -0.356 OA
HETATM   17  C   UNL     1      30.337  45.793  57.563  1.00  0.00     0.210 C 
ENDBRANCH  13  16
ENDBRANCH   7  10
ENDBRANCH   5   7
ENDBRANCH   1   5
BRANCH   2  18
HETATM   18  C   UNL     1      24.531  48.880  49.148  1.00  0.00     0.126 A 
HETATM   19  N   UNL     1      23.247  48.752  49.587  1.00  0.00    -0.224 NA
HETATM   20  C   UNL     1      22.344  49.643  49.091  1.00  0.00     0.151 A 
HETATM   21  C   UNL     1      22.688  50.642  48.179  1.00  0.00     0.052 A 
HETATM   22  C   UNL     1      24.012  50.743  47.757  1.00  0.00     0.006 A 
HETATM   23  C   UNL     1      24.955  49.849  48.250  1.00  0.00     0.037 A 
BRANCH  20  24
HETATM   24  N   UNL     1      20.990  49.548  49.532  1.00  0.00    -0.227 N 
HETATM   25  N   UNL     1      20.371  50.548  50.219  1.00  0.00    -0.179 NA
HETATM   26  C   UNL     1      19.142  50.082  50.447  1.00  0.00     0.141 A 
HETATM   27  C   UNL     1      18.942  48.796  49.921  1.00  0.00     0.040 A 
HETATM   28  C   UNL     1      20.143  48.475  49.337  1.00  0.00     0.122 A 
ENDBRANCH  20  24
ENDBRANCH   2  18
TORSDOF 7
ENDMDL
MODEL 4
REMARK VINA RESULT:      -8.4      3.061      9.020
REMARK  7 active torsions:
REMARK  status: ('A' for Active; 'I' for Inactive)
REMARK    1  A    between atoms: C_2  and  N_3 
REMARK    2  A    between atoms: C_2  and  C_17 
REMARK       I    between atoms: N_3  and  C_4 
REMARK    3  A    between atoms: C_4  and  C_5 
REMARK    4  A    between atoms: C_7  and  N_8 
REMARK    5  A    between atoms: C_17  and  O_18 
REMARK    6  A    between atoms: C_17  and  C_19 
REMARK    7  A    between atoms: C_22  and  O_23 
ROOT
HETATM    1  N   UNL     1      26.498  43.599  51.763  1.00  0.00    -0.349 N 
HETATM    2  C   UNL     1      26.904  44.321  52.865  1.00  0.00     0.270 C 
HETATM    3  O   UNL     1      26.253  45.233  53.362  1.00  0.00    -0.266 OA
HETATM    4  H   UNL     1      27.193  42.979  51.356  1.00  0.00     0.163 HD
ENDROOT
BRANCH   1   5
HETATM    5  C   UNL     1      25.294  43.932  51.007  1.00  0.00     0.114 C 
HETATM    6  C   UNL     1      24.368  42.716  50.947  1.00  0.00     0.035 C 
BRANCH   5   7
HETATM    7  C   UNL     1      25.604  44.553  49.614  1.00  0.00     0.173 C 
BRANCH   7   8
HETATM    8  O   UNL     1      26.976  44.324  49.270  1.00  0.00    -0.389 OA
HETATM    9  H   UNL     1      27.140  43.377  49.426  1.00  0.00     0.210 HD
ENDBRANCH   7   8
BRANCH   7  10
HETATM   10  C   UNL     1      25.288  46.035  49.496  1.00  0.00    -0.028 A 
HETATM   11  C   UNL     1      23.973  46.457  49.263  1.00  0.00     0.012 A 
HETATM   12  C   UNL     1      23.672  47.818  49.155  1.00  0.00     0.037 A 
HETATM   13  C   UNL     1      24.673  48.782  49.277  1.00  0.00     0.068 A 
HETATM   14  C   UNL     1      25.984  48.374  49.515  1.00  0.00     0.037 A 
HETATM   15  C   UNL     1      26.288  47.012  49.623  1.00  0.00     0.012 A 
BRANCH  13  16
HETATM   16  O   UNL     1      24.244  50.075  49.147  1.00  0.00    -0.356 OA
HETATM   17  C   UNL     1      23.285  50.333  48.129  1.00  0.00     0.210 C 
ENDBRANCH  13  16
ENDBRANCH   7  10
ENDBRANCH   5   7
ENDBRANCH   1   5
BRANCH   2  18
HETATM   18  C   UNL     1      28.238  43.920  53.415  1.00  0.00     0.126 A 
HETATM   19  N   UNL     1      28.584  44.469  54.614  1.00  0.00    -0.224 NA
HETATM   20  C   UNL     1      29.795  44.108  55.121  1.00  0.00     0.151 A 
HETATM   21  C   UNL     1      30.657  43.225  54.467  1.00  0.00     0.052 A 
HETATM   22  C   UNL     1      30.267  42.681  53.246  1.00  0.00     0.006 A 
HETATM   23  C   UNL     1      29.034  43.030  52.707  1.00  0.00     0.037 A 
BRANCH  20  24
HETATM   24  N   UNL     1      30.192  44.655  56.378  1.00  0.00    -0.227 N 
HETATM   25  N   UNL     1      31.113  44.053  57.181  1.00  0.00    -0.179 NA
HETATM   26  C   UNL     1      31.203  44.856  58.243  1.00  0.00     0.141 A 
HETATM   27  C   UNL     1      30.360  45.975  58.149  1.00  0.00     0.040 A 
HETATM   28  C   UNL     1      29.722  45.824  56.943  1.00  0.00     0.122 A 
ENDBRANCH  20  24
ENDBRANCH   2  18
TORSDOF 7
ENDMDL
MODEL 5
REMARK VINA RESULT:      -8.0      4.271     10.105
REMARK  7 active torsions:
REMARK  status: ('A' for Active; 'I' for Inactive)
REMARK    1  A    between atoms: C_2  and  N_3 
REMARK    2  A    between atoms: C_2  and  C_17 
REMARK       I    between atoms: N_3  and  C_4 
REMARK    3  A    between atoms: C_4  and  C_5 
REMARK    4  A    between atoms: C_7  and  N_8 
REMARK    5  A    between atoms: C_17  and  O_18 
REMARK    6  A    between atoms: C_17  and  C_19 
REMARK    7  A    between atoms: C_22  and  O_23 
ROOT
HETATM    1  N   UNL     1      22.995  49.096  49.428  1.00  0.00    -0.349 N 
HETATM    2  C   UNL     1      24.000  49.642  48.658  1.00  0.00     0.270 C 
HETATM    3  O   UNL     1      23.820  50.514  47.817  1.00  0.00    -0.266 OA
HETATM    4  H   UNL     1      23.247  48.276  49.974  1.00  0.00     0.163 HD
ENDROOT
BRANCH   1   5
HETATM    5  C   UNL     1      21.587  49.431  49.232  1.00  0.00     0.114 C 
HETATM    6  C   UNL     1      21.169  49.096  47.801  1.00  0.00     0.035 C 
BRANCH   5   7
HETATM    7  C   UNL     1      21.246  50.889  49.659  1.00  0.00     0.173 C 
BRANCH   7   8
HETATM    8  O   UNL     1      21.590  51.090  51.036  1.00  0.00    -0.389 OA
HETATM    9  H   UNL     1      22.305  50.457  51.232  1.00  0.00     0.210 HD
ENDBRANCH   7   8
BRANCH   7  10
HETATM   10  C   UNL     1      19.800  51.295  49.430  1.00  0.00    -0.028 A 
HETATM   11  C   UNL     1      19.490  52.293  48.498  1.00  0.00     0.012 A 
HETATM   12  C   UNL     1      18.162  52.672  48.278  1.00  0.00     0.037 A 
HETATM   13  C   UNL     1      17.120  52.065  48.981  1.00  0.00     0.068 A 
HETATM   14  C   UNL     1      17.417  51.067  49.907  1.00  0.00     0.037 A 
HETATM   15  C   UNL     1      18.746  50.686  50.129  1.00  0.00     0.012 A 
BRANCH  13  16
HETATM   16  O   UNL     1      15.872  52.532  48.673  1.00  0.00    -0.356 OA
HETATM   17  C   UNL     1      14.991  52.778  49.762  1.00  0.00     0.210 C 
ENDBRANCH  13  16
ENDBRANCH   7  10
ENDBRANCH   5   7
ENDBRANCH   1   5
BRANCH   2  18
HETATM   18  C   UNL     1      25.360  49.065  48.910  1.00  0.00     0.126 A 
HETATM   19  N   UNL     1      25.392  47.822  49.467  1.00  0.00    -0.224 NA
HETATM   20  C   UNL     1      26.625  47.291  49.698  1.00  0.00     0.151 A 
HETATM   21  C   UNL     1      27.809  47.964  49.393  1.00  0.00     0.052 A 
HETATM   22  C   UNL     1      27.735  49.233  48.822  1.00  0.00     0.006 A 
HETATM   23  C   UNL     1      26.490  49.797  48.571  1.00  0.00     0.037 A 
BRANCH  20  24
HETATM   24  N   UNL     1      26.702  45.987  50.274  1.00  0.00    -0.227 N 
HETATM   25  N   UNL     1      27.260  44.930  49.621  1.00  0.00    -0.179 NA
HETATM   26  C   UNL     1      27.137  43.911  50.472  1.00  0.00     0.141 A 
HETATM   27  C   UNL     1      26.509  44.280  51.673  1.00  0.00     0.040 A 
HETATM   28  C   UNL     1      26.240  45.618  51.521  1.00  0.00     0.122 A 
ENDBRANCH  20  24
ENDBRANCH   2  18
TORSDOF 7
ENDMDL
MODEL 6
REMARK VINA RESULT:      -8.0      4.405     10.398
REMARK  7 active torsions:
REMARK  status: ('A' for Active; 'I' for Inactive)
REMARK    1  A    between atoms: C_2  and  N_3 
REMARK    2  A    between atoms: C_2  and  C_17 
REMARK       I    between atoms: N_3  and  C_4 
REMARK    3  A    between atoms: C_4  and  C_5 
REMARK    4  A    between atoms: C_7  and  N_8 
REMARK    5  A    between atoms: C_17  and  O_18 
REMARK    6  A    between atoms: C_17  and  C_19 
REMARK    7  A    between atoms: C_22  and  O_23 
ROOT
HETATM    1  N   UNL     1      22.002  49.838  49.081  1.00  0.00    -0.349 N 
HETATM    2  C   UNL     1      23.029  49.890  48.162  1.00  0.00     0.270 C 
HETATM    3  O   UNL     1      22.898  50.297  47.014  1.00  0.00    -0.266 OA
HETATM    4  H   UNL     1      22.201  49.338  49.943  1.00  0.00     0.163 HD
ENDROOT
BRANCH   1   5
HETATM    5  C   UNL     1      20.621  50.160  48.733  1.00  0.00     0.114 C 
HETATM    6  C   UNL     1      20.438  51.678  48.691  1.00  0.00     0.035 C 
BRANCH   5   7
HETATM    7  C   UNL     1      19.583  49.428  49.632  1.00  0.00     0.173 C 
BRANCH   7   8
HETATM    8  O   UNL     1      20.131  48.194  50.110  1.00  0.00    -0.389 OA
HETATM    9  H   UNL     1      20.445  48.370  51.016  1.00  0.00     0.210 HD
ENDBRANCH   7   8
BRANCH   7  10
HETATM   10  C   UNL     1      18.241  49.167  48.968  1.00  0.00    -0.028 A 
HETATM   11  C   UNL     1      17.844  47.854  48.680  1.00  0.00     0.012 A 
HETATM   12  C   UNL     1      16.610  47.603  48.072  1.00  0.00     0.037 A 
HETATM   13  C   UNL     1      15.750  48.651  47.741  1.00  0.00     0.068 A 
HETATM   14  C   UNL     1      16.133  49.960  48.028  1.00  0.00     0.037 A 
HETATM   15  C   UNL     1      17.368  50.215  48.637  1.00  0.00     0.012 A 
BRANCH  13  16
HETATM   16  O   UNL     1      14.579  48.267  47.148  1.00  0.00    -0.356 OA
HETATM   17  C   UNL     1      14.499  48.405  45.735  1.00  0.00     0.210 C 
ENDBRANCH  13  16
ENDBRANCH   7  10
ENDBRANCH   5   7
ENDBRANCH   1   5
BRANCH   2  18
HETATM   18  C   UNL     1      24.344  49.383  48.670  1.00  0.00     0.126 A 
HETATM   19  N   UNL     1      24.288  48.476  49.685  1.00  0.00    -0.224 NA
HETATM   20  C   UNL     1      25.480  48.009  50.151  1.00  0.00     0.151 A 
HETATM   21  C   UNL     1      26.709  48.424  49.635  1.00  0.00     0.052 A 
HETATM   22  C   UNL     1      26.726  49.350  48.594  1.00  0.00     0.006 A 
HETATM   23  C   UNL     1      25.523  49.840  48.097  1.00  0.00     0.037 A 
BRANCH  20  24
HETATM   24  N   UNL     1      25.464  47.052  51.209  1.00  0.00    -0.227 N 
HETATM   25  N   UNL     1      25.852  47.357  52.478  1.00  0.00    -0.179 NA
HETATM   26  C   UNL     1      25.699  46.218  53.156  1.00  0.00     0.141 A 
HETATM   27  C   UNL     1      25.216  45.171  52.354  1.00  0.00     0.040 A 
HETATM   28  C   UNL     1      25.072  45.732  51.108  1.00  0.00     0.122 A 
ENDBRANCH  20  24
ENDBRANCH   2  18
TORSDOF 7
ENDMDL
MODEL 7
REMARK VINA RESULT:      -8.0      3.664      9.893
REMARK  7 active torsions:
REMARK  status: ('A' for Active; 'I' for Inactive)
REMARK    1  A    between atoms: C_2  and  N_3 
REMARK    2  A    between atoms: C_2  and  C_17 
REMARK       I    between atoms: N_3  and  C_4 
REMARK    3  A    between atoms: C_4  and  C_5 
REMARK    4  A    between atoms: C_7  and  N_8 
REMARK    5  A    between atoms: C_17  and  O_18 
REMARK    6  A    between atoms: C_17  and  C_19 
REMARK    7  A    between atoms: C_22  and  O_23 
ROOT
HETATM    1  N   UNL     1      24.230  48.653  49.485  1.00  0.00    -0.349 N 
HETATM    2  C   UNL     1      23.861  47.326  49.417  1.00  0.00     0.270 C 
HETATM    3  O   UNL     1      23.133  46.863  48.547  1.00  0.00    -0.266 OA
HETATM    4  H   UNL     1      24.706  48.939  50.336  1.00  0.00     0.163 HD
ENDROOT
BRANCH   1   5
HETATM    5  C   UNL     1      23.690  49.664  48.581  1.00  0.00     0.114 C 
HETATM    6  C   UNL     1      24.831  50.349  47.829  1.00  0.00     0.035 C 
BRANCH   5   7
HETATM    7  C   UNL     1      22.722  50.656  49.290  1.00  0.00     0.173 C 
BRANCH   7   8
HETATM    8  O   UNL     1      22.550  50.278  50.661  1.00  0.00    -0.389 OA
HETATM    9  H   UNL     1      21.623  49.992  50.749  1.00  0.00     0.210 HD
ENDBRANCH   7   8
BRANCH   7  10
HETATM   10  C   UNL     1      21.362  50.800  48.626  1.00  0.00    -0.028 A 
HETATM   11  C   UNL     1      21.053  50.046  47.486  1.00  0.00     0.012 A 
HETATM   12  C   UNL     1      19.804  50.169  46.870  1.00  0.00     0.037 A 
HETATM   13  C   UNL     1      18.842  51.043  47.376  1.00  0.00     0.068 A 
HETATM   14  C   UNL     1      19.136  51.794  48.513  1.00  0.00     0.037 A 
HETATM   15  C   UNL     1      20.386  51.672  49.132  1.00  0.00     0.012 A 
BRANCH  13  16
HETATM   16  O   UNL     1      17.666  51.070  46.677  1.00  0.00    -0.356 OA
HETATM   17  C   UNL     1      17.730  51.529  45.332  1.00  0.00     0.210 C 
ENDBRANCH  13  16
ENDBRANCH   7  10
ENDBRANCH   5   7
ENDBRANCH   1   5
BRANCH   2  18
HETATM   18  C   UNL     1      24.408  46.471  50.519  1.00  0.00     0.126 A 
HETATM   19  N   UNL     1      24.971  47.131  51.570  1.00  0.00    -0.224 NA
HETATM   20  C   UNL     1      25.469  46.361  52.576  1.00  0.00     0.151 A 
HETATM   21  C   UNL     1      25.420  44.965  52.556  1.00  0.00     0.052 A 
HETATM   22  C   UNL     1      24.833  44.326  51.467  1.00  0.00     0.006 A 
HETATM   23  C   UNL     1      24.313  45.089  50.427  1.00  0.00     0.037 A 
BRANCH  20  24
HETATM   24  N   UNL     1      26.061  47.014  53.698  1.00  0.00    -0.227 N 
HETATM   25  N   UNL     1      25.513  48.120  54.274  1.00  0.00    -0.179 NA
HETATM   26  C   UNL     1      26.349  48.425  55.269  1.00  0.00     0.141 A 
HETATM   27  C   UNL     1      27.434  47.538  55.356  1.00  0.00     0.040 A 
HETATM   28  C   UNL     1      27.226  46.641  54.338  1.00  0.00     0.122 A 
ENDBRANCH  20  24
ENDBRANCH   2  18
TORSDOF 7
ENDMDL
MODEL 8
REMARK VINA RESULT:      -7.9      2.140      2.882
REMARK  7 active torsions:
REMARK  status: ('A' for Active; 'I' for Inactive)
REMARK    1  A    between atoms: C_2  and  N_3 
REMARK    2  A    between atoms: C_2  and  C_17 
REMARK       I    between atoms: N_3  and  C_4 
REMARK    3  A    between atoms: C_4  and  C_5 
REMARK    4  A    between atoms: C_7  and  N_8 
REMARK    5  A    between atoms: C_17  and  O_18 
REMARK    6  A    between atoms: C_17  and  C_19 
REMARK    7  A    between atoms: C_22  and  O_23 
ROOT
HETATM    1  N   UNL     1      25.893  44.014  50.714  1.00  0.00    -0.349 N 
HETATM    2  C   UNL     1      25.939  45.038  49.793  1.00  0.00     0.270 C 
HETATM    3  O   UNL     1      26.978  45.543  49.384  1.00  0.00    -0.266 OA
HETATM    4  H   UNL     1      24.973  43.791  51.086  1.00  0.00     0.163 HD
ENDROOT
BRANCH   1   5
HETATM    5  C   UNL     1      27.087  43.504  51.382  1.00  0.00     0.114 C 
HETATM    6  C   UNL     1      27.677  42.346  50.577  1.00  0.00     0.035 C 
BRANCH   5   7
HETATM    7  C   UNL     1      26.845  43.166  52.882  1.00  0.00     0.173 C 
BRANCH   7   8
HETATM    8  O   UNL     1      25.605  43.734  53.319  1.00  0.00    -0.389 OA
HETATM    9  H   UNL     1      25.287  43.166  54.044  1.00  0.00     0.210 HD
ENDBRANCH   7   8
BRANCH   7  10
HETATM   10  C   UNL     1      27.962  43.597  53.818  1.00  0.00    -0.028 A 
HETATM   11  C   UNL     1      29.016  42.720  54.105  1.00  0.00     0.012 A 
HETATM   12  C   UNL     1      30.050  43.109  54.962  1.00  0.00     0.037 A 
HETATM   13  C   UNL     1      30.053  44.375  55.549  1.00  0.00     0.068 A 
HETATM   14  C   UNL     1      29.013  45.258  55.265  1.00  0.00     0.037 A 
HETATM   15  C   UNL     1      27.977  44.871  54.407  1.00  0.00     0.012 A 
BRANCH  13  16
HETATM   16  O   UNL     1      31.119  44.625  56.369  1.00  0.00    -0.356 OA
HETATM   17  C   UNL     1      31.707  43.504  57.018  1.00  0.00     0.210 C 
ENDBRANCH  13  16
ENDBRANCH   7  10
ENDBRANCH   5   7
ENDBRANCH   1   5
BRANCH   2  18
HETATM   18  C   UNL     1      24.598  45.519  49.329  1.00  0.00     0.126 A 
HETATM   19  N   UNL     1      24.418  46.870  49.308  1.00  0.00    -0.224 NA
HETATM   20  C   UNL     1      23.202  47.315  48.886  1.00  0.00     0.151 A 
HETATM   21  C   UNL     1      22.176  46.454  48.492  1.00  0.00     0.052 A 
HETATM   22  C   UNL     1      22.399  45.079  48.524  1.00  0.00     0.006 A 
HETATM   23  C   UNL     1      23.633  44.598  48.947  1.00  0.00     0.037 A 
BRANCH  20  24
HETATM   24  N   UNL     1      22.975  48.724  48.842  1.00  0.00    -0.227 N 
HETATM   25  N   UNL     1      23.868  49.625  49.339  1.00  0.00    -0.179 NA
HETATM   26  C   UNL     1      23.301  50.811  49.117  1.00  0.00     0.141 A 
HETATM   27  C   UNL     1      22.052  50.705  48.483  1.00  0.00     0.040 A 
HETATM   28  C   UNL     1      21.866  49.354  48.317  1.00  0.00     0.122 A 
ENDBRANCH  20  24
ENDBRANCH   2  18
TORSDOF 7
ENDMDL
MODEL 9
REMARK VINA RESULT:      -7.8      3.811      7.595
REMARK  7 active torsions:
REMARK  status: ('A' for Active; 'I' for Inactive)
REMARK    1  A    between atoms: C_2  and  N_3 
REMARK    2  A    between atoms: C_2  and  C_17 
REMARK       I    between atoms: N_3  and  C_4 
REMARK    3  A    between atoms: C_4  and  C_5 
REMARK    4  A    between atoms: C_7  and  N_8 
REMARK    5  A    between atoms: C_17  and  O_18 
REMARK    6  A    between atoms: C_17  and  C_19 
REMARK    7  A    between atoms: C_22  and  O_23 
ROOT
HETATM    1  N   UNL     1      27.937  41.993  51.800  1.00  0.00    -0.349 N 
HETATM    2  C   UNL     1      28.469  41.662  53.028  1.00  0.00     0.270 C 
HETATM    3  O   UNL     1      28.613  40.511  53.423  1.00  0.00    -0.266 OA
HETATM    4  H   UNL     1      27.728  42.978  51.657  1.00  0.00     0.163 HD
ENDROOT
BRANCH   1   5
HETATM    5  C   UNL     1      27.383  40.995  50.891  1.00  0.00     0.114 C 
HETATM    6  C   UNL     1      28.179  40.984  49.586  1.00  0.00     0.035 C 
BRANCH   5   7
HETATM    7  C   UNL     1      25.847  41.146  50.686  1.00  0.00     0.173 C 
BRANCH   7   8
HETATM    8  O   UNL     1      25.411  40.313  49.605  1.00  0.00    -0.389 OA
HETATM    9  H   UNL     1      25.942  40.574  48.831  1.00  0.00     0.210 HD
ENDBRANCH   7   8
BRANCH   7  10
HETATM   10  C   UNL     1      25.375  42.572  50.454  1.00  0.00    -0.028 A 
HETATM   11  C   UNL     1      24.891  43.335  51.524  1.00  0.00     0.012 A 
HETATM   12  C   UNL     1      24.458  44.649  51.321  1.00  0.00     0.037 A 
HETATM   13  C   UNL     1      24.498  45.226  50.051  1.00  0.00     0.068 A 
HETATM   14  C   UNL     1      24.982  44.477  48.980  1.00  0.00     0.037 A 
HETATM   15  C   UNL     1      25.417  43.162  49.181  1.00  0.00     0.012 A 
BRANCH  13  16
HETATM   16  O   UNL     1      24.040  46.513  49.991  1.00  0.00    -0.356 OA
HETATM   17  C   UNL     1      24.981  47.543  50.268  1.00  0.00     0.210 C 
ENDBRANCH  13  16
ENDBRANCH   7  10
ENDBRANCH   5   7
ENDBRANCH   1   5
BRANCH   2  18
HETATM   18  C   UNL     1      28.851  42.836  53.878  1.00  0.00     0.126 A 
HETATM   19  N   UNL     1      28.007  43.905  53.841  1.00  0.00    -0.224 NA
HETATM   20  C   UNL     1      28.347  44.975  54.612  1.00  0.00     0.151 A 
HETATM   21  C   UNL     1      29.495  45.002  55.405  1.00  0.00     0.052 A 
HETATM   22  C   UNL     1      30.332  43.888  55.420  1.00  0.00     0.006 A 
HETATM   23  C   UNL     1      30.007  42.781  54.645  1.00  0.00     0.037 A 
BRANCH  20  24
HETATM   24  N   UNL     1      27.485  46.113  54.607  1.00  0.00    -0.227 N 
HETATM   25  N   UNL     1      27.591  47.116  55.522  1.00  0.00    -0.179 NA
HETATM   26  C   UNL     1      26.624  47.973  55.189  1.00  0.00     0.141 A 
HETATM   27  C   UNL     1      25.887  47.551  54.071  1.00  0.00     0.040 A 
HETATM   28  C   UNL     1      26.460  46.354  53.715  1.00  0.00     0.122 A 
ENDBRANCH  20  24
ENDBRANCH   2  18
TORSDOF 7
ENDMDL
MODEL 10
REMARK VINA RESULT:      -7.8      2.582      3.458
REMARK  7 active torsions:
REMARK  status: ('A' for Active; 'I' for Inactive)
REMARK    1  A    between atoms: C_2  and  N_3 
REMARK    2  A    between atoms: C_2  and  C_17 
REMARK       I    between atoms: N_3  and  C_4 
REMARK    3  A    between atoms: C_4  and  C_5 
REMARK    4  A    between atoms: C_7  and  N_8 
REMARK    5  A    between atoms: C_17  and  O_18 
REMARK    6  A    between atoms: C_17  and  C_19 
REMARK    7  A    between atoms: C_22  and  O_23 
ROOT
HETATM    1  N   UNL     1      27.123  43.019  51.540  1.00  0.00    -0.349 N 
HETATM    2  C   UNL     1      26.857  43.685  50.362  1.00  0.00     0.270 C 
HETATM    3  O   UNL     1      27.225  43.295  49.260  1.00  0.00    -0.266 OA
HETATM    4  H   UNL     1      26.901  43.523  52.396  1.00  0.00     0.163 HD
ENDROOT
BRANCH   1   5
HETATM    5  C   UNL     1      27.972  41.834  51.597  1.00  0.00     0.114 C 
HETATM    6  C   UNL     1      27.303  40.680  50.851  1.00  0.00     0.035 C 
BRANCH   5   7
HETATM    7  C   UNL     1      28.411  41.471  53.046  1.00  0.00     0.173 C 
BRANCH   7   8
HETATM    8  O   UNL     1      27.368  40.745  53.708  1.00  0.00    -0.389 OA
HETATM    9  H   UNL     1      26.531  41.077  53.338  1.00  0.00     0.210 HD
ENDBRANCH   7   8
BRANCH   7  10
HETATM   10  C   UNL     1      28.827  42.659  53.899  1.00  0.00    -0.028 A 
HETATM   11  C   UNL     1      30.155  42.787  54.326  1.00  0.00     0.012 A 
HETATM   12  C   UNL     1      30.547  43.877  55.108  1.00  0.00     0.037 A 
HETATM   13  C   UNL     1      29.627  44.858  55.480  1.00  0.00     0.068 A 
HETATM   14  C   UNL     1      28.304  44.743  55.056  1.00  0.00     0.037 A 
HETATM   15  C   UNL     1      27.909  43.653  54.272  1.00  0.00     0.012 A 
BRANCH  13  16
HETATM   16  O   UNL     1      30.141  45.866  56.248  1.00  0.00    -0.356 OA
HETATM   17  C   UNL     1      29.736  45.905  57.611  1.00  0.00     0.210 C 
ENDBRANCH  13  16
ENDBRANCH   7  10
ENDBRANCH   5   7
ENDBRANCH   1   5
BRANCH   2  18
HETATM   18  C   UNL     1      26.089  44.960  50.527  1.00  0.00     0.126 A 
HETATM   19  N   UNL     1      25.082  45.176  49.633  1.00  0.00    -0.224 NA
HETATM   20  C   UNL     1      24.378  46.332  49.778  1.00  0.00     0.151 A 
HETATM   21  C   UNL     1      24.654  47.267  50.778  1.00  0.00     0.052 A 
HETATM   22  C   UNL     1      25.688  47.009  51.675  1.00  0.00     0.006 A 
HETATM   23  C   UNL     1      26.420  45.834  51.553  1.00  0.00     0.037 A 
BRANCH  20  24
HETATM   24  N   UNL     1      23.311  46.592  48.866  1.00  0.00    -0.227 N 
HETATM   25  N   UNL     1      22.823  45.643  48.020  1.00  0.00    -0.179 NA
HETATM   26  C   UNL     1      21.857  46.266  47.343  1.00  0.00     0.141 A 
HETATM   27  C   UNL     1      21.701  47.606  47.731  1.00  0.00     0.040 A 
HETATM   28  C   UNL     1      22.646  47.791  48.711  1.00  0.00     0.122 A 
ENDBRANCH  20  24
ENDBRANCH   2  18
TORSDOF 7
ENDMDL
