MODEL 1
REMARK VINA RESULT:      -6.3      0.000      0.000
REMARK  11 active torsions:
REMARK  status: ('A' for Active; 'I' for Inactive)
REMARK    1  A    between atoms: C_1  and  C_17 
REMARK    2  A    between atoms: C_1  and  S_18 
REMARK    3  A    between atoms: C_2  and  N_23 
REMARK    4  A    between atoms: C_3  and  C_13 
REMARK    5  A    between atoms: C_6  and  S_18 
REMARK    6  A    between atoms: C_6  and  S_19 
REMARK    7  A    between atoms: C_7  and  C_20 
REMARK    8  A    between atoms: C_7  and  C_21 
REMARK    9  A    between atoms: C_9  and  C_24 
REMARK   10  A    between atoms: C_16  and  C_17 
REMARK   11  A    between atoms: S_19  and  C_20 
ROOT
HETATM    1  C           1      18.928  48.722  50.304  0.00  0.00     0.092 C 
HETATM    2  C           1      19.444  47.269  48.459  0.00  0.00     0.156 C 
HETATM    3  C           1      18.505  49.474  49.071  0.00  0.00     0.127 C 
HETATM    4  C           1      18.449  48.382  47.971  0.00  0.00     0.136 C 
HETATM    5  C           1      17.062  47.822  47.917  0.00  0.00     0.079 C 
HETATM    6  N           1      15.946  47.505  47.891  0.00  0.00    -0.196 NA
HETATM    7  C           1      19.311  50.779  48.635  0.00  0.00     0.248 C 
HETATM    8  C           1      18.656  50.356  46.333  0.00  0.00     0.105 C 
HETATM    9  N           1      19.427  47.564  49.967  0.00  0.00    -0.350 N 
HETATM   10  N           1      18.714  51.402  47.339  0.00  0.00    -0.040 N 
HETATM   11  C           1      18.702  50.842  44.904  0.00  0.00     0.075 C 
HETATM   12  C           1      18.616  49.032  46.608  0.00  0.00     0.036 C 
HETATM   13  H           1      19.775  46.893  50.665  0.00  0.00     0.163 HD
HETATM   14  H           1      19.380  52.139  47.010  0.00  0.00     0.284 HD
HETATM   15  H           1      17.788  51.856  47.472  0.00  0.00     0.284 HD
ENDROOT
BRANCH   2  16
HETATM   16  S           1      18.825  45.565  48.255  0.00  0.00    -0.125 SA
BRANCH  16  17
HETATM   17  C           1      19.347  45.135  46.568  0.00  0.00     0.077 C 
BRANCH  17  18
HETATM   18  C           1      18.110  45.114  45.656  0.00  0.00     0.010 C 
BRANCH  18  19
HETATM   19  C           1      18.358  45.891  44.352  0.00  0.00    -0.004 C 
HETATM   20  C           1      19.792  46.431  44.271  0.00  0.00     0.005 C 
ENDBRANCH  18  19
ENDBRANCH  17  18
ENDBRANCH  16  17
ENDBRANCH   2  16
BRANCH   2  21
HETATM   21  S           1      21.102  47.554  47.761  0.00  0.00    -0.125 SA
BRANCH  21  22
HETATM   22  C           1      22.129  46.551  48.877  0.00  0.00     0.077 C 
BRANCH  22  23
HETATM   23  C           1      23.594  46.994  48.725  0.00  0.00     0.010 C 
BRANCH  23  24
HETATM   24  C           1      24.290  47.124  50.089  0.00  0.00    -0.004 C 
HETATM   25  C           1      25.705  47.702  49.954  0.00  0.00     0.005 C 
ENDBRANCH  23  24
ENDBRANCH  22  23
ENDBRANCH  21  22
ENDBRANCH   2  21
BRANCH   3  26
HETATM   26  C           1      17.189  50.164  49.133  0.00  0.00     0.105 C 
HETATM   27  N           1      16.762  51.120  49.630  0.00  0.00    -0.151 N 
ENDBRANCH   3  26
BRANCH   1  28
HETATM   28  N           1      18.829  49.146  51.493  0.00  0.00    -0.388 N 
HETATM   29  H           1      19.464  49.900  51.854  0.00  0.00     0.157 HD
HETATM   30  H           1      18.112  48.742  52.146  0.00  0.00     0.157 HD
ENDBRANCH   1  28
BRANCH   7  31
HETATM   31  C           1      20.831  50.662  48.586  0.00  0.00    -0.026 A 
HETATM   32  C           1      21.541  50.617  47.442  0.00  0.00     0.009 A 
HETATM   33  C           1      22.880  50.529  47.443  0.00  0.00     0.001 A 
HETATM   34  C           1      23.554  50.496  48.602  0.00  0.00     0.000 A 
HETATM   35  C           1      22.873  50.560  49.754  0.00  0.00     0.001 A 
HETATM   36  C           1      21.534  50.651  49.736  0.00  0.00     0.009 A 
ENDBRANCH   7  31
TORSDOF 11
ENDMDL
MODEL 2
REMARK VINA RESULT:      -5.9      1.864      3.674
REMARK  11 active torsions:
REMARK  status: ('A' for Active; 'I' for Inactive)
REMARK    1  A    between atoms: C_1  and  C_17 
REMARK    2  A    between atoms: C_1  and  S_18 
REMARK    3  A    between atoms: C_2  and  N_23 
REMARK    4  A    between atoms: C_3  and  C_13 
REMARK    5  A    between atoms: C_6  and  S_18 
REMARK    6  A    between atoms: C_6  and  S_19 
REMARK    7  A    between atoms: C_7  and  C_20 
REMARK    8  A    between atoms: C_7  and  C_21 
REMARK    9  A    between atoms: C_9  and  C_24 
REMARK   10  A    between atoms: C_16  and  C_17 
REMARK   11  A    between atoms: S_19  and  C_20 
ROOT
HETATM    1  C           1      17.262  47.581  48.031  0.00  0.00     0.092 C 
HETATM    2  C           1      19.396  47.800  46.948  0.00  0.00     0.156 C 
HETATM    3  C           1      16.995  48.367  46.776  0.00  0.00     0.127 C 
HETATM    4  C           1      18.262  48.129  45.913  0.00  0.00     0.136 C 
HETATM    5  C           1      18.029  46.941  45.033  0.00  0.00     0.079 C 
HETATM    6  N           1      17.733  46.063  44.333  0.00  0.00    -0.196 NA
HETATM    7  C           1      16.577  49.901  46.888  0.00  0.00     0.248 C 
HETATM    8  C           1      17.541  50.274  44.689  0.00  0.00     0.105 C 
HETATM    9  N           1      18.532  47.293  48.112  0.00  0.00    -0.350 N 
HETATM   10  N           1      16.349  50.527  45.480  0.00  0.00    -0.040 N 
HETATM   11  C           1      17.791  51.267  43.577  0.00  0.00     0.075 C 
HETATM   12  C           1      18.417  49.271  44.924  0.00  0.00     0.036 C 
HETATM   13  H           1      18.923  46.757  48.898  0.00  0.00     0.163 HD
HETATM   14  H           1      16.252  51.561  45.609  0.00  0.00     0.284 HD
HETATM   15  H           1      15.492  50.191  44.998  0.00  0.00     0.284 HD
ENDROOT
BRANCH   2  16
HETATM   16  S           1      20.479  46.414  46.461  0.00  0.00    -0.125 SA
BRANCH  16  17
HETATM   17  C           1      20.220  45.201  47.789  0.00  0.00     0.077 C 
BRANCH  17  18
HETATM   18  C           1      21.561  44.944  48.495  0.00  0.00     0.010 C 
BRANCH  18  19
HETATM   19  C           1      22.642  45.934  48.030  0.00  0.00    -0.004 C 
HETATM   20  C           1      23.531  46.398  49.191  0.00  0.00     0.005 C 
ENDBRANCH  18  19
ENDBRANCH  17  18
ENDBRANCH  16  17
ENDBRANCH   2  16
BRANCH   2  21
HETATM   21  S           1      20.286  49.320  47.413  0.00  0.00    -0.125 SA
BRANCH  21  22
HETATM   22  C           1      20.815  48.912  49.104  0.00  0.00     0.077 C 
BRANCH  22  23
HETATM   23  C           1      21.792  49.997  49.587  0.00  0.00     0.010 C 
BRANCH  23  24
HETATM   24  C           1      22.277  50.879  48.426  0.00  0.00    -0.004 C 
HETATM   25  C           1      23.725  50.558  48.032  0.00  0.00     0.005 C 
ENDBRANCH  23  24
ENDBRANCH  22  23
ENDBRANCH  21  22
ENDBRANCH   2  21
BRANCH   3  26
HETATM   26  C           1      15.795  47.975  45.990  0.00  0.00     0.105 C 
HETATM   27  N           1      14.645  48.022  46.129  0.00  0.00    -0.151 N 
ENDBRANCH   3  26
BRANCH   1  28
HETATM   28  N           1      16.391  47.252  48.891  0.00  0.00    -0.388 N 
HETATM   29  H           1      16.046  46.263  48.960  0.00  0.00     0.157 HD
HETATM   30  H           1      15.991  47.968  49.547  0.00  0.00     0.157 HD
ENDBRANCH   1  28
BRANCH   7  31
HETATM   31  C           1      17.434  50.782  47.792  0.00  0.00    -0.026 A 
HETATM   32  C           1      18.176  51.814  47.345  0.00  0.00     0.009 A 
HETATM   33  C           1      18.905  52.574  48.176  0.00  0.00     0.001 A 
HETATM   34  C           1      18.903  52.327  49.494  0.00  0.00     0.000 A 
HETATM   35  C           1      18.158  51.319  49.967  0.00  0.00     0.001 A 
HETATM   36  C           1      17.432  50.570  49.123  0.00  0.00     0.009 A 
ENDBRANCH   7  31
TORSDOF 11
ENDMDL
MODEL 3
REMARK VINA RESULT:      -5.9     23.923     26.389
REMARK  11 active torsions:
REMARK  status: ('A' for Active; 'I' for Inactive)
REMARK    1  A    between atoms: C_1  and  C_17 
REMARK    2  A    between atoms: C_1  and  S_18 
REMARK    3  A    between atoms: C_2  and  N_23 
REMARK    4  A    between atoms: C_3  and  C_13 
REMARK    5  A    between atoms: C_6  and  S_18 
REMARK    6  A    between atoms: C_6  and  S_19 
REMARK    7  A    between atoms: C_7  and  C_20 
REMARK    8  A    between atoms: C_7  and  C_21 
REMARK    9  A    between atoms: C_9  and  C_24 
REMARK   10  A    between atoms: C_16  and  C_17 
REMARK   11  A    between atoms: S_19  and  C_20 
ROOT
HETATM    1  C           1      39.235  46.477  65.215  0.00  0.00     0.092 C 
HETATM    2  C           1      39.175  44.830  66.965  0.00  0.00     0.156 C 
HETATM    3  C           1      37.793  46.065  65.328  0.00  0.00     0.127 C 
HETATM    4  C           1      37.717  45.351  66.703  0.00  0.00     0.136 C 
HETATM    5  C           1      37.350  46.356  67.750  0.00  0.00     0.079 C 
HETATM    6  N           1      36.987  47.183  68.478  0.00  0.00    -0.196 NA
HETATM    7  C           1      37.119  45.240  64.142  0.00  0.00     0.248 C 
HETATM    8  C           1      35.586  44.264  65.755  0.00  0.00     0.105 C 
HETATM    9  N           1      39.954  45.814  66.080  0.00  0.00    -0.350 N 
HETATM   10  N           1      35.629  44.915  64.457  0.00  0.00    -0.040 N 
HETATM   11  C           1      34.403  43.350  65.971  0.00  0.00     0.075 C 
HETATM   12  C           1      36.536  44.395  66.708  0.00  0.00     0.036 C 
HETATM   13  H           1      40.970  45.950  66.166  0.00  0.00     0.163 HD
HETATM   14  H           1      35.298  44.234  63.735  0.00  0.00     0.284 HD
HETATM   15  H           1      34.996  45.739  64.421  0.00  0.00     0.284 HD
ENDROOT
BRANCH   2  16
HETATM   16  S           1      39.768  45.083  68.672  0.00  0.00    -0.125 SA
BRANCH  16  17
HETATM   17  C           1      41.111  46.290  68.468  0.00  0.00     0.077 C 
BRANCH  17  18
HETATM   18  C           1      40.606  47.673  68.911  0.00  0.00     0.010 C 
BRANCH  18  19
HETATM   19  C           1      40.851  48.737  67.828  0.00  0.00    -0.004 C 
HETATM   20  C           1      39.553  49.448  67.420  0.00  0.00     0.005 C 
ENDBRANCH  18  19
ENDBRANCH  17  18
ENDBRANCH  16  17
ENDBRANCH   2  16
BRANCH   2  21
HETATM   21  S           1      39.355  43.123  66.353  0.00  0.00    -0.125 SA
BRANCH  21  22
HETATM   22  C           1      41.130  43.080  65.956  0.00  0.00     0.077 C 
BRANCH  22  23
HETATM   23  C           1      41.535  41.622  65.684  0.00  0.00     0.010 C 
BRANCH  23  24
HETATM   24  C           1      40.384  40.649  65.983  0.00  0.00    -0.004 C 
HETATM   25  C           1      40.441  39.405  65.085  0.00  0.00     0.005 C 
ENDBRANCH  23  24
ENDBRANCH  22  23
ENDBRANCH  21  22
ENDBRANCH   2  21
BRANCH   3  26
HETATM   26  C           1      36.785  47.159  65.297  0.00  0.00     0.105 C 
HETATM   27  N           1      36.613  48.127  64.683  0.00  0.00    -0.151 N 
ENDBRANCH   3  26
BRANCH   1  28
HETATM   28  N           1      39.694  47.331  64.399  0.00  0.00    -0.388 N 
HETATM   29  H           1      40.670  47.249  64.022  0.00  0.00     0.157 HD
HETATM   30  H           1      39.106  48.145  64.092  0.00  0.00     0.157 HD
ENDBRANCH   1  28
BRANCH   7  31
HETATM   31  C           1      37.890  44.029  63.624  0.00  0.00    -0.026 A 
HETATM   32  C           1      37.420  42.767  63.674  0.00  0.00     0.009 A 
HETATM   33  C           1      38.124  41.731  63.195  0.00  0.00     0.001 A 
HETATM   34  C           1      39.325  41.932  62.634  0.00  0.00     0.000 A 
HETATM   35  C           1      39.806  43.180  62.552  0.00  0.00     0.001 A 
HETATM   36  C           1      39.088  44.206  63.035  0.00  0.00     0.009 A 
ENDBRANCH   7  31
TORSDOF 11
ENDMDL
MODEL 4
REMARK VINA RESULT:      -5.6      2.235      5.931
REMARK  11 active torsions:
REMARK  status: ('A' for Active; 'I' for Inactive)
REMARK    1  A    between atoms: C_1  and  C_17 
REMARK    2  A    between atoms: C_1  and  S_18 
REMARK    3  A    between atoms: C_2  and  N_23 
REMARK    4  A    between atoms: C_3  and  C_13 
REMARK    5  A    between atoms: C_6  and  S_18 
REMARK    6  A    between atoms: C_6  and  S_19 
REMARK    7  A    between atoms: C_7  and  C_20 
REMARK    8  A    between atoms: C_7  and  C_21 
REMARK    9  A    between atoms: C_9  and  C_24 
REMARK   10  A    between atoms: C_16  and  C_17 
REMARK   11  A    between atoms: S_19  and  C_20 
ROOT
HETATM    1  C           1      17.296  48.397  48.729  0.00  0.00     0.092 C 
HETATM    2  C           1      18.035  49.987  47.085  0.00  0.00     0.156 C 
HETATM    3  C           1      18.742  48.661  49.049  0.00  0.00     0.127 C 
HETATM    4  C           1      19.062  49.966  48.272  0.00  0.00     0.136 C 
HETATM    5  C           1      18.811  51.136  49.171  0.00  0.00     0.079 C 
HETATM    6  N           1      18.667  51.976  49.959  0.00  0.00    -0.196 NA
HETATM    7  C           1      19.817  47.505  48.825  0.00  0.00     0.248 C 
HETATM    8  C           1      21.513  49.212  48.488  0.00  0.00     0.105 C 
HETATM    9  N           1      16.937  49.098  47.688  0.00  0.00    -0.350 N 
HETATM   10  N           1      21.247  47.982  49.214  0.00  0.00    -0.040 N 
HETATM   11  C           1      22.974  49.500  48.234  0.00  0.00     0.075 C 
HETATM   12  C           1      20.557  50.041  48.011  0.00  0.00     0.036 C 
HETATM   13  H           1      15.983  49.062  47.306  0.00  0.00     0.163 HD
HETATM   14  H           1      21.921  47.253  48.885  0.00  0.00     0.284 HD
HETATM   15  H           1      21.393  48.103  50.236  0.00  0.00     0.284 HD
ENDROOT
BRANCH   2  16
HETATM   16  S           1      17.274  51.617  46.778  0.00  0.00    -0.125 SA
BRANCH  16  17
HETATM   17  C           1      15.622  51.448  47.515  0.00  0.00     0.077 C 
BRANCH  17  18
HETATM   18  C           1      15.335  52.687  48.380  0.00  0.00     0.010 C 
BRANCH  18  19
HETATM   19  C           1      15.115  52.307  49.854  0.00  0.00    -0.004 C 
HETATM   20  C           1      14.070  53.208  50.527  0.00  0.00     0.005 C 
ENDBRANCH  18  19
ENDBRANCH  17  18
ENDBRANCH  16  17
ENDBRANCH   2  16
BRANCH   2  21
HETATM   21  S           1      18.762  49.209  45.607  0.00  0.00    -0.125 SA
BRANCH  21  22
HETATM   22  C           1      17.279  48.934  44.591  0.00  0.00     0.077 C 
BRANCH  22  23
HETATM   23  C           1      17.635  47.956  43.459  0.00  0.00     0.010 C 
BRANCH  23  24
HETATM   24  C           1      18.825  48.460  42.628  0.00  0.00    -0.004 C 
HETATM   25  C           1      19.546  47.312  41.909  0.00  0.00     0.005 C 
ENDBRANCH  23  24
ENDBRANCH  22  23
ENDBRANCH  21  22
ENDBRANCH   2  21
BRANCH   3  26
HETATM   26  C           1      19.080  48.859  50.484  0.00  0.00     0.105 C 
HETATM   27  N           1      18.615  48.569  51.505  0.00  0.00    -0.151 N 
ENDBRANCH   3  26
BRANCH   1  28
HETATM   28  N           1      16.535  47.607  49.364  0.00  0.00    -0.388 N 
HETATM   29  H           1      15.850  47.967  50.072  0.00  0.00     0.157 HD
HETATM   30  H           1      16.585  46.571  49.198  0.00  0.00     0.157 HD
ENDBRANCH   1  28
BRANCH   7  31
HETATM   31  C           1      19.781  46.786  47.480  0.00  0.00    -0.026 A 
HETATM   32  C           1      20.806  46.788  46.604  0.00  0.00     0.009 A 
HETATM   33  C           1      20.739  46.131  45.437  0.00  0.00     0.001 A 
HETATM   34  C           1      19.639  45.435  45.114  0.00  0.00     0.000 A 
HETATM   35  C           1      18.614  45.399  45.977  0.00  0.00     0.001 A 
HETATM   36  C           1      18.698  46.060  47.142  0.00  0.00     0.009 A 
ENDBRANCH   7  31
TORSDOF 11
ENDMDL
MODEL 5
REMARK VINA RESULT:      -5.5      2.040      5.437
REMARK  11 active torsions:
REMARK  status: ('A' for Active; 'I' for Inactive)
REMARK    1  A    between atoms: C_1  and  C_17 
REMARK    2  A    between atoms: C_1  and  S_18 
REMARK    3  A    between atoms: C_2  and  N_23 
REMARK    4  A    between atoms: C_3  and  C_13 
REMARK    5  A    between atoms: C_6  and  S_18 
REMARK    6  A    between atoms: C_6  and  S_19 
REMARK    7  A    between atoms: C_7  and  C_20 
REMARK    8  A    between atoms: C_7  and  C_21 
REMARK    9  A    between atoms: C_9  and  C_24 
REMARK   10  A    between atoms: C_16  and  C_17 
REMARK   11  A    between atoms: S_19  and  C_20 
ROOT
HETATM    1  C           1      17.190  47.872  48.718  0.00  0.00     0.092 C 
HETATM    2  C           1      17.680  49.364  46.898  0.00  0.00     0.156 C 
HETATM    3  C           1      18.543  48.452  49.029  0.00  0.00     0.127 C 
HETATM    4  C           1      18.639  49.689  48.099  0.00  0.00     0.136 C 
HETATM    5  C           1      18.128  50.888  48.835  0.00  0.00     0.079 C 
HETATM    6  N           1      17.791  51.772  49.507  0.00  0.00    -0.196 NA
HETATM    7  C           1      19.829  47.511  48.975  0.00  0.00     0.248 C 
HETATM    8  C           1      21.177  49.465  48.456  0.00  0.00     0.105 C 
HETATM    9  N           1      16.749  48.356  47.589  0.00  0.00    -0.350 N 
HETATM   10  N           1      21.122  48.304  49.328  0.00  0.00    -0.040 N 
HETATM   11  C           1      22.565  50.001  48.195  0.00  0.00     0.075 C 
HETATM   12  C           1      20.101  50.025  47.859  0.00  0.00     0.036 C 
HETATM   13  H           1      15.837  48.087  47.197  0.00  0.00     0.163 HD
HETATM   14  H           1      21.938  47.687  49.108  0.00  0.00     0.284 HD
HETATM   15  H           1      21.197  48.574  50.329  0.00  0.00     0.284 HD
ENDROOT
BRANCH   2  16
HETATM   16  S           1      16.634  50.763  46.372  0.00  0.00    -0.125 SA
BRANCH  16  17
HETATM   17  C           1      17.678  51.627  45.160  0.00  0.00     0.077 C 
BRANCH  17  18
HETATM   18  C           1      16.845  51.907  43.898  0.00  0.00     0.010 C 
BRANCH  18  19
HETATM   19  C           1      16.867  53.399  43.528  0.00  0.00    -0.004 C 
HETATM   20  C           1      17.430  53.631  42.119  0.00  0.00     0.005 C 
ENDBRANCH  18  19
ENDBRANCH  17  18
ENDBRANCH  16  17
ENDBRANCH   2  16
BRANCH   2  21
HETATM   21  S           1      18.608  48.570  45.547  0.00  0.00    -0.125 SA
BRANCH  21  22
HETATM   22  C           1      17.300  47.584  44.757  0.00  0.00     0.077 C 
BRANCH  22  23
HETATM   23  C           1      17.883  46.911  43.503  0.00  0.00     0.010 C 
BRANCH  23  24
HETATM   24  C           1      19.043  47.726  42.911  0.00  0.00    -0.004 C 
HETATM   25  C           1      20.104  46.823  42.268  0.00  0.00     0.005 C 
ENDBRANCH  23  24
ENDBRANCH  22  23
ENDBRANCH  21  22
ENDBRANCH   2  21
BRANCH   3  26
HETATM   26  C           1      18.773  48.885  50.434  0.00  0.00     0.105 C 
HETATM   27  N           1      18.550  48.465  51.491  0.00  0.00    -0.151 N 
ENDBRANCH   3  26
BRANCH   1  28
HETATM   28  N           1      16.569  47.030  49.434  0.00  0.00    -0.388 N 
HETATM   29  H           1      16.236  46.119  49.032  0.00  0.00     0.157 HD
HETATM   30  H           1      16.368  47.235  50.444  0.00  0.00     0.157 HD
ENDBRANCH   1  28
BRANCH   7  31
HETATM   31  C           1      19.992  46.641  47.733  0.00  0.00    -0.026 A 
HETATM   32  C           1      21.000  46.782  46.850  0.00  0.00     0.009 A 
HETATM   33  C           1      21.115  45.986  45.776  0.00  0.00     0.001 A 
HETATM   34  C           1      20.222  45.008  45.560  0.00  0.00     0.000 A 
HETATM   35  C           1      19.222  44.834  46.435  0.00  0.00     0.001 A 
HETATM   36  C           1      19.123  45.637  47.506  0.00  0.00     0.009 A 
ENDBRANCH   7  31
TORSDOF 11
ENDMDL
MODEL 6
REMARK VINA RESULT:      -5.3      7.307      9.550
REMARK  11 active torsions:
REMARK  status: ('A' for Active; 'I' for Inactive)
REMARK    1  A    between atoms: C_1  and  C_17 
REMARK    2  A    between atoms: C_1  and  S_18 
REMARK    3  A    between atoms: C_2  and  N_23 
REMARK    4  A    between atoms: C_3  and  C_13 
REMARK    5  A    between atoms: C_6  and  S_18 
REMARK    6  A    between atoms: C_6  and  S_19 
REMARK    7  A    between atoms: C_7  and  C_20 
REMARK    8  A    between atoms: C_7  and  C_21 
REMARK    9  A    between atoms: C_9  and  C_24 
REMARK   10  A    between atoms: C_16  and  C_17 
REMARK   11  A    between atoms: S_19  and  C_20 
ROOT
HETATM    1  C           1      24.727  42.876  51.204  0.00  0.00     0.092 C 
HETATM    2  C           1      27.121  42.726  51.363  0.00  0.00     0.156 C 
HETATM    3  C           1      25.256  43.977  50.326  0.00  0.00     0.127 C 
HETATM    4  C           1      26.745  43.598  50.112  0.00  0.00     0.136 C 
HETATM    5  C           1      26.858  42.767  48.872  0.00  0.00     0.079 C 
HETATM    6  N           1      26.862  42.199  47.860  0.00  0.00    -0.196 NA
HETATM    7  C           1      25.040  45.496  50.759  0.00  0.00     0.248 C 
HETATM    8  C           1      27.047  46.084  49.523  0.00  0.00     0.105 C 
HETATM    9  N           1      25.720  42.228  51.749  0.00  0.00    -0.350 N 
HETATM   10  N           1      25.661  46.473  49.718  0.00  0.00    -0.040 N 
HETATM   11  C           1      27.963  47.197  49.070  0.00  0.00     0.075 C 
HETATM   12  C           1      27.537  44.848  49.767  0.00  0.00     0.036 C 
HETATM   13  H           1      25.572  41.434  52.386  0.00  0.00     0.163 HD
HETATM   14  H           1      25.642  47.431  50.137  0.00  0.00     0.284 HD
HETATM   15  H           1      25.147  46.517  48.816  0.00  0.00     0.284 HD
ENDROOT
BRANCH   2  16
HETATM   16  S           1      28.113  41.245  50.976  0.00  0.00    -0.125 SA
BRANCH  16  17
HETATM   17  C           1      26.853  39.964  50.702  0.00  0.00     0.077 C 
BRANCH  17  18
HETATM   18  C           1      27.349  39.006  49.606  0.00  0.00     0.010 C 
BRANCH  18  19
HETATM   19  C           1      28.786  39.343  49.171  0.00  0.00    -0.004 C 
HETATM   20  C           1      29.729  38.144  49.337  0.00  0.00     0.005 C 
ENDBRANCH  18  19
ENDBRANCH  17  18
ENDBRANCH  16  17
ENDBRANCH   2  16
BRANCH   2  21
HETATM   21  S           1      27.821  43.777  52.676  0.00  0.00    -0.125 SA
BRANCH  21  22
HETATM   22  C           1      29.401  42.934  52.993  0.00  0.00     0.077 C 
BRANCH  22  23
HETATM   23  C           1      29.952  43.415  54.346  0.00  0.00     0.010 C 
BRANCH  23  24
HETATM   24  C           1      29.082  44.530  54.946  0.00  0.00    -0.004 C 
HETATM   25  C           1      29.853  45.361  55.980  0.00  0.00     0.005 C 
ENDBRANCH  23  24
ENDBRANCH  22  23
ENDBRANCH  21  22
ENDBRANCH   2  21
BRANCH   3  26
HETATM   26  C           1      24.604  44.139  48.999  0.00  0.00     0.105 C 
HETATM   27  N           1      23.520  44.151  48.590  0.00  0.00    -0.151 N 
ENDBRANCH   3  26
BRANCH   1  28
HETATM   28  N           1      23.502  42.615  51.399  0.00  0.00    -0.388 N 
HETATM   29  H           1      22.987  43.019  52.219  0.00  0.00     0.157 HD
HETATM   30  H           1      22.981  41.981  50.744  0.00  0.00     0.157 HD
ENDBRANCH   1  28
BRANCH   7  31
HETATM   31  C           1      25.402  45.858  52.196  0.00  0.00    -0.026 A 
HETATM   32  C           1      25.064  45.108  53.264  0.00  0.00     0.009 A 
HETATM   33  C           1      25.415  45.456  54.511  0.00  0.00     0.001 A 
HETATM   34  C           1      26.132  46.568  54.727  0.00  0.00     0.000 A 
HETATM   35  C           1      26.498  47.321  53.680  0.00  0.00     0.001 A 
HETATM   36  C           1      26.142  46.958  52.438  0.00  0.00     0.009 A 
ENDBRANCH   7  31
TORSDOF 11
ENDMDL
MODEL 7
REMARK VINA RESULT:      -5.3      2.303      5.419
REMARK  11 active torsions:
REMARK  status: ('A' for Active; 'I' for Inactive)
REMARK    1  A    between atoms: C_1  and  C_17 
REMARK    2  A    between atoms: C_1  and  S_18 
REMARK    3  A    between atoms: C_2  and  N_23 
REMARK    4  A    between atoms: C_3  and  C_13 
REMARK    5  A    between atoms: C_6  and  S_18 
REMARK    6  A    between atoms: C_6  and  S_19 
REMARK    7  A    between atoms: C_7  and  C_20 
REMARK    8  A    between atoms: C_7  and  C_21 
REMARK    9  A    between atoms: C_9  and  C_24 
REMARK   10  A    between atoms: C_16  and  C_17 
REMARK   11  A    between atoms: S_19  and  C_20 
ROOT
HETATM    1  C           1      17.287  47.860  48.605  0.00  0.00     0.092 C 
HETATM    2  C           1      17.859  49.159  46.665  0.00  0.00     0.156 C 
HETATM    3  C           1      18.633  48.461  48.907  0.00  0.00     0.127 C 
HETATM    4  C           1      18.776  49.598  47.862  0.00  0.00     0.136 C 
HETATM    5  C           1      18.249  50.867  48.455  0.00  0.00     0.079 C 
HETATM    6  N           1      17.896  51.817  49.021  0.00  0.00    -0.196 NA
HETATM    7  C           1      19.911  47.512  48.997  0.00  0.00     0.248 C 
HETATM    8  C           1      21.296  49.396  48.336  0.00  0.00     0.105 C 
HETATM    9  N           1      16.893  48.232  47.417  0.00  0.00    -0.350 N 
HETATM   10  N           1      21.198  48.329  49.317  0.00  0.00    -0.040 N 
HETATM   11  C           1      22.698  49.895  48.076  0.00  0.00     0.075 C 
HETATM   12  C           1      20.249  49.899  47.645  0.00  0.00     0.036 C 
HETATM   13  H           1      15.994  47.929  47.019  0.00  0.00     0.163 HD
HETATM   14  H           1      22.015  47.688  49.191  0.00  0.00     0.284 HD
HETATM   15  H           1      21.238  48.698  50.288  0.00  0.00     0.284 HD
ENDROOT
BRANCH   2  16
HETATM   16  S           1      16.846  50.504  45.961  0.00  0.00    -0.125 SA
BRANCH  16  17
HETATM   17  C           1      15.154  50.038  46.432  0.00  0.00     0.077 C 
BRANCH  17  18
HETATM   18  C           1      14.242  50.171  45.201  0.00  0.00     0.010 C 
BRANCH  18  19
HETATM   19  C           1      13.985  48.807  44.539  0.00  0.00    -0.004 C 
HETATM   20  C           1      13.330  47.814  45.509  0.00  0.00     0.005 C 
ENDBRANCH  18  19
ENDBRANCH  17  18
ENDBRANCH  16  17
ENDBRANCH   2  16
BRANCH   2  21
HETATM   21  S           1      18.829  48.228  45.435  0.00  0.00    -0.125 SA
BRANCH  21  22
HETATM   22  C           1      17.575  47.934  44.151  0.00  0.00     0.077 C 
BRANCH  22  23
HETATM   23  C           1      17.515  46.426  43.861  0.00  0.00     0.010 C 
BRANCH  23  24
HETATM   24  C           1      16.273  45.777  44.492  0.00  0.00    -0.004 C 
HETATM   25  C           1      16.381  44.247  44.522  0.00  0.00     0.005 C 
ENDBRANCH  23  24
ENDBRANCH  22  23
ENDBRANCH  21  22
ENDBRANCH   2  21
BRANCH   3  26
HETATM   26  C           1      18.815  49.032  50.269  0.00  0.00     0.105 C 
HETATM   27  N           1      18.642  48.679  51.359  0.00  0.00    -0.151 N 
ENDBRANCH   3  26
BRANCH   1  28
HETATM   28  N           1      16.632  47.098  49.377  0.00  0.00    -0.388 N 
HETATM   29  H           1      16.958  46.121  49.578  0.00  0.00     0.157 HD
HETATM   30  H           1      15.742  47.430  49.824  0.00  0.00     0.157 HD
ENDBRANCH   1  28
BRANCH   7  31
HETATM   31  C           1      20.112  46.520  47.855  0.00  0.00    -0.026 A 
HETATM   32  C           1      19.233  45.546  47.549  0.00  0.00     0.009 A 
HETATM   33  C           1      19.441  44.702  46.527  0.00  0.00     0.001 A 
HETATM   34  C           1      20.539  44.819  45.766  0.00  0.00     0.000 A 
HETATM   35  C           1      21.419  45.794  46.036  0.00  0.00     0.001 A 
HETATM   36  C           1      21.195  46.631  47.061  0.00  0.00     0.009 A 
ENDBRANCH   7  31
TORSDOF 11
ENDMDL
MODEL 8
REMARK VINA RESULT:      -5.1      2.531      5.392
REMARK  11 active torsions:
REMARK  status: ('A' for Active; 'I' for Inactive)
REMARK    1  A    between atoms: C_1  and  C_17 
REMARK    2  A    between atoms: C_1  and  S_18 
REMARK    3  A    between atoms: C_2  and  N_23 
REMARK    4  A    between atoms: C_3  and  C_13 
REMARK    5  A    between atoms: C_6  and  S_18 
REMARK    6  A    between atoms: C_6  and  S_19 
REMARK    7  A    between atoms: C_7  and  C_20 
REMARK    8  A    between atoms: C_7  and  C_21 
REMARK    9  A    between atoms: C_9  and  C_24 
REMARK   10  A    between atoms: C_16  and  C_17 
REMARK   11  A    between atoms: S_19  and  C_20 
ROOT
HETATM    1  C           1      17.919  45.970  47.728  0.00  0.00     0.092 C 
HETATM    2  C           1      19.802  47.360  47.180  0.00  0.00     0.156 C 
HETATM    3  C           1      17.797  46.246  46.254  0.00  0.00     0.127 C 
HETATM    4  C           1      19.204  46.763  45.856  0.00  0.00     0.136 C 
HETATM    5  C           1      20.037  45.602  45.411  0.00  0.00     0.079 C 
HETATM    6  N           1      20.581  44.659  45.009  0.00  0.00    -0.196 NA
HETATM    7  C           1      16.606  47.165  45.726  0.00  0.00     0.248 C 
HETATM    8  C           1      17.992  47.791  43.832  0.00  0.00     0.105 C 
HETATM    9  N           1      18.977  46.568  48.205  0.00  0.00    -0.350 N 
HETATM   10  N           1      16.661  47.324  44.178  0.00  0.00    -0.040 N 
HETATM   11  C           1      18.079  48.571  42.540  0.00  0.00     0.075 C 
HETATM   12  C           1      19.090  47.612  44.601  0.00  0.00     0.036 C 
HETATM   13  H           1      19.242  46.504  49.197  0.00  0.00     0.163 HD
HETATM   14  H           1      15.972  48.066  43.915  0.00  0.00     0.284 HD
HETATM   15  H           1      16.409  46.464  43.652  0.00  0.00     0.284 HD
ENDROOT
BRANCH   2  16
HETATM   16  S           1      21.550  46.931  47.475  0.00  0.00    -0.125 SA
BRANCH  16  17
HETATM   17  C           1      21.445  45.564  48.668  0.00  0.00     0.077 C 
BRANCH  17  18
HETATM   18  C           1      22.837  44.928  48.818  0.00  0.00     0.010 C 
BRANCH  18  19
HETATM   19  C           1      22.831  43.795  49.857  0.00  0.00    -0.004 C 
HETATM   20  C           1      23.088  42.426  49.212  0.00  0.00     0.005 C 
ENDBRANCH  18  19
ENDBRANCH  17  18
ENDBRANCH  16  17
ENDBRANCH   2  16
BRANCH   2  21
HETATM   21  S           1      19.437  49.142  47.290  0.00  0.00    -0.125 SA
BRANCH  21  22
HETATM   22  C           1      19.265  49.353  49.088  0.00  0.00     0.077 C 
BRANCH  22  23
HETATM   23  C           1      20.012  50.630  49.505  0.00  0.00     0.010 C 
BRANCH  23  24
HETATM   24  C           1      20.104  51.636  48.347  0.00  0.00    -0.004 C 
HETATM   25  C           1      18.969  52.668  48.397  0.00  0.00     0.005 C 
ENDBRANCH  23  24
ENDBRANCH  22  23
ENDBRANCH  21  22
ENDBRANCH   2  21
BRANCH   3  26
HETATM   26  C           1      17.446  45.088  45.389  0.00  0.00     0.105 C 
HETATM   27  N           1      16.802  44.130  45.486  0.00  0.00    -0.151 N 
ENDBRANCH   3  26
BRANCH   1  28
HETATM   28  N           1      17.114  45.271  48.414  0.00  0.00    -0.388 N 
HETATM   29  H           1      16.290  45.710  48.894  0.00  0.00     0.157 HD
HETATM   30  H           1      17.264  44.238  48.523  0.00  0.00     0.157 HD
ENDBRANCH   1  28
BRANCH   7  31
HETATM   31  C           1      16.390  48.491  46.448  0.00  0.00    -0.026 A 
HETATM   32  C           1      16.584  49.694  45.873  0.00  0.00     0.009 A 
HETATM   33  C           1      16.369  50.839  46.540  0.00  0.00     0.001 A 
HETATM   34  C           1      15.937  50.812  47.809  0.00  0.00     0.000 A 
HETATM   35  C           1      15.716  49.628  48.396  0.00  0.00     0.001 A 
HETATM   36  C           1      15.933  48.492  47.715  0.00  0.00     0.009 A 
ENDBRANCH   7  31
TORSDOF 11
ENDMDL
MODEL 9
REMARK VINA RESULT:      -5.1     24.574     27.596
REMARK  11 active torsions:
REMARK  status: ('A' for Active; 'I' for Inactive)
REMARK    1  A    between atoms: C_1  and  C_17 
REMARK    2  A    between atoms: C_1  and  S_18 
REMARK    3  A    between atoms: C_2  and  N_23 
REMARK    4  A    between atoms: C_3  and  C_13 
REMARK    5  A    between atoms: C_6  and  S_18 
REMARK    6  A    between atoms: C_6  and  S_19 
REMARK    7  A    between atoms: C_7  and  C_20 
REMARK    8  A    between atoms: C_7  and  C_21 
REMARK    9  A    between atoms: C_9  and  C_24 
REMARK   10  A    between atoms: C_16  and  C_17 
REMARK   11  A    between atoms: S_19  and  C_20 
ROOT
HETATM    1  C           1      41.416  45.573  65.074  0.00  0.00     0.092 C 
HETATM    2  C           1      40.702  44.218  66.928  0.00  0.00     0.156 C 
HETATM    3  C           1      40.075  46.123  65.480  0.00  0.00     0.127 C 
HETATM    4  C           1      39.846  45.534  66.896  0.00  0.00     0.136 C 
HETATM    5  C           1      40.375  46.498  67.911  0.00  0.00     0.079 C 
HETATM    6  N           1      40.737  47.337  68.628  0.00  0.00    -0.196 NA
HETATM    7  C           1      38.828  45.943  64.504  0.00  0.00     0.248 C 
HETATM    8  C           1      37.362  46.027  66.440  0.00  0.00     0.105 C 
HETATM    9  N           1      41.732  44.565  65.842  0.00  0.00    -0.350 N 
HETATM   10  N           1      37.543  46.581  65.109  0.00  0.00    -0.040 N 
HETATM   11  C           1      35.935  46.017  66.938  0.00  0.00     0.075 C 
HETATM   12  C           1      38.355  45.501  67.191  0.00  0.00     0.036 C 
HETATM   13  H           1      42.614  44.047  65.730  0.00  0.00     0.163 HD
HETATM   14  H           1      36.735  46.282  64.515  0.00  0.00     0.284 HD
HETATM   15  H           1      37.550  47.620  65.126  0.00  0.00     0.284 HD
ENDROOT
BRANCH   2  16
HETATM   16  S           1      41.639  43.968  68.473  0.00  0.00    -0.125 SA
BRANCH  16  17
HETATM   17  C           1      43.369  44.136  67.940  0.00  0.00     0.077 C 
BRANCH  17  18
HETATM   18  C           1      43.903  45.499  68.412  0.00  0.00     0.010 C 
BRANCH  18  19
HETATM   19  C           1      44.577  46.268  67.264  0.00  0.00    -0.004 C 
HETATM   20  C           1      43.871  47.600  66.975  0.00  0.00     0.005 C 
ENDBRANCH  18  19
ENDBRANCH  17  18
ENDBRANCH  16  17
ENDBRANCH   2  16
BRANCH   2  21
HETATM   21  S           1      39.686  42.791  66.427  0.00  0.00    -0.125 SA
BRANCH  21  22
HETATM   22  C           1      40.951  41.691  65.723  0.00  0.00     0.077 C 
BRANCH  22  23
HETATM   23  C           1      40.594  40.239  66.085  0.00  0.00     0.010 C 
BRANCH  23  24
HETATM   24  C           1      39.585  39.641  65.092  0.00  0.00    -0.004 C 
HETATM   25  C           1      40.280  39.056  63.856  0.00  0.00     0.005 C 
ENDBRANCH  23  24
ENDBRANCH  22  23
ENDBRANCH  21  22
ENDBRANCH   2  21
BRANCH   3  26
HETATM   26  C           1      39.959  47.604  65.548  0.00  0.00     0.105 C 
HETATM   27  N           1      40.169  48.498  64.842  0.00  0.00    -0.151 N 
ENDBRANCH   3  26
BRANCH   1  28
HETATM   28  N           1      42.133  46.009  64.125  0.00  0.00    -0.388 N 
HETATM   29  H           1      41.746  46.686  63.422  0.00  0.00     0.157 HD
HETATM   30  H           1      43.128  45.691  64.019  0.00  0.00     0.157 HD
ENDBRANCH   1  28
BRANCH   7  31
HETATM   31  C           1      38.586  44.543  63.949  0.00  0.00    -0.026 A 
HETATM   32  C           1      37.462  43.834  64.175  0.00  0.00     0.009 A 
HETATM   33  C           1      37.283  42.610  63.656  0.00  0.00     0.001 A 
HETATM   34  C           1      38.227  42.059  62.880  0.00  0.00     0.000 A 
HETATM   35  C           1      39.345  42.752  62.623  0.00  0.00     0.001 A 
HETATM   36  C           1      39.508  43.977  63.147  0.00  0.00     0.009 A 
ENDBRANCH   7  31
TORSDOF 11
ENDMDL
MODEL 10
REMARK VINA RESULT:      -5.1      9.974     12.938
REMARK  11 active torsions:
REMARK  status: ('A' for Active; 'I' for Inactive)
REMARK    1  A    between atoms: C_1  and  C_17 
REMARK    2  A    between atoms: C_1  and  S_18 
REMARK    3  A    between atoms: C_2  and  N_23 
REMARK    4  A    between atoms: C_3  and  C_13 
REMARK    5  A    between atoms: C_6  and  S_18 
REMARK    6  A    between atoms: C_6  and  S_19 
REMARK    7  A    between atoms: C_7  and  C_20 
REMARK    8  A    between atoms: C_7  and  C_21 
REMARK    9  A    between atoms: C_9  and  C_24 
REMARK   10  A    between atoms: C_16  and  C_17 
REMARK   11  A    between atoms: S_19  and  C_20 
ROOT
HETATM    1  C           1      28.730  48.443  41.510  0.00  0.00     0.092 C 
HETATM    2  C           1      27.384  49.351  39.737  0.00  0.00     0.156 C 
HETATM    3  C           1      29.108  47.663  40.281  0.00  0.00     0.127 C 
HETATM    4  C           1      28.565  48.526  39.112  0.00  0.00     0.136 C 
HETATM    5  C           1      29.643  49.461  38.661  0.00  0.00     0.079 C 
HETATM    6  N           1      30.559  50.091  38.326  0.00  0.00    -0.196 NA
HETATM    7  C           1      28.709  46.123  40.178  0.00  0.00     0.248 C 
HETATM    8  C           1      28.685  46.341  37.757  0.00  0.00     0.105 C 
HETATM    9  N           1      27.816  49.326  41.211  0.00  0.00    -0.350 N 
HETATM   10  N           1      29.191  45.505  38.832  0.00  0.00    -0.040 N 
HETATM   11  C           1      28.502  45.637  36.434  0.00  0.00     0.075 C 
HETATM   12  C           1      28.340  47.641  37.897  0.00  0.00     0.036 C 
HETATM   13  H           1      27.420  49.965  41.913  0.00  0.00     0.163 HD
HETATM   14  H           1      28.754  44.558  38.748  0.00  0.00     0.284 HD
HETATM   15  H           1      30.221  45.380  38.766  0.00  0.00     0.284 HD
ENDROOT
BRANCH   2  16
HETATM   16  S           1      27.345  51.105  39.235  0.00  0.00    -0.125 SA
BRANCH  16  17
HETATM   17  C           1      28.082  51.959  40.660  0.00  0.00     0.077 C 
BRANCH  17  18
HETATM   18  C           1      28.999  53.081  40.145  0.00  0.00     0.010 C 
BRANCH  18  19
HETATM   19  C           1      30.411  52.976  40.745  0.00  0.00    -0.004 C 
HETATM   20  C           1      30.545  51.770  41.685  0.00  0.00     0.005 C 
ENDBRANCH  18  19
ENDBRANCH  17  18
ENDBRANCH  16  17
ENDBRANCH   2  16
BRANCH   2  21
HETATM   21  S           1      25.807  48.468  39.507  0.00  0.00    -0.125 SA
BRANCH  21  22
HETATM   22  C           1      24.799  49.756  38.711  0.00  0.00     0.077 C 
BRANCH  22  23
HETATM   23  C           1      23.315  49.447  38.971  0.00  0.00     0.010 C 
BRANCH  23  24
HETATM   24  C           1      23.127  48.052  39.586  0.00  0.00    -0.004 C 
HETATM   25  C           1      21.953  48.018  40.574  0.00  0.00     0.005 C 
ENDBRANCH  23  24
ENDBRANCH  22  23
ENDBRANCH  21  22
ENDBRANCH   2  21
BRANCH   3  26
HETATM   26  C           1      30.561  47.422  40.069  0.00  0.00     0.105 C 
HETATM   27  N           1      31.538  47.590  40.668  0.00  0.00    -0.151 N 
ENDBRANCH   3  26
BRANCH   1  28
HETATM   28  N           1      29.213  48.270  42.669  0.00  0.00    -0.388 N 
HETATM   29  H           1      28.591  48.216  43.512  0.00  0.00     0.157 HD
HETATM   30  H           1      30.251  48.186  42.807  0.00  0.00     0.157 HD
ENDBRANCH   1  28
BRANCH   7  31
HETATM   31  C           1      27.262  45.766  40.505  0.00  0.00    -0.026 A 
HETATM   32  C           1      26.402  45.239  39.611  0.00  0.00     0.009 A 
HETATM   33  C           1      25.141  44.926  39.943  0.00  0.00     0.001 A 
HETATM   34  C           1      24.703  45.121  41.195  0.00  0.00     0.000 A 
HETATM   35  C           1      25.545  45.624  42.109  0.00  0.00     0.001 A 
HETATM   36  C           1      26.804  45.930  41.761  0.00  0.00     0.009 A 
ENDBRANCH   7  31
TORSDOF 11
ENDMDL
