MODEL 1
REMARK VINA RESULT:      -7.9      0.000      0.000
REMARK  5 active torsions:
REMARK  status: ('A' for Active; 'I' for Inactive)
REMARK    1  A    between atoms: C_7  and  O_8 
REMARK    2  A    between atoms: O_8  and  C_9 
REMARK    3  A    between atoms: C_12  and  N_13 
REMARK    4  A    between atoms: N_13  and  C_16 
REMARK    5  A    between atoms: C_16  and  C_17 
ROOT
HETATM    1  C   UNL     1      29.685  43.050  54.822  1.00  0.00     0.028 A 
HETATM    2  C   UNL     1      30.233  43.955  55.725  1.00  0.00     0.062 A 
HETATM    3  C   UNL     1      31.287  43.578  56.613  1.00  0.00     0.101 C 
HETATM    4  N   UNL     1      32.143  43.295  57.341  1.00  0.00    -0.191 NA
HETATM    5  C   UNL     1      29.726  45.250  55.742  1.00  0.00     0.142 A 
HETATM    6  N   UNL     1      28.729  45.698  54.933  1.00  0.00    -0.236 NA
HETATM    7  C   UNL     1      28.222  44.789  54.068  1.00  0.00     0.164 A 
HETATM    8  C   UNL     1      28.661  43.474  53.979  1.00  0.00     0.059 A 
ENDROOT
BRANCH   7   9
HETATM    9  O   UNL     1      27.215  45.130  53.198  1.00  0.00    -0.329 OA
BRANCH   9  10
HETATM   10  C   UNL     1      26.783  44.209  52.201  1.00  0.00     0.130 C 
HETATM   11  C   UNL     1      27.522  44.344  50.863  1.00  0.00     0.034 C 
HETATM   12  C   UNL     1      27.097  43.251  49.883  1.00  0.00     0.035 C 
HETATM   13  C   UNL     1      25.578  43.149  49.708  1.00  0.00     0.186 C 
HETATM   14  C   UNL     1      24.860  43.031  51.058  1.00  0.00     0.035 C 
HETATM   15  C   UNL     1      25.258  44.124  52.050  1.00  0.00     0.034 C 
BRANCH  13  16
HETATM   16  N   UNL     1      25.039  44.343  48.977  1.00  0.00    -0.067 N 
HETATM   17  H   UNL     1      25.197  45.182  49.552  1.00  0.00     0.278 HD
HETATM   18  H   UNL     1      25.561  44.522  48.106  1.00  0.00     0.278 HD
BRANCH  16  19
HETATM   19  C   UNL     1      23.577  44.304  48.653  1.00  0.00     0.278 C 
BRANCH  19  20
HETATM   20  C   UNL     1      22.970  45.669  48.662  1.00  0.00     0.009 A 
HETATM   21  S   UNL     1      21.388  45.914  48.052  1.00  0.00    -0.103 SA
HETATM   22  C   UNL     1      21.433  47.587  48.410  1.00  0.00     0.072 A 
HETATM   23  C   UNL     1      22.630  47.961  48.982  1.00  0.00     0.052 A 
HETATM   24  C   UNL     1      22.925  49.307  49.379  1.00  0.00     0.100 C 
HETATM   25  C   UNL     1      23.520  46.851  49.125  1.00  0.00     0.039 A 
HETATM   26  N   UNL     1      23.186  50.390  49.698  1.00  0.00    -0.191 NA
ENDBRANCH  19  20
ENDBRANCH  16  19
ENDBRANCH  13  16
ENDBRANCH   9  10
ENDBRANCH   7   9
TORSDOF 5
ENDMDL
MODEL 2
REMARK VINA RESULT:      -7.8      3.127      9.363
REMARK  5 active torsions:
REMARK  status: ('A' for Active; 'I' for Inactive)
REMARK    1  A    between atoms: C_7  and  O_8 
REMARK    2  A    between atoms: O_8  and  C_9 
REMARK    3  A    between atoms: C_12  and  N_13 
REMARK    4  A    between atoms: N_13  and  C_16 
REMARK    5  A    between atoms: C_16  and  C_17 
ROOT
HETATM    1  C   UNL     1      22.568  51.196  48.335  1.00  0.00     0.028 A 
HETATM    2  C   UNL     1      21.275  50.818  48.685  1.00  0.00     0.062 A 
HETATM    3  C   UNL     1      20.173  51.717  48.551  1.00  0.00     0.101 C 
HETATM    4  N   UNL     1      19.263  52.429  48.449  1.00  0.00    -0.191 NA
HETATM    5  C   UNL     1      21.079  49.531  49.173  1.00  0.00     0.142 A 
HETATM    6  N   UNL     1      22.066  48.608  49.330  1.00  0.00    -0.236 NA
HETATM    7  C   UNL     1      23.309  49.011  48.978  1.00  0.00     0.164 A 
HETATM    8  C   UNL     1      23.603  50.276  48.484  1.00  0.00     0.059 A 
ENDROOT
BRANCH   7   9
HETATM    9  O   UNL     1      24.383  48.163  49.089  1.00  0.00    -0.329 OA
BRANCH   9  10
HETATM   10  C   UNL     1      24.480  47.265  50.190  1.00  0.00     0.130 C 
HETATM   11  C   UNL     1      25.673  47.538  51.117  1.00  0.00     0.034 C 
HETATM   12  C   UNL     1      25.647  46.619  52.338  1.00  0.00     0.035 C 
HETATM   13  C   UNL     1      25.508  45.135  51.979  1.00  0.00     0.186 C 
HETATM   14  C   UNL     1      24.320  44.889  51.040  1.00  0.00     0.035 C 
HETATM   15  C   UNL     1      24.334  45.787  49.802  1.00  0.00     0.034 C 
BRANCH  13  16
HETATM   16  N   UNL     1      26.756  44.621  51.324  1.00  0.00    -0.067 N 
HETATM   17  H   UNL     1      26.598  44.569  50.308  1.00  0.00     0.278 HD
HETATM   18  H   UNL     1      27.541  45.280  51.433  1.00  0.00     0.278 HD
BRANCH  16  19
HETATM   19  C   UNL     1      27.213  43.264  51.766  1.00  0.00     0.278 C 
BRANCH  19  20
HETATM   20  C   UNL     1      28.154  43.346  52.923  1.00  0.00     0.009 A 
HETATM   21  S   UNL     1      29.153  42.011  53.318  1.00  0.00    -0.103 SA
HETATM   22  C   UNL     1      29.872  42.848  54.628  1.00  0.00     0.072 A 
HETATM   23  C   UNL     1      29.363  44.120  54.769  1.00  0.00     0.052 A 
HETATM   24  C   UNL     1      29.797  45.031  55.789  1.00  0.00     0.100 C 
HETATM   25  C   UNL     1      28.367  44.407  53.785  1.00  0.00     0.039 A 
HETATM   26  N   UNL     1      30.126  45.778  56.611  1.00  0.00    -0.191 NA
ENDBRANCH  19  20
ENDBRANCH  16  19
ENDBRANCH  13  16
ENDBRANCH   9  10
ENDBRANCH   7   9
TORSDOF 5
ENDMDL
MODEL 3
REMARK VINA RESULT:      -7.6      2.369      3.227
REMARK  5 active torsions:
REMARK  status: ('A' for Active; 'I' for Inactive)
REMARK    1  A    between atoms: C_7  and  O_8 
REMARK    2  A    between atoms: O_8  and  C_9 
REMARK    3  A    between atoms: C_12  and  N_13 
REMARK    4  A    between atoms: N_13  and  C_16 
REMARK    5  A    between atoms: C_16  and  C_17 
ROOT
HETATM    1  C   UNL     1      28.816  45.407  55.382  1.00  0.00     0.028 A 
HETATM    2  C   UNL     1      29.367  44.152  55.140  1.00  0.00     0.062 A 
HETATM    3  C   UNL     1      30.605  43.754  55.731  1.00  0.00     0.101 C 
HETATM    4  N   UNL     1      31.607  43.409  56.200  1.00  0.00    -0.191 NA
HETATM    5  C   UNL     1      28.674  43.285  54.302  1.00  0.00     0.142 A 
HETATM    6  N   UNL     1      27.489  43.576  53.700  1.00  0.00    -0.236 NA
HETATM    7  C   UNL     1      26.985  44.804  53.961  1.00  0.00     0.164 A 
HETATM    8  C   UNL     1      27.604  45.739  54.781  1.00  0.00     0.059 A 
ENDROOT
BRANCH   7   9
HETATM    9  O   UNL     1      25.792  45.207  53.412  1.00  0.00    -0.329 OA
BRANCH   9  10
HETATM   10  C   UNL     1      25.738  45.663  52.064  1.00  0.00     0.130 C 
HETATM   11  C   UNL     1      25.941  47.176  51.906  1.00  0.00     0.034 C 
HETATM   12  C   UNL     1      25.993  47.577  50.433  1.00  0.00     0.035 C 
HETATM   13  C   UNL     1      24.803  47.056  49.619  1.00  0.00     0.186 C 
HETATM   14  C   UNL     1      24.609  45.545  49.804  1.00  0.00     0.035 C 
HETATM   15  C   UNL     1      24.539  45.123  51.272  1.00  0.00     0.034 C 
BRANCH  13  16
HETATM   16  N   UNL     1      23.535  47.757  50.009  1.00  0.00    -0.067 N 
HETATM   17  H   UNL     1      22.738  47.146  49.784  1.00  0.00     0.278 HD
HETATM   18  H   UNL     1      23.478  47.896  51.029  1.00  0.00     0.278 HD
BRANCH  16  19
HETATM   19  C   UNL     1      23.283  49.071  49.337  1.00  0.00     0.278 C 
BRANCH  19  20
HETATM   20  C   UNL     1      21.825  49.388  49.267  1.00  0.00     0.009 A 
HETATM   21  S   UNL     1      20.706  48.191  48.766  1.00  0.00    -0.103 SA
HETATM   22  C   UNL     1      19.377  49.253  48.960  1.00  0.00     0.072 A 
HETATM   23  C   UNL     1      19.771  50.499  49.397  1.00  0.00     0.052 A 
HETATM   24  C   UNL     1      18.853  51.572  49.641  1.00  0.00     0.100 C 
HETATM   25  C   UNL     1      21.188  50.577  49.572  1.00  0.00     0.039 A 
HETATM   26  N   UNL     1      18.128  52.456  49.834  1.00  0.00    -0.191 NA
ENDBRANCH  19  20
ENDBRANCH  16  19
ENDBRANCH  13  16
ENDBRANCH   9  10
ENDBRANCH   7   9
TORSDOF 5
ENDMDL
MODEL 4
REMARK VINA RESULT:      -7.5      2.079      2.757
REMARK  5 active torsions:
REMARK  status: ('A' for Active; 'I' for Inactive)
REMARK    1  A    between atoms: C_7  and  O_8 
REMARK    2  A    between atoms: O_8  and  C_9 
REMARK    3  A    between atoms: C_12  and  N_13 
REMARK    4  A    between atoms: N_13  and  C_16 
REMARK    5  A    between atoms: C_16  and  C_17 
ROOT
HETATM    1  C   UNL     1      30.281  42.988  54.053  1.00  0.00     0.028 A 
HETATM    2  C   UNL     1      30.194  43.646  55.277  1.00  0.00     0.062 A 
HETATM    3  C   UNL     1      31.238  43.556  56.248  1.00  0.00     0.101 C 
HETATM    4  N   UNL     1      32.072  43.499  57.050  1.00  0.00    -0.191 NA
HETATM    5  C   UNL     1      29.055  44.401  55.533  1.00  0.00     0.142 A 
HETATM    6  N   UNL     1      28.015  44.547  54.668  1.00  0.00    -0.236 NA
HETATM    7  C   UNL     1      28.137  43.894  53.489  1.00  0.00     0.164 A 
HETATM    8  C   UNL     1      29.234  43.114  53.144  1.00  0.00     0.059 A 
ENDROOT
BRANCH   7   9
HETATM    9  O   UNL     1      27.151  43.971  52.536  1.00  0.00    -0.329 OA
BRANCH   9  10
HETATM   10  C   UNL     1      26.858  45.213  51.903  1.00  0.00     0.130 C 
HETATM   11  C   UNL     1      25.809  46.057  52.640  1.00  0.00     0.034 C 
HETATM   12  C   UNL     1      25.632  47.423  51.977  1.00  0.00     0.035 C 
HETATM   13  C   UNL     1      25.365  47.336  50.470  1.00  0.00     0.186 C 
HETATM   14  C   UNL     1      26.416  46.475  49.758  1.00  0.00     0.035 C 
HETATM   15  C   UNL     1      26.599  45.097  50.395  1.00  0.00     0.034 C 
BRANCH  13  16
HETATM   16  N   UNL     1      24.005  46.764  50.196  1.00  0.00    -0.067 N 
HETATM   17  H   UNL     1      24.051  45.741  50.298  1.00  0.00     0.278 HD
HETATM   18  H   UNL     1      23.318  47.067  50.902  1.00  0.00     0.278 HD
BRANCH  16  19
HETATM   19  C   UNL     1      23.442  47.043  48.836  1.00  0.00     0.278 C 
BRANCH  19  20
HETATM   20  C   UNL     1      23.072  48.482  48.675  1.00  0.00     0.009 A 
HETATM   21  S   UNL     1      24.267  49.640  48.265  1.00  0.00    -0.103 SA
HETATM   22  C   UNL     1      23.127  50.916  48.256  1.00  0.00     0.072 A 
HETATM   23  C   UNL     1      21.857  50.477  48.561  1.00  0.00     0.052 A 
HETATM   24  C   UNL     1      20.718  51.346  48.619  1.00  0.00     0.100 C 
HETATM   25  C   UNL     1      21.826  49.069  48.806  1.00  0.00     0.039 A 
HETATM   26  N   UNL     1      19.786  52.032  48.681  1.00  0.00    -0.191 NA
ENDBRANCH  19  20
ENDBRANCH  16  19
ENDBRANCH  13  16
ENDBRANCH   9  10
ENDBRANCH   7   9
TORSDOF 5
ENDMDL
MODEL 5
REMARK VINA RESULT:      -7.3     12.441     14.740
REMARK  5 active torsions:
REMARK  status: ('A' for Active; 'I' for Inactive)
REMARK    1  A    between atoms: C_7  and  O_8 
REMARK    2  A    between atoms: O_8  and  C_9 
REMARK    3  A    between atoms: C_12  and  N_13 
REMARK    4  A    between atoms: N_13  and  C_16 
REMARK    5  A    between atoms: C_16  and  C_17 
ROOT
HETATM    1  C   UNL     1      31.331  52.606  39.846  1.00  0.00     0.028 A 
HETATM    2  C   UNL     1      32.468  52.194  39.157  1.00  0.00     0.062 A 
HETATM    3  C   UNL     1      33.776  52.593  39.568  1.00  0.00     0.101 C 
HETATM    4  N   UNL     1      34.847  52.903  39.884  1.00  0.00    -0.191 NA
HETATM    5  C   UNL     1      32.297  51.373  38.047  1.00  0.00     0.142 A 
HETATM    6  N   UNL     1      31.092  50.940  37.586  1.00  0.00    -0.236 NA
HETATM    7  C   UNL     1      30.012  51.361  38.283  1.00  0.00     0.164 A 
HETATM    8  C   UNL     1      30.082  52.182  39.401  1.00  0.00     0.059 A 
ENDROOT
BRANCH   7   9
HETATM    9  O   UNL     1      28.744  50.983  37.914  1.00  0.00    -0.329 OA
BRANCH   9  10
HETATM   10  C   UNL     1      28.089  49.909  38.581  1.00  0.00     0.130 C 
HETATM   11  C   UNL     1      27.772  50.190  40.056  1.00  0.00     0.034 C 
HETATM   12  C   UNL     1      26.965  49.050  40.676  1.00  0.00     0.035 C 
HETATM   13  C   UNL     1      27.599  47.671  40.463  1.00  0.00     0.186 C 
HETATM   14  C   UNL     1      27.922  47.419  38.985  1.00  0.00     0.035 C 
HETATM   15  C   UNL     1      28.743  48.541  38.348  1.00  0.00     0.034 C 
BRANCH  13  16
HETATM   16  N   UNL     1      28.860  47.529  41.264  1.00  0.00    -0.067 N 
HETATM   17  H   UNL     1      28.784  46.688  41.853  1.00  0.00     0.278 HD
HETATM   18  H   UNL     1      29.675  47.349  40.658  1.00  0.00     0.278 HD
BRANCH  16  19
HETATM   19  C   UNL     1      29.188  48.673  42.173  1.00  0.00     0.278 C 
BRANCH  19  20
HETATM   20  C   UNL     1      30.617  49.088  42.048  1.00  0.00     0.009 A 
HETATM   21  S   UNL     1      31.644  48.315  40.914  1.00  0.00    -0.103 SA
HETATM   22  C   UNL     1      32.979  49.295  41.350  1.00  0.00     0.072 A 
HETATM   23  C   UNL     1      32.657  50.195  42.342  1.00  0.00     0.052 A 
HETATM   24  C   UNL     1      33.595  51.133  42.887  1.00  0.00     0.100 C 
HETATM   25  C   UNL     1      31.291  50.073  42.747  1.00  0.00     0.039 A 
HETATM   26  N   UNL     1      34.340  51.891  43.347  1.00  0.00    -0.191 NA
ENDBRANCH  19  20
ENDBRANCH  16  19
ENDBRANCH  13  16
ENDBRANCH   9  10
ENDBRANCH   7   9
TORSDOF 5
ENDMDL
MODEL 6
REMARK VINA RESULT:      -7.3     12.373     14.766
REMARK  5 active torsions:
REMARK  status: ('A' for Active; 'I' for Inactive)
REMARK    1  A    between atoms: C_7  and  O_8 
REMARK    2  A    between atoms: O_8  and  C_9 
REMARK    3  A    between atoms: C_12  and  N_13 
REMARK    4  A    between atoms: N_13  and  C_16 
REMARK    5  A    between atoms: C_16  and  C_17 
ROOT
HETATM    1  C   UNL     1      28.490  51.617  38.287  1.00  0.00     0.028 A 
HETATM    2  C   UNL     1      27.497  50.951  39.000  1.00  0.00     0.062 A 
HETATM    3  C   UNL     1      26.555  50.098  38.348  1.00  0.00     0.101 C 
HETATM    4  N   UNL     1      25.781  49.399  37.841  1.00  0.00    -0.191 NA
HETATM    5  C   UNL     1      27.444  51.137  40.377  1.00  0.00     0.142 A 
HETATM    6  N   UNL     1      28.300  51.926  41.082  1.00  0.00    -0.236 NA
HETATM    7  C   UNL     1      29.252  52.555  40.355  1.00  0.00     0.164 A 
HETATM    8  C   UNL     1      29.382  52.433  38.977  1.00  0.00     0.059 A 
ENDROOT
BRANCH   7   9
HETATM    9  O   UNL     1      30.174  53.374  40.959  1.00  0.00    -0.329 OA
BRANCH   9  10
HETATM   10  C   UNL     1      31.339  52.822  41.564  1.00  0.00     0.130 C 
HETATM   11  C   UNL     1      32.106  51.843  40.665  1.00  0.00     0.034 C 
HETATM   12  C   UNL     1      33.405  51.384  41.327  1.00  0.00     0.035 C 
HETATM   13  C   UNL     1      33.206  50.845  42.748  1.00  0.00     0.186 C 
HETATM   14  C   UNL     1      32.423  51.833  43.623  1.00  0.00     0.035 C 
HETATM   15  C   UNL     1      31.111  52.293  42.986  1.00  0.00     0.034 C 
BRANCH  13  16
HETATM   16  N   UNL     1      32.476  49.534  42.728  1.00  0.00    -0.067 N 
HETATM   17  H   UNL     1      32.806  48.961  43.518  1.00  0.00     0.278 HD
HETATM   18  H   UNL     1      31.467  49.660  42.901  1.00  0.00     0.278 HD
BRANCH  16  19
HETATM   19  C   UNL     1      32.646  48.711  41.489  1.00  0.00     0.278 C 
BRANCH  19  20
HETATM   20  C   UNL     1      31.332  48.273  40.930  1.00  0.00     0.009 A 
HETATM   21  S   UNL     1      29.884  48.561  41.802  1.00  0.00    -0.103 SA
HETATM   22  C   UNL     1      28.924  47.839  40.582  1.00  0.00     0.072 A 
HETATM   23  C   UNL     1      29.685  47.383  39.527  1.00  0.00     0.052 A 
HETATM   24  C   UNL     1      29.125  46.740  38.375  1.00  0.00     0.100 C 
HETATM   25  C   UNL     1      31.078  47.631  39.731  1.00  0.00     0.039 A 
HETATM   26  N   UNL     1      28.693  46.208  37.440  1.00  0.00    -0.191 NA
ENDBRANCH  19  20
ENDBRANCH  16  19
ENDBRANCH  13  16
ENDBRANCH   9  10
ENDBRANCH   7   9
TORSDOF 5
ENDMDL
MODEL 7
REMARK VINA RESULT:      -7.2      2.209      2.800
REMARK  5 active torsions:
REMARK  status: ('A' for Active; 'I' for Inactive)
REMARK    1  A    between atoms: C_7  and  O_8 
REMARK    2  A    between atoms: O_8  and  C_9 
REMARK    3  A    between atoms: C_12  and  N_13 
REMARK    4  A    between atoms: N_13  and  C_16 
REMARK    5  A    between atoms: C_16  and  C_17 
ROOT
HETATM    1  C   UNL     1      30.496  42.673  53.879  1.00  0.00     0.028 A 
HETATM    2  C   UNL     1      30.208  43.541  54.928  1.00  0.00     0.062 A 
HETATM    3  C   UNL     1      30.983  43.546  56.127  1.00  0.00     0.101 C 
HETATM    4  N   UNL     1      31.599  43.568  57.109  1.00  0.00    -0.191 NA
HETATM    5  C   UNL     1      29.137  44.415  54.777  1.00  0.00     0.142 A 
HETATM    6  N   UNL     1      28.348  44.485  53.671  1.00  0.00    -0.236 NA
HETATM    7  C   UNL     1      28.660  43.626  52.673  1.00  0.00     0.164 A 
HETATM    8  C   UNL     1      29.708  42.716  52.732  1.00  0.00     0.059 A 
ENDROOT
BRANCH   7   9
HETATM    9  O   UNL     1      27.935  43.608  51.506  1.00  0.00    -0.329 OA
BRANCH   9  10
HETATM   10  C   UNL     1      26.883  44.545  51.298  1.00  0.00     0.130 C 
HETATM   11  C   UNL     1      25.479  43.973  51.537  1.00  0.00     0.034 C 
HETATM   12  C   UNL     1      24.411  45.059  51.416  1.00  0.00     0.035 C 
HETATM   13  C   UNL     1      24.505  45.861  50.114  1.00  0.00     0.186 C 
HETATM   14  C   UNL     1      25.919  46.409  49.887  1.00  0.00     0.035 C 
HETATM   15  C   UNL     1      27.005  45.336  49.989  1.00  0.00     0.034 C 
BRANCH  13  16
HETATM   16  N   UNL     1      24.119  45.018  48.933  1.00  0.00    -0.067 N 
HETATM   17  H   UNL     1      24.133  45.607  48.089  1.00  0.00     0.278 HD
HETATM   18  H   UNL     1      24.816  44.281  48.750  1.00  0.00     0.278 HD
BRANCH  16  19
HETATM   19  C   UNL     1      22.765  44.382  49.001  1.00  0.00     0.278 C 
BRANCH  19  20
HETATM   20  C   UNL     1      21.688  45.323  48.570  1.00  0.00     0.009 A 
HETATM   21  S   UNL     1      22.077  46.713  47.645  1.00  0.00    -0.103 SA
HETATM   22  C   UNL     1      20.437  47.200  47.559  1.00  0.00     0.072 A 
HETATM   23  C   UNL     1      19.603  46.326  48.222  1.00  0.00     0.052 A 
HETATM   24  C   UNL     1      18.183  46.502  48.301  1.00  0.00     0.100 C 
HETATM   25  C   UNL     1      20.328  45.242  48.810  1.00  0.00     0.039 A 
HETATM   26  N   UNL     1      17.034  46.632  48.384  1.00  0.00    -0.191 NA
ENDBRANCH  19  20
ENDBRANCH  16  19
ENDBRANCH  13  16
ENDBRANCH   9  10
ENDBRANCH   7   9
TORSDOF 5
ENDMDL
MODEL 8
REMARK VINA RESULT:      -7.2      3.516      9.201
REMARK  5 active torsions:
REMARK  status: ('A' for Active; 'I' for Inactive)
REMARK    1  A    between atoms: C_7  and  O_8 
REMARK    2  A    between atoms: O_8  and  C_9 
REMARK    3  A    between atoms: C_12  and  N_13 
REMARK    4  A    between atoms: N_13  and  C_16 
REMARK    5  A    between atoms: C_16  and  C_17 
ROOT
HETATM    1  C   UNL     1      21.205  49.119  48.532  1.00  0.00     0.028 A 
HETATM    2  C   UNL     1      21.408  50.456  48.863  1.00  0.00     0.062 A 
HETATM    3  C   UNL     1      20.362  51.421  48.746  1.00  0.00     0.101 C 
HETATM    4  N   UNL     1      19.527  52.221  48.660  1.00  0.00    -0.191 NA
HETATM    5  C   UNL     1      22.667  50.833  49.317  1.00  0.00     0.142 A 
HETATM    6  N   UNL     1      23.721  49.984  49.464  1.00  0.00    -0.236 NA
HETATM    7  C   UNL     1      23.484  48.693  49.133  1.00  0.00     0.164 A 
HETATM    8  C   UNL     1      22.262  48.223  48.669  1.00  0.00     0.059 A 
ENDROOT
BRANCH   7   9
HETATM    9  O   UNL     1      24.471  47.745  49.245  1.00  0.00    -0.329 OA
BRANCH   9  10
HETATM   10  C   UNL     1      24.608  46.986  50.443  1.00  0.00     0.130 C 
HETATM   11  C   UNL     1      25.861  47.328  51.260  1.00  0.00     0.034 C 
HETATM   12  C   UNL     1      25.882  46.569  52.586  1.00  0.00     0.035 C 
HETATM   13  C   UNL     1      25.680  45.058  52.424  1.00  0.00     0.186 C 
HETATM   14  C   UNL     1      24.432  44.740  51.590  1.00  0.00     0.035 C 
HETATM   15  C   UNL     1      24.397  45.478  50.251  1.00  0.00     0.034 C 
BRANCH  13  16
HETATM   16  N   UNL     1      26.871  44.423  51.770  1.00  0.00    -0.067 N 
HETATM   17  H   UNL     1      26.643  44.229  50.785  1.00  0.00     0.278 HD
HETATM   18  H   UNL     1      27.672  45.071  51.730  1.00  0.00     0.278 HD
BRANCH  16  19
HETATM   19  C   UNL     1      27.336  43.133  52.373  1.00  0.00     0.278 C 
BRANCH  19  20
HETATM   20  C   UNL     1      27.568  42.086  51.333  1.00  0.00     0.009 A 
HETATM   21  S   UNL     1      26.933  42.284  49.753  1.00  0.00    -0.103 SA
HETATM   22  C   UNL     1      27.599  40.798  49.224  1.00  0.00     0.072 A 
HETATM   23  C   UNL     1      28.291  40.156  50.228  1.00  0.00     0.052 A 
HETATM   24  C   UNL     1      28.946  38.893  50.046  1.00  0.00     0.100 C 
HETATM   25  C   UNL     1      28.270  40.900  51.448  1.00  0.00     0.039 A 
HETATM   26  N   UNL     1      29.473  37.869  49.923  1.00  0.00    -0.191 NA
ENDBRANCH  19  20
ENDBRANCH  16  19
ENDBRANCH  13  16
ENDBRANCH   9  10
ENDBRANCH   7   9
TORSDOF 5
ENDMDL
MODEL 9
REMARK VINA RESULT:      -7.2      3.040      9.422
REMARK  5 active torsions:
REMARK  status: ('A' for Active; 'I' for Inactive)
REMARK    1  A    between atoms: C_7  and  O_8 
REMARK    2  A    between atoms: O_8  and  C_9 
REMARK    3  A    between atoms: C_12  and  N_13 
REMARK    4  A    between atoms: N_13  and  C_16 
REMARK    5  A    between atoms: C_16  and  C_17 
ROOT
HETATM    1  C   UNL     1      21.482  51.016  48.814  1.00  0.00     0.028 A 
HETATM    2  C   UNL     1      20.905  50.244  47.811  1.00  0.00     0.062 A 
HETATM    3  C   UNL     1      19.680  50.628  47.185  1.00  0.00     0.101 C 
HETATM    4  N   UNL     1      18.688  50.921  46.662  1.00  0.00    -0.191 NA
HETATM    5  C   UNL     1      21.558  49.077  47.426  1.00  0.00     0.142 A 
HETATM    6  N   UNL     1      22.728  48.636  47.963  1.00  0.00    -0.236 NA
HETATM    7  C   UNL     1      23.258  49.414  48.934  1.00  0.00     0.164 A 
HETATM    8  C   UNL     1      22.679  50.593  49.386  1.00  0.00     0.059 A 
ENDROOT
BRANCH   7   9
HETATM    9  O   UNL     1      24.439  49.071  49.546  1.00  0.00    -0.329 OA
BRANCH   9  10
HETATM   10  C   UNL     1      24.940  47.741  49.448  1.00  0.00     0.130 C 
HETATM   11  C   UNL     1      23.935  46.662  49.871  1.00  0.00     0.034 C 
HETATM   12  C   UNL     1      24.492  45.260  49.627  1.00  0.00     0.035 C 
HETATM   13  C   UNL     1      25.880  45.042  50.239  1.00  0.00     0.186 C 
HETATM   14  C   UNL     1      26.863  46.141  49.816  1.00  0.00     0.035 C 
HETATM   15  C   UNL     1      26.332  47.554  50.065  1.00  0.00     0.034 C 
BRANCH  13  16
HETATM   16  N   UNL     1      25.809  45.009  51.737  1.00  0.00    -0.067 N 
HETATM   17  H   UNL     1      25.669  45.969  52.082  1.00  0.00     0.278 HD
HETATM   18  H   UNL     1      24.980  44.491  52.066  1.00  0.00     0.278 HD
BRANCH  16  19
HETATM   19  C   UNL     1      27.016  44.464  52.436  1.00  0.00     0.278 C 
BRANCH  19  20
HETATM   20  C   UNL     1      27.387  45.287  53.626  1.00  0.00     0.009 A 
HETATM   21  S   UNL     1      26.625  46.797  53.902  1.00  0.00    -0.103 SA
HETATM   22  C   UNL     1      27.517  47.063  55.339  1.00  0.00     0.072 A 
HETATM   23  C   UNL     1      28.383  46.026  55.609  1.00  0.00     0.052 A 
HETATM   24  C   UNL     1      29.245  46.001  56.754  1.00  0.00     0.100 C 
HETATM   25  C   UNL     1      28.310  45.000  54.616  1.00  0.00     0.039 A 
HETATM   26  N   UNL     1      29.957  45.965  57.668  1.00  0.00    -0.191 NA
ENDBRANCH  19  20
ENDBRANCH  16  19
ENDBRANCH  13  16
ENDBRANCH   9  10
ENDBRANCH   7   9
TORSDOF 5
ENDMDL
MODEL 10
REMARK VINA RESULT:      -7.1      6.854     10.650
REMARK  5 active torsions:
REMARK  status: ('A' for Active; 'I' for Inactive)
REMARK    1  A    between atoms: C_7  and  O_8 
REMARK    2  A    between atoms: O_8  and  C_9 
REMARK    3  A    between atoms: C_12  and  N_13 
REMARK    4  A    between atoms: N_13  and  C_16 
REMARK    5  A    between atoms: C_16  and  C_17 
ROOT
HETATM    1  C   UNL     1      24.098  50.478  48.178  1.00  0.00     0.028 A 
HETATM    2  C   UNL     1      24.861  49.441  48.706  1.00  0.00     0.062 A 
HETATM    3  C   UNL     1      26.288  49.499  48.724  1.00  0.00     0.101 C 
HETATM    4  N   UNL     1      27.447  49.525  48.750  1.00  0.00    -0.191 NA
HETATM    5  C   UNL     1      24.194  48.336  49.223  1.00  0.00     0.142 A 
HETATM    6  N   UNL     1      22.841  48.195  49.251  1.00  0.00    -0.236 NA
HETATM    7  C   UNL     1      22.134  49.225  48.730  1.00  0.00     0.164 A 
HETATM    8  C   UNL     1      22.710  50.367  48.190  1.00  0.00     0.059 A 
ENDROOT
BRANCH   7   9
HETATM    9  O   UNL     1      20.760  49.196  48.709  1.00  0.00    -0.329 OA
BRANCH   9  10
HETATM   10  C   UNL     1      20.026  50.301  48.192  1.00  0.00     0.130 C 
HETATM   11  C   UNL     1      19.533  51.282  49.266  1.00  0.00     0.034 C 
HETATM   12  C   UNL     1      18.862  52.501  48.635  1.00  0.00     0.035 C 
HETATM   13  C   UNL     1      17.768  52.138  47.624  1.00  0.00     0.186 C 
HETATM   14  C   UNL     1      18.278  51.145  46.572  1.00  0.00     0.035 C 
HETATM   15  C   UNL     1      18.941  49.909  47.181  1.00  0.00     0.034 C 
BRANCH  13  16
HETATM   16  N   UNL     1      16.576  51.542  48.313  1.00  0.00    -0.067 N 
HETATM   17  H   UNL     1      15.742  51.709  47.733  1.00  0.00     0.278 HD
HETATM   18  H   UNL     1      16.648  50.515  48.376  1.00  0.00     0.278 HD
BRANCH  16  19
HETATM   19  C   UNL     1      16.274  52.080  49.678  1.00  0.00     0.278 C 
BRANCH  19  20
HETATM   20  C   UNL     1      15.681  53.449  49.615  1.00  0.00     0.009 A 
HETATM   21  S   UNL     1      14.436  53.799  48.490  1.00  0.00    -0.103 SA
HETATM   22  C   UNL     1      14.311  55.420  49.027  1.00  0.00     0.072 A 
HETATM   23  C   UNL     1      15.200  55.698  50.042  1.00  0.00     0.052 A 
HETATM   24  C   UNL     1      15.299  56.983  50.670  1.00  0.00     0.100 C 
HETATM   25  C   UNL     1      15.995  54.558  50.380  1.00  0.00     0.039 A 
HETATM   26  N   UNL     1      15.402  58.017  51.184  1.00  0.00    -0.191 NA
ENDBRANCH  19  20
ENDBRANCH  16  19
ENDBRANCH  13  16
ENDBRANCH   9  10
ENDBRANCH   7   9
TORSDOF 5
ENDMDL
