MODEL 1
REMARK VINA RESULT:      -9.8      0.000      0.000
REMARK  6 active torsions:
REMARK  status: ('A' for Active; 'I' for Inactive)
REMARK    1  A    between atoms: O_2  and  C_3 
REMARK    2  A    between atoms: C_4  and  C_5 
REMARK       I    between atoms: C_5  and  N_6 
REMARK    3  A    between atoms: N_6  and  C_7 
REMARK    4  A    between atoms: C_9  and  C_10 
REMARK    5  A    between atoms: C_10  and  C_11 
REMARK    6  A    between atoms: C_11  and  C_12 
ROOT
HETATM    1  C   UNL     1      25.017  45.829  51.514  1.00  0.00     0.725 A 
HETATM    2  N   UNL     1      26.134  45.561  52.143  1.00  0.00    -0.046 NA
HETATM    3  C   UNL     1      25.950  44.298  52.637  1.00  0.00     0.166 A 
HETATM    4  N   UNL     1      24.767  43.749  52.330  1.00  0.00    -0.144 NA
HETATM    5  N   UNL     1      24.193  44.742  51.630  1.00  0.00    -0.106 N 
HETATM    6  H   UNL     1      23.260  44.608  51.264  1.00  0.00     0.208 HD
ENDROOT
BRANCH   1   7
HETATM    7  N   UNL     1      24.643  46.967  50.840  1.00  0.00    -0.152 N 
HETATM    8  C   UNL     1      23.938  46.904  49.649  1.00  0.00     0.272 C 
HETATM    9  O   UNL     1      23.532  45.906  49.074  1.00  0.00    -0.267 OA
HETATM   10  H   UNL     1      24.926  47.865  51.201  1.00  0.00     0.187 HD
BRANCH   8  11
HETATM   11  C   UNL     1      23.682  48.236  49.040  1.00  0.00     0.066 A 
HETATM   12  C   UNL     1      24.718  49.156  48.826  1.00  0.00     0.084 A 
HETATM   13  C   UNL     1      24.447  50.371  48.191  1.00  0.00     0.038 A 
HETATM   14  C   UNL     1      23.145  50.690  47.801  1.00  0.00     0.003 A 
HETATM   15  C   UNL     1      22.110  49.783  48.021  1.00  0.00     0.001 A 
HETATM   16  C   UNL     1      22.376  48.554  48.631  1.00  0.00     0.020 A 
BRANCH  12  17
HETATM   17  O   UNL     1      26.032  48.924  49.133  1.00  0.00    -0.355 OA
HETATM   18  C   UNL     1      26.904  49.853  48.493  1.00  0.00     0.210 C 
ENDBRANCH  12  17
ENDBRANCH   8  11
ENDBRANCH   1   7
BRANCH   3  19
HETATM   19  C   UNL     1      27.010  43.614  53.424  1.00  0.00     0.087 C 
BRANCH  19  20
HETATM   20  C   UNL     1      28.367  44.315  53.369  1.00  0.00     0.048 C 
BRANCH  20  21
HETATM   21  C   UNL     1      28.723  44.962  54.673  1.00  0.00    -0.030 A 
HETATM   22  C   UNL     1      29.715  44.528  55.611  1.00  0.00    -0.002 A 
HETATM   23  C   UNL     1      29.727  45.446  56.662  1.00  0.00     0.042 A 
HETATM   24  C   UNL     1      30.616  43.444  55.658  1.00  0.00     0.014 A 
HETATM   25  C   UNL     1      30.597  45.340  57.754  1.00  0.00     0.030 A 
HETATM   26  N   UNL     1      28.769  46.392  56.383  1.00  0.00    -0.365 N 
HETATM   27  C   UNL     1      31.482  44.258  57.773  1.00  0.00     0.002 A 
HETATM   28  C   UNL     1      31.493  43.322  56.742  1.00  0.00     0.001 A 
HETATM   29  H   UNL     1      28.558  47.184  56.974  1.00  0.00     0.165 HD
HETATM   30  C   UNL     1      28.159  46.112  55.191  1.00  0.00     0.096 A 
ENDBRANCH  20  21
ENDBRANCH  19  20
ENDBRANCH   3  19
TORSDOF 6
ENDMDL
MODEL 2
REMARK VINA RESULT:      -9.3      1.401      2.176
REMARK  6 active torsions:
REMARK  status: ('A' for Active; 'I' for Inactive)
REMARK    1  A    between atoms: O_2  and  C_3 
REMARK    2  A    between atoms: C_4  and  C_5 
REMARK       I    between atoms: C_5  and  N_6 
REMARK    3  A    between atoms: N_6  and  C_7 
REMARK    4  A    between atoms: C_9  and  C_10 
REMARK    5  A    between atoms: C_10  and  C_11 
REMARK    6  A    between atoms: C_11  and  C_12 
ROOT
HETATM    1  C   UNL     1      26.450  44.860  50.699  1.00  0.00     0.725 A 
HETATM    2  N   UNL     1      27.237  44.704  51.735  1.00  0.00    -0.046 NA
HETATM    3  C   UNL     1      27.059  43.397  52.102  1.00  0.00     0.166 A 
HETATM    4  N   UNL     1      26.201  42.717  51.329  1.00  0.00    -0.144 NA
HETATM    5  N   UNL     1      25.823  43.668  50.459  1.00  0.00    -0.106 N 
HETATM    6  H   UNL     1      25.153  43.434  49.738  1.00  0.00     0.208 HD
ENDROOT
BRANCH   1   7
HETATM    7  N   UNL     1      26.220  45.980  49.937  1.00  0.00    -0.152 N 
HETATM    8  C   UNL     1      25.760  47.159  50.501  1.00  0.00     0.272 C 
HETATM    9  O   UNL     1      25.542  47.385  51.681  1.00  0.00    -0.267 OA
HETATM   10  H   UNL     1      26.349  45.927  48.938  1.00  0.00     0.187 HD
BRANCH   8  11
HETATM   11  C   UNL     1      25.511  48.235  49.507  1.00  0.00     0.066 A 
HETATM   12  C   UNL     1      24.214  48.567  49.093  1.00  0.00     0.084 A 
HETATM   13  C   UNL     1      24.018  49.630  48.206  1.00  0.00     0.038 A 
HETATM   14  C   UNL     1      25.109  50.339  47.703  1.00  0.00     0.003 A 
HETATM   15  C   UNL     1      26.402  50.007  48.103  1.00  0.00     0.001 A 
HETATM   16  C   UNL     1      26.606  48.964  49.010  1.00  0.00     0.020 A 
BRANCH  12  17
HETATM   17  O   UNL     1      23.077  47.961  49.558  1.00  0.00    -0.355 OA
HETATM   18  C   UNL     1      22.189  47.604  48.500  1.00  0.00     0.210 C 
ENDBRANCH  12  17
ENDBRANCH   8  11
ENDBRANCH   1   7
BRANCH   3  19
HETATM   19  C   UNL     1      27.792  42.811  53.254  1.00  0.00     0.087 C 
BRANCH  19  20
HETATM   20  C   UNL     1      29.195  43.385  53.447  1.00  0.00     0.048 C 
BRANCH  20  21
HETATM   21  C   UNL     1      29.270  44.312  54.623  1.00  0.00    -0.030 A 
HETATM   22  C   UNL     1      30.136  44.199  55.759  1.00  0.00    -0.002 A 
HETATM   23  C   UNL     1      29.888  45.295  56.585  1.00  0.00     0.042 A 
HETATM   24  C   UNL     1      31.121  43.270  56.156  1.00  0.00     0.014 A 
HETATM   25  C   UNL     1      30.576  45.515  57.784  1.00  0.00     0.030 A 
HETATM   26  N   UNL     1      28.899  46.038  55.985  1.00  0.00    -0.365 N 
HETATM   27  C   UNL     1      31.550  44.582  58.152  1.00  0.00     0.002 A 
HETATM   28  C   UNL     1      31.820  43.474  57.352  1.00  0.00     0.001 A 
HETATM   29  H   UNL     1      28.517  46.894  56.361  1.00  0.00     0.165 HD
HETATM   30  C   UNL     1      28.519  45.457  54.806  1.00  0.00     0.096 A 
ENDBRANCH  20  21
ENDBRANCH  19  20
ENDBRANCH   3  19
TORSDOF 6
ENDMDL
MODEL 3
REMARK VINA RESULT:      -9.3      1.383      2.407
REMARK  6 active torsions:
REMARK  status: ('A' for Active; 'I' for Inactive)
REMARK    1  A    between atoms: O_2  and  C_3 
REMARK    2  A    between atoms: C_4  and  C_5 
REMARK       I    between atoms: C_5  and  N_6 
REMARK    3  A    between atoms: N_6  and  C_7 
REMARK    4  A    between atoms: C_9  and  C_10 
REMARK    5  A    between atoms: C_10  and  C_11 
REMARK    6  A    between atoms: C_11  and  C_12 
ROOT
HETATM    1  C   UNL     1      24.647  46.299  50.291  1.00  0.00     0.725 A 
HETATM    2  N   UNL     1      24.656  45.672  51.441  1.00  0.00    -0.046 NA
HETATM    3  C   UNL     1      25.843  44.988  51.445  1.00  0.00     0.166 A 
HETATM    4  N   UNL     1      26.591  45.171  50.349  1.00  0.00    -0.144 NA
HETATM    5  N   UNL     1      25.807  45.993  49.632  1.00  0.00    -0.106 N 
HETATM    6  H   UNL     1      26.124  46.305  48.724  1.00  0.00     0.208 HD
ENDROOT
BRANCH   1   7
HETATM    7  N   UNL     1      23.689  47.124  49.752  1.00  0.00    -0.152 N 
HETATM    8  C   UNL     1      23.987  48.418  49.358  1.00  0.00     0.272 C 
HETATM    9  O   UNL     1      25.073  48.975  49.388  1.00  0.00    -0.267 OA
HETATM   10  H   UNL     1      22.740  46.790  49.681  1.00  0.00     0.187 HD
BRANCH   8  11
HETATM   11  C   UNL     1      22.808  49.173  48.860  1.00  0.00     0.066 A 
HETATM   12  C   UNL     1      21.974  48.654  47.859  1.00  0.00     0.084 A 
HETATM   13  C   UNL     1      20.838  49.366  47.464  1.00  0.00     0.038 A 
HETATM   14  C   UNL     1      20.547  50.606  48.034  1.00  0.00     0.003 A 
HETATM   15  C   UNL     1      21.378  51.131  49.022  1.00  0.00     0.001 A 
HETATM   16  C   UNL     1      22.502  50.415  49.443  1.00  0.00     0.020 A 
BRANCH  12  17
HETATM   17  O   UNL     1      22.148  47.432  47.266  1.00  0.00    -0.355 OA
HETATM   18  C   UNL     1      20.916  46.878  46.808  1.00  0.00     0.210 C 
ENDBRANCH  12  17
ENDBRANCH   8  11
ENDBRANCH   1   7
BRANCH   3  19
HETATM   19  C   UNL     1      26.243  44.142  52.599  1.00  0.00     0.087 C 
BRANCH  19  20
HETATM   20  C   UNL     1      27.754  44.070  52.815  1.00  0.00     0.048 C 
BRANCH  20  21
HETATM   21  C   UNL     1      28.185  44.800  54.051  1.00  0.00    -0.030 A 
HETATM   22  C   UNL     1      29.235  44.429  54.953  1.00  0.00    -0.002 A 
HETATM   23  C   UNL     1      29.306  45.413  55.939  1.00  0.00     0.042 A 
HETATM   24  C   UNL     1      30.143  43.351  55.015  1.00  0.00     0.014 A 
HETATM   25  C   UNL     1      30.240  45.379  56.981  1.00  0.00     0.030 A 
HETATM   26  N   UNL     1      28.328  46.338  55.659  1.00  0.00    -0.365 N 
HETATM   27  C   UNL     1      31.131  44.302  57.016  1.00  0.00     0.002 A 
HETATM   28  C   UNL     1      31.085  43.301  56.049  1.00  0.00     0.001 A 
HETATM   29  H   UNL     1      28.148  47.166  56.209  1.00  0.00     0.165 HD
HETATM   30  C   UNL     1      27.648  45.981  54.527  1.00  0.00     0.096 A 
ENDBRANCH  20  21
ENDBRANCH  19  20
ENDBRANCH   3  19
TORSDOF 6
ENDMDL
MODEL 4
REMARK VINA RESULT:      -9.2      1.965      3.486
REMARK  6 active torsions:
REMARK  status: ('A' for Active; 'I' for Inactive)
REMARK    1  A    between atoms: O_2  and  C_3 
REMARK    2  A    between atoms: C_4  and  C_5 
REMARK       I    between atoms: C_5  and  N_6 
REMARK    3  A    between atoms: N_6  and  C_7 
REMARK    4  A    between atoms: C_9  and  C_10 
REMARK    5  A    between atoms: C_10  and  C_11 
REMARK    6  A    between atoms: C_11  and  C_12 
ROOT
HETATM    1  C   UNL     1      24.332  47.641  50.052  1.00  0.00     0.725 A 
HETATM    2  N   UNL     1      24.584  46.502  50.649  1.00  0.00    -0.046 NA
HETATM    3  C   UNL     1      25.936  46.337  50.509  1.00  0.00     0.166 A 
HETATM    4  N   UNL     1      26.551  47.336  49.861  1.00  0.00    -0.144 NA
HETATM    5  N   UNL     1      25.514  48.140  49.573  1.00  0.00    -0.106 N 
HETATM    6  H   UNL     1      25.683  48.997  49.066  1.00  0.00     0.208 HD
ENDROOT
BRANCH   1   7
HETATM    7  N   UNL     1      23.134  48.291  49.878  1.00  0.00    -0.152 N 
HETATM    8  C   UNL     1      22.854  48.993  48.717  1.00  0.00     0.272 C 
HETATM    9  O   UNL     1      23.556  49.102  47.724  1.00  0.00    -0.267 OA
HETATM   10  H   UNL     1      22.463  48.290  50.631  1.00  0.00     0.187 HD
BRANCH   8  11
HETATM   11  C   UNL     1      21.536  49.679  48.742  1.00  0.00     0.066 A 
HETATM   12  C   UNL     1      20.345  48.973  48.958  1.00  0.00     0.084 A 
HETATM   13  C   UNL     1      19.132  49.665  49.041  1.00  0.00     0.038 A 
HETATM   14  C   UNL     1      19.097  51.050  48.873  1.00  0.00     0.003 A 
HETATM   15  C   UNL     1      20.277  51.756  48.648  1.00  0.00     0.001 A 
HETATM   16  C   UNL     1      21.496  51.077  48.591  1.00  0.00     0.020 A 
BRANCH  12  17
HETATM   17  O   UNL     1      20.276  47.623  49.175  1.00  0.00    -0.355 OA
HETATM   18  C   UNL     1      19.216  47.015  48.439  1.00  0.00     0.210 C 
ENDBRANCH  12  17
ENDBRANCH   8  11
ENDBRANCH   1   7
BRANCH   3  19
HETATM   19  C   UNL     1      26.631  45.147  51.064  1.00  0.00     0.087 C 
BRANCH  19  20
HETATM   20  C   UNL     1      26.143  44.742  52.454  1.00  0.00     0.048 C 
BRANCH  20  21
HETATM   21  C   UNL     1      27.028  45.272  53.542  1.00  0.00    -0.030 A 
HETATM   22  C   UNL     1      28.167  44.625  54.122  1.00  0.00    -0.002 A 
HETATM   23  C   UNL     1      28.706  45.495  55.070  1.00  0.00     0.042 A 
HETATM   24  C   UNL     1      28.801  43.381  53.918  1.00  0.00     0.014 A 
HETATM   25  C   UNL     1      29.847  45.189  55.821  1.00  0.00     0.030 A 
HETATM   26  N   UNL     1      27.916  46.621  55.080  1.00  0.00    -0.365 N 
HETATM   27  C   UNL     1      30.458  43.952  55.596  1.00  0.00     0.002 A 
HETATM   28  C   UNL     1      29.944  43.058  54.659  1.00  0.00     0.001 A 
HETATM   29  H   UNL     1      28.071  47.424  55.672  1.00  0.00     0.165 HD
HETATM   30  C   UNL     1      26.905  46.498  54.166  1.00  0.00     0.096 A 
ENDBRANCH  20  21
ENDBRANCH  19  20
ENDBRANCH   3  19
TORSDOF 6
ENDMDL
MODEL 5
REMARK VINA RESULT:      -9.1      2.545      9.538
REMARK  6 active torsions:
REMARK  status: ('A' for Active; 'I' for Inactive)
REMARK    1  A    between atoms: O_2  and  C_3 
REMARK    2  A    between atoms: C_4  and  C_5 
REMARK       I    between atoms: C_5  and  N_6 
REMARK    3  A    between atoms: N_6  and  C_7 
REMARK    4  A    between atoms: C_9  and  C_10 
REMARK    5  A    between atoms: C_10  and  C_11 
REMARK    6  A    between atoms: C_11  and  C_12 
ROOT
HETATM    1  C   UNL     1      26.866  46.013  53.899  1.00  0.00     0.725 A 
HETATM    2  N   UNL     1      26.369  45.583  52.766  1.00  0.00    -0.046 NA
HETATM    3  C   UNL     1      25.502  46.571  52.380  1.00  0.00     0.166 A 
HETATM    4  N   UNL     1      25.444  47.615  53.218  1.00  0.00    -0.144 NA
HETATM    5  N   UNL     1      26.306  47.231  54.174  1.00  0.00    -0.106 N 
HETATM    6  H   UNL     1      26.465  47.841  54.965  1.00  0.00     0.208 HD
ENDROOT
BRANCH   1   7
HETATM    7  N   UNL     1      27.778  45.416  54.736  1.00  0.00    -0.152 N 
HETATM    8  C   UNL     1      28.873  46.109  55.226  1.00  0.00     0.272 C 
HETATM    9  O   UNL     1      29.158  47.282  55.039  1.00  0.00    -0.267 OA
HETATM   10  H   UNL     1      27.667  44.440  54.964  1.00  0.00     0.187 HD
BRANCH   8  11
HETATM   11  C   UNL     1      29.777  45.276  56.062  1.00  0.00     0.066 A 
HETATM   12  C   UNL     1      30.347  44.094  55.572  1.00  0.00     0.084 A 
HETATM   13  C   UNL     1      31.244  43.374  56.367  1.00  0.00     0.038 A 
HETATM   14  C   UNL     1      31.546  43.806  57.659  1.00  0.00     0.003 A 
HETATM   15  C   UNL     1      30.974  44.975  58.155  1.00  0.00     0.001 A 
HETATM   16  C   UNL     1      30.097  45.716  57.358  1.00  0.00     0.020 A 
BRANCH  12  17
HETATM   17  O   UNL     1      30.148  43.607  54.308  1.00  0.00    -0.355 OA
HETATM   18  C   UNL     1      29.371  42.411  54.310  1.00  0.00     0.210 C 
ENDBRANCH  12  17
ENDBRANCH   8  11
ENDBRANCH   1   7
BRANCH   3  19
HETATM   19  C   UNL     1      24.726  46.467  51.117  1.00  0.00     0.087 C 
BRANCH  19  20
HETATM   20  C   UNL     1      25.572  46.649  49.858  1.00  0.00     0.048 C 
BRANCH  20  21
HETATM   21  C   UNL     1      25.401  48.011  49.254  1.00  0.00    -0.030 A 
HETATM   22  C   UNL     1      24.179  48.613  48.810  1.00  0.00    -0.002 A 
HETATM   23  C   UNL     1      24.487  49.895  48.352  1.00  0.00     0.042 A 
HETATM   24  C   UNL     1      22.834  48.192  48.768  1.00  0.00     0.014 A 
HETATM   25  C   UNL     1      23.520  50.778  47.859  1.00  0.00     0.030 A 
HETATM   26  N   UNL     1      25.845  50.060  48.495  1.00  0.00    -0.365 N 
HETATM   27  C   UNL     1      22.193  50.337  47.833  1.00  0.00     0.002 A 
HETATM   28  C   UNL     1      21.853  49.062  48.280  1.00  0.00     0.001 A 
HETATM   29  H   UNL     1      26.349  50.898  48.243  1.00  0.00     0.165 HD
HETATM   30  C   UNL     1      26.405  48.935  49.036  1.00  0.00     0.096 A 
ENDBRANCH  20  21
ENDBRANCH  19  20
ENDBRANCH   3  19
TORSDOF 6
ENDMDL
MODEL 6
REMARK VINA RESULT:      -8.9      2.695      9.741
REMARK  6 active torsions:
REMARK  status: ('A' for Active; 'I' for Inactive)
REMARK    1  A    between atoms: O_2  and  C_3 
REMARK    2  A    between atoms: C_4  and  C_5 
REMARK       I    between atoms: C_5  and  N_6 
REMARK    3  A    between atoms: N_6  and  C_7 
REMARK    4  A    between atoms: C_9  and  C_10 
REMARK    5  A    between atoms: C_10  and  C_11 
REMARK    6  A    between atoms: C_11  and  C_12 
ROOT
HETATM    1  C   UNL     1      25.784  47.787  50.124  1.00  0.00     0.725 A 
HETATM    2  N   UNL     1      24.617  48.314  49.846  1.00  0.00    -0.046 NA
HETATM    3  C   UNL     1      24.900  49.308  48.948  1.00  0.00     0.166 A 
HETATM    4  N   UNL     1      26.198  49.419  48.635  1.00  0.00    -0.144 NA
HETATM    5  N   UNL     1      26.735  48.454  49.401  1.00  0.00    -0.106 N 
HETATM    6  H   UNL     1      27.735  48.306  49.374  1.00  0.00     0.208 HD
ENDROOT
BRANCH   1   7
HETATM    7  N   UNL     1      26.098  46.758  50.980  1.00  0.00    -0.152 N 
HETATM    8  C   UNL     1      25.877  46.859  52.344  1.00  0.00     0.272 C 
HETATM    9  O   UNL     1      25.371  47.790  52.951  1.00  0.00    -0.267 OA
HETATM   10  H   UNL     1      26.536  45.929  50.609  1.00  0.00     0.187 HD
BRANCH   8  11
HETATM   11  C   UNL     1      26.339  45.671  53.109  1.00  0.00     0.066 A 
HETATM   12  C   UNL     1      25.660  44.447  53.044  1.00  0.00     0.084 A 
HETATM   13  C   UNL     1      26.164  43.336  53.726  1.00  0.00     0.038 A 
HETATM   14  C   UNL     1      27.320  43.447  54.501  1.00  0.00     0.003 A 
HETATM   15  C   UNL     1      27.993  44.664  54.578  1.00  0.00     0.001 A 
HETATM   16  C   UNL     1      27.512  45.774  53.877  1.00  0.00     0.020 A 
BRANCH  12  17
HETATM   17  O   UNL     1      24.544  44.223  52.282  1.00  0.00    -0.355 OA
HETATM   18  C   UNL     1      24.799  43.315  51.212  1.00  0.00     0.210 C 
ENDBRANCH  12  17
ENDBRANCH   8  11
ENDBRANCH   1   7
BRANCH   3  19
HETATM   19  C   UNL     1      23.825  50.156  48.371  1.00  0.00     0.087 C 
BRANCH  19  20
HETATM   20  C   UNL     1      22.726  49.363  47.666  1.00  0.00     0.048 C 
BRANCH  20  21
HETATM   21  C   UNL     1      21.499  49.219  48.515  1.00  0.00    -0.030 A 
HETATM   22  C   UNL     1      20.522  50.229  48.802  1.00  0.00    -0.002 A 
HETATM   23  C   UNL     1      19.539  49.645  49.601  1.00  0.00     0.042 A 
HETATM   24  C   UNL     1      20.376  51.585  48.443  1.00  0.00     0.014 A 
HETATM   25  C   UNL     1      18.415  50.344  50.056  1.00  0.00     0.030 A 
HETATM   26  N   UNL     1      19.910  48.337  49.807  1.00  0.00    -0.365 N 
HETATM   27  C   UNL     1      18.293  51.685  49.682  1.00  0.00     0.002 A 
HETATM   28  C   UNL     1      19.258  52.300  48.888  1.00  0.00     0.001 A 
HETATM   29  H   UNL     1      19.381  47.670  50.352  1.00  0.00     0.165 HD
HETATM   30  C   UNL     1      21.086  48.070  49.160  1.00  0.00     0.096 A 
ENDBRANCH  20  21
ENDBRANCH  19  20
ENDBRANCH   3  19
TORSDOF 6
ENDMDL
MODEL 7
REMARK VINA RESULT:      -8.8      2.892     10.032
REMARK  6 active torsions:
REMARK  status: ('A' for Active; 'I' for Inactive)
REMARK    1  A    between atoms: O_2  and  C_3 
REMARK    2  A    between atoms: C_4  and  C_5 
REMARK       I    between atoms: C_5  and  N_6 
REMARK    3  A    between atoms: N_6  and  C_7 
REMARK    4  A    between atoms: C_9  and  C_10 
REMARK    5  A    between atoms: C_10  and  C_11 
REMARK    6  A    between atoms: C_11  and  C_12 
ROOT
HETATM    1  C   UNL     1      24.857  46.737  50.636  1.00  0.00     0.725 A 
HETATM    2  N   UNL     1      24.581  47.978  50.318  1.00  0.00    -0.046 NA
HETATM    3  C   UNL     1      23.513  47.880  49.467  1.00  0.00     0.166 A 
HETATM    4  N   UNL     1      23.093  46.627  49.247  1.00  0.00    -0.144 NA
HETATM    5  N   UNL     1      23.966  45.925  49.989  1.00  0.00    -0.106 N 
HETATM    6  H   UNL     1      23.891  44.917  50.011  1.00  0.00     0.208 HD
ENDROOT
BRANCH   1   7
HETATM    7  N   UNL     1      25.845  46.243  51.453  1.00  0.00    -0.152 N 
HETATM    8  C   UNL     1      25.611  45.181  52.312  1.00  0.00     0.272 C 
HETATM    9  O   UNL     1      24.580  44.539  52.440  1.00  0.00    -0.267 OA
HETATM   10  H   UNL     1      26.749  46.691  51.455  1.00  0.00     0.187 HD
BRANCH   8  11
HETATM   11  C   UNL     1      26.783  44.832  53.157  1.00  0.00     0.066 A 
HETATM   12  C   UNL     1      27.253  45.700  54.152  1.00  0.00     0.084 A 
HETATM   13  C   UNL     1      28.317  45.307  54.970  1.00  0.00     0.038 A 
HETATM   14  C   UNL     1      28.936  44.071  54.778  1.00  0.00     0.003 A 
HETATM   15  C   UNL     1      28.479  43.209  53.783  1.00  0.00     0.001 A 
HETATM   16  C   UNL     1      27.399  43.582  52.979  1.00  0.00     0.020 A 
BRANCH  12  17
HETATM   17  O   UNL     1      26.692  46.913  54.448  1.00  0.00    -0.355 OA
HETATM   18  C   UNL     1      27.651  47.840  54.951  1.00  0.00     0.210 C 
ENDBRANCH  12  17
ENDBRANCH   8  11
ENDBRANCH   1   7
BRANCH   3  19
HETATM   19  C   UNL     1      22.884  49.089  48.874  1.00  0.00     0.087 C 
BRANCH  19  20
HETATM   20  C   UNL     1      21.635  48.790  48.045  1.00  0.00     0.048 C 
BRANCH  20  21
HETATM   21  C   UNL     1      20.373  49.101  48.792  1.00  0.00    -0.030 A 
HETATM   22  C   UNL     1      19.676  50.352  48.828  1.00  0.00    -0.002 A 
HETATM   23  C   UNL     1      18.538  50.175  49.616  1.00  0.00     0.042 A 
HETATM   24  C   UNL     1      19.900  51.619  48.250  1.00  0.00     0.014 A 
HETATM   25  C   UNL     1      17.611  51.196  49.853  1.00  0.00     0.030 A 
HETATM   26  N   UNL     1      18.551  48.872  50.057  1.00  0.00    -0.365 N 
HETATM   27  C   UNL     1      17.854  52.440  49.264  1.00  0.00     0.002 A 
HETATM   28  C   UNL     1      18.982  52.652  48.474  1.00  0.00     0.001 A 
HETATM   29  H   UNL     1      17.843  48.461  50.649  1.00  0.00     0.165 HD
HETATM   30  C   UNL     1      19.649  48.217  49.568  1.00  0.00     0.096 A 
ENDBRANCH  20  21
ENDBRANCH  19  20
ENDBRANCH   3  19
TORSDOF 6
ENDMDL
MODEL 8
REMARK VINA RESULT:      -8.4      2.326      3.727
REMARK  6 active torsions:
REMARK  status: ('A' for Active; 'I' for Inactive)
REMARK    1  A    between atoms: O_2  and  C_3 
REMARK    2  A    between atoms: C_4  and  C_5 
REMARK       I    between atoms: C_5  and  N_6 
REMARK    3  A    between atoms: N_6  and  C_7 
REMARK    4  A    between atoms: C_9  and  C_10 
REMARK    5  A    between atoms: C_10  and  C_11 
REMARK    6  A    between atoms: C_11  and  C_12 
ROOT
HETATM    1  C   UNL     1      23.914  46.386  49.593  1.00  0.00     0.725 A 
HETATM    2  N   UNL     1      25.056  46.239  50.217  1.00  0.00    -0.046 NA
HETATM    3  C   UNL     1      25.413  44.941  49.969  1.00  0.00     0.166 A 
HETATM    4  N   UNL     1      24.550  44.267  49.198  1.00  0.00    -0.144 NA
HETATM    5  N   UNL     1      23.606  45.199  48.984  1.00  0.00    -0.106 N 
HETATM    6  H   UNL     1      22.802  44.962  48.420  1.00  0.00     0.208 HD
ENDROOT
BRANCH   1   7
HETATM    7  N   UNL     1      23.095  47.487  49.514  1.00  0.00    -0.152 N 
HETATM    8  C   UNL     1      22.395  47.788  48.357  1.00  0.00     0.272 C 
HETATM    9  O   UNL     1      22.364  47.148  47.317  1.00  0.00    -0.267 OA
HETATM   10  H   UNL     1      23.037  48.112  50.304  1.00  0.00     0.187 HD
BRANCH   8  11
HETATM   11  C   UNL     1      21.615  49.050  48.446  1.00  0.00     0.066 A 
HETATM   12  C   UNL     1      20.257  49.051  48.791  1.00  0.00     0.084 A 
HETATM   13  C   UNL     1      19.576  50.264  48.928  1.00  0.00     0.038 A 
HETATM   14  C   UNL     1      20.231  51.473  48.688  1.00  0.00     0.003 A 
HETATM   15  C   UNL     1      21.578  51.477  48.334  1.00  0.00     0.001 A 
HETATM   16  C   UNL     1      22.275  50.271  48.221  1.00  0.00     0.020 A 
BRANCH  12  17
HETATM   17  O   UNL     1      19.535  47.925  49.087  1.00  0.00    -0.355 OA
HETATM   18  C   UNL     1      18.717  48.100  50.242  1.00  0.00     0.210 C 
ENDBRANCH  12  17
ENDBRANCH   8  11
ENDBRANCH   1   7
BRANCH   3  19
HETATM   19  C   UNL     1      26.675  44.371  50.508  1.00  0.00     0.087 C 
BRANCH  19  20
HETATM   20  C   UNL     1      26.529  43.759  51.900  1.00  0.00     0.048 C 
BRANCH  20  21
HETATM   21  C   UNL     1      27.834  43.254  52.437  1.00  0.00    -0.030 A 
HETATM   22  C   UNL     1      28.563  43.763  53.560  1.00  0.00    -0.002 A 
HETATM   23  C   UNL     1      29.700  42.970  53.716  1.00  0.00     0.042 A 
HETATM   24  C   UNL     1      28.353  44.820  54.470  1.00  0.00     0.014 A 
HETATM   25  C   UNL     1      30.635  43.175  54.737  1.00  0.00     0.030 A 
HETATM   26  N   UNL     1      29.674  42.025  52.718  1.00  0.00    -0.365 N 
HETATM   27  C   UNL     1      30.401  44.226  55.628  1.00  0.00     0.002 A 
HETATM   28  C   UNL     1      29.278  45.040  55.498  1.00  0.00     0.001 A 
HETATM   29  H   UNL     1      30.376  41.311  52.586  1.00  0.00     0.165 HD
HETATM   30  C   UNL     1      28.558  42.185  51.942  1.00  0.00     0.096 A 
ENDBRANCH  20  21
ENDBRANCH  19  20
ENDBRANCH   3  19
TORSDOF 6
ENDMDL
MODEL 9
REMARK VINA RESULT:      -8.2      4.706      7.062
REMARK  6 active torsions:
REMARK  status: ('A' for Active; 'I' for Inactive)
REMARK    1  A    between atoms: O_2  and  C_3 
REMARK    2  A    between atoms: C_4  and  C_5 
REMARK       I    between atoms: C_5  and  N_6 
REMARK    3  A    between atoms: N_6  and  C_7 
REMARK    4  A    between atoms: C_9  and  C_10 
REMARK    5  A    between atoms: C_10  and  C_11 
REMARK    6  A    between atoms: C_11  and  C_12 
ROOT
HETATM    1  C   UNL     1      26.375  42.754  50.024  1.00  0.00     0.725 A 
HETATM    2  N   UNL     1      26.507  43.395  51.159  1.00  0.00    -0.046 NA
HETATM    3  C   UNL     1      26.389  44.716  50.817  1.00  0.00     0.166 A 
HETATM    4  N   UNL     1      26.171  44.933  49.513  1.00  0.00    -0.144 NA
HETATM    5  N   UNL     1      26.179  43.678  49.034  1.00  0.00    -0.106 N 
HETATM    6  H   UNL     1      26.039  43.530  48.044  1.00  0.00     0.208 HD
ENDROOT
BRANCH   1   7
HETATM    7  N   UNL     1      26.422  41.403  49.772  1.00  0.00    -0.152 N 
HETATM    8  C   UNL     1      27.096  40.895  48.674  1.00  0.00     0.272 C 
HETATM    9  O   UNL     1      27.742  41.514  47.843  1.00  0.00    -0.267 OA
HETATM   10  H   UNL     1      25.918  40.775  50.378  1.00  0.00     0.187 HD
BRANCH   8  11
HETATM   11  C   UNL     1      26.979  39.420  48.537  1.00  0.00     0.066 A 
HETATM   12  C   UNL     1      27.682  38.546  49.378  1.00  0.00     0.084 A 
HETATM   13  C   UNL     1      27.494  37.166  49.260  1.00  0.00     0.038 A 
HETATM   14  C   UNL     1      26.638  36.651  48.285  1.00  0.00     0.003 A 
HETATM   15  C   UNL     1      25.946  37.514  47.438  1.00  0.00     0.001 A 
HETATM   16  C   UNL     1      26.106  38.896  47.567  1.00  0.00     0.020 A 
BRANCH  12  17
HETATM   17  O   UNL     1      28.511  38.950  50.390  1.00  0.00    -0.355 OA
HETATM   18  C   UNL     1      29.713  38.183  50.437  1.00  0.00     0.210 C 
ENDBRANCH  12  17
ENDBRANCH   8  11
ENDBRANCH   1   7
BRANCH   3  19
HETATM   19  C   UNL     1      26.477  45.789  51.841  1.00  0.00     0.087 C 
BRANCH  19  20
HETATM   20  C   UNL     1      26.104  45.329  53.249  1.00  0.00     0.048 C 
BRANCH  20  21
HETATM   21  C   UNL     1      27.194  45.602  54.241  1.00  0.00    -0.030 A 
HETATM   22  C   UNL     1      28.330  44.777  54.527  1.00  0.00    -0.002 A 
HETATM   23  C   UNL     1      29.096  45.437  55.489  1.00  0.00     0.042 A 
HETATM   24  C   UNL     1      28.787  43.532  54.046  1.00  0.00     0.014 A 
HETATM   25  C   UNL     1      30.296  44.920  55.991  1.00  0.00     0.030 A 
HETATM   26  N   UNL     1      28.444  46.610  55.789  1.00  0.00    -0.365 N 
HETATM   27  C   UNL     1      30.728  43.687  55.493  1.00  0.00     0.002 A 
HETATM   28  C   UNL     1      29.986  43.000  54.535  1.00  0.00     0.001 A 
HETATM   29  H   UNL     1      28.772  47.293  56.457  1.00  0.00     0.165 HD
HETATM   30  C   UNL     1      27.300  46.720  55.046  1.00  0.00     0.096 A 
ENDBRANCH  20  21
ENDBRANCH  19  20
ENDBRANCH   3  19
TORSDOF 6
ENDMDL
MODEL 10
REMARK VINA RESULT:      -8.1      2.355      3.388
REMARK  6 active torsions:
REMARK  status: ('A' for Active; 'I' for Inactive)
REMARK    1  A    between atoms: O_2  and  C_3 
REMARK    2  A    between atoms: C_4  and  C_5 
REMARK       I    between atoms: C_5  and  N_6 
REMARK    3  A    between atoms: N_6  and  C_7 
REMARK    4  A    between atoms: C_9  and  C_10 
REMARK    5  A    between atoms: C_10  and  C_11 
REMARK    6  A    between atoms: C_11  and  C_12 
ROOT
HETATM    1  C   UNL     1      23.429  46.467  49.114  1.00  0.00     0.725 A 
HETATM    2  N   UNL     1      24.666  46.658  49.500  1.00  0.00    -0.046 NA
HETATM    3  C   UNL     1      25.207  45.400  49.536  1.00  0.00     0.166 A 
HETATM    4  N   UNL     1      24.365  44.424  49.173  1.00  0.00    -0.144 NA
HETATM    5  N   UNL     1      23.245  45.124  48.923  1.00  0.00    -0.106 N 
HETATM    6  H   UNL     1      22.415  44.631  48.626  1.00  0.00     0.208 HD
ENDROOT
BRANCH   1   7
HETATM    7  N   UNL     1      22.422  47.382  48.920  1.00  0.00    -0.152 N 
HETATM    8  C   UNL     1      21.786  47.510  47.696  1.00  0.00     0.272 C 
HETATM    9  O   UNL     1      21.976  46.852  46.685  1.00  0.00    -0.267 OA
HETATM   10  H   UNL     1      22.171  48.002  49.676  1.00  0.00     0.187 HD
BRANCH   8  11
HETATM   11  C   UNL     1      20.771  48.595  47.665  1.00  0.00     0.066 A 
HETATM   12  C   UNL     1      21.094  49.912  48.021  1.00  0.00     0.084 A 
HETATM   13  C   UNL     1      20.127  50.917  47.915  1.00  0.00     0.038 A 
HETATM   14  C   UNL     1      18.833  50.610  47.492  1.00  0.00     0.003 A 
HETATM   15  C   UNL     1      18.504  49.301  47.148  1.00  0.00     0.001 A 
HETATM   16  C   UNL     1      19.471  48.295  47.224  1.00  0.00     0.020 A 
BRANCH  12  17
HETATM   17  O   UNL     1      22.341  50.324  48.408  1.00  0.00    -0.355 OA
HETATM   18  C   UNL     1      22.343  50.859  49.730  1.00  0.00     0.210 C 
ENDBRANCH  12  17
ENDBRANCH   8  11
ENDBRANCH   1   7
BRANCH   3  19
HETATM   19  C   UNL     1      26.624  45.180  49.928  1.00  0.00     0.087 C 
BRANCH  19  20
HETATM   20  C   UNL     1      26.829  43.970  50.840  1.00  0.00     0.048 C 
BRANCH  20  21
HETATM   21  C   UNL     1      27.252  44.369  52.221  1.00  0.00    -0.030 A 
HETATM   22  C   UNL     1      28.398  43.901  52.944  1.00  0.00    -0.002 A 
HETATM   23  C   UNL     1      28.417  44.562  54.172  1.00  0.00     0.042 A 
HETATM   24  C   UNL     1      29.430  42.982  52.661  1.00  0.00     0.014 A 
HETATM   25  C   UNL     1      29.418  44.358  55.129  1.00  0.00     0.030 A 
HETATM   26  N   UNL     1      27.319  45.389  54.203  1.00  0.00    -0.365 N 
HETATM   27  C   UNL     1      30.432  43.447  54.821  1.00  0.00     0.002 A 
HETATM   28  C   UNL     1      30.440  42.766  53.606  1.00  0.00     0.001 A 
HETATM   29  H   UNL     1      27.079  45.994  54.976  1.00  0.00     0.165 HD
HETATM   30  C   UNL     1      26.611  45.281  53.037  1.00  0.00     0.096 A 
ENDBRANCH  20  21
ENDBRANCH  19  20
ENDBRANCH   3  19
TORSDOF 6
ENDMDL
