MODEL 1
REMARK VINA RESULT:     -10.1      0.000      0.000
REMARK  5 active torsions:
REMARK  status: ('A' for Active; 'I' for Inactive)
REMARK    1  A    between atoms: C_6  and  C_7 
REMARK    2  A    between atoms: C_7  and  N_8 
REMARK    3  A    between atoms: C_17  and  C_18 
REMARK    4  A    between atoms: C_18  and  N_19 
REMARK    5  A    between atoms: C_22  and  C_23 
REMARK       I    between atoms: C_23  and  N_24 
ROOT
HETATM    1  N   UNL     1      27.035  45.402  53.112  1.00  0.00    -0.061 N 
HETATM    2  H   UNL     1      27.587  46.211  53.417  1.00  0.00     0.280 HD
HETATM    3  C   UNL     1      26.696  45.647  51.649  1.00  0.00     0.276 C 
HETATM    4  C   UNL     1      26.125  44.425  50.977  1.00  0.00     0.002 A 
HETATM    5  C   UNL     1      24.874  43.955  51.375  1.00  0.00     0.076 A 
HETATM    6  O   UNL     1      24.170  44.620  52.340  1.00  0.00    -0.349 OA
HETATM    7  C   UNL     1      24.741  44.377  53.639  1.00  0.00     0.203 C 
HETATM    8  C   UNL     1      25.798  45.429  54.003  1.00  0.00     0.262 C 
HETATM    9  C   UNL     1      26.879  43.651  50.075  1.00  0.00     0.020 A 
HETATM   10  C   UNL     1      26.396  42.417  49.590  1.00  0.00    -0.032 A 
HETATM   11  C   UNL     1      25.111  42.005  49.978  1.00  0.00     0.011 A 
HETATM   12  C   UNL     1      24.343  42.784  50.847  1.00  0.00     0.038 A 
ENDROOT
BRANCH  10  13
HETATM   13  C   UNL     1      27.333  41.505  48.823  1.00  0.00     0.273 C 
BRANCH  13  14
HETATM   14  N   UNL     1      27.840  40.277  49.528  1.00  0.00    -0.066 N 
HETATM   15  H   UNL     1      27.014  39.723  49.824  1.00  0.00     0.280 HD
HETATM   16  C   UNL     1      28.632  39.349  48.628  1.00  0.00     0.249 C 
HETATM   17  C   UNL     1      29.009  38.068  49.376  1.00  0.00     0.103 C 
HETATM   18  C   UNL     1      29.758  38.392  50.672  1.00  0.00     0.017 C 
HETATM   19  C   UNL     1      28.993  39.387  51.544  1.00  0.00     0.029 C 
HETATM   20  C   UNL     1      28.599  40.643  50.782  1.00  0.00     0.235 C 
BRANCH  17  21
HETATM   21  C   UNL     1      27.747  37.277  49.670  1.00  0.00     0.221 C 
HETATM   22  N   UNL     1      27.877  36.230  50.521  1.00  0.00    -0.370 N 
HETATM   23  H   UNL     1      28.758  35.906  50.903  1.00  0.00     0.159 HD
HETATM   24  H   UNL     1      27.054  35.681  50.755  1.00  0.00     0.159 HD
HETATM   25  O   UNL     1      26.656  37.626  49.221  1.00  0.00    -0.273 OA
ENDBRANCH  17  21
ENDBRANCH  13  14
ENDBRANCH  10  13
BRANCH   1  26
HETATM   26  C   UNL     1      27.937  44.203  53.271  1.00  0.00     0.274 C 
BRANCH  26  27
HETATM   27  C   UNL     1      28.987  44.263  54.342  1.00  0.00    -0.026 A 
HETATM   28  C   UNL     1      28.782  45.168  55.405  1.00  0.00     0.016 A 
HETATM   29  C   UNL     1      29.628  45.204  56.521  1.00  0.00    -0.056 A 
HETATM   30  C   UNL     1      30.699  44.301  56.587  1.00  0.00    -0.056 A 
HETATM   31  C   UNL     1      29.309  46.146  57.651  1.00  0.00     0.049 C 
HETATM   32  C   UNL     1      31.605  44.242  57.789  1.00  0.00     0.049 C 
HETATM   33  C   UNL     1      30.938  43.438  55.505  1.00  0.00     0.014 A 
HETATM   34  C   UNL     1      30.090  43.394  54.386  1.00  0.00    -0.053 A 
HETATM   35  C   UNL     1      30.410  42.412  53.292  1.00  0.00     0.049 C 
ENDBRANCH  26  27
ENDBRANCH   1  26
TORSDOF 5
ENDMDL
MODEL 2
REMARK VINA RESULT:      -9.8      3.252      6.609
REMARK  5 active torsions:
REMARK  status: ('A' for Active; 'I' for Inactive)
REMARK    1  A    between atoms: C_6  and  C_7 
REMARK    2  A    between atoms: C_7  and  N_8 
REMARK    3  A    between atoms: C_17  and  C_18 
REMARK    4  A    between atoms: C_18  and  N_19 
REMARK    5  A    between atoms: C_22  and  C_23 
REMARK       I    between atoms: C_23  and  N_24 
ROOT
HETATM    1  N   UNL     1      27.653  42.519  53.722  1.00  0.00    -0.061 N 
HETATM    2  H   UNL     1      27.590  42.301  54.722  1.00  0.00     0.280 HD
HETATM    3  C   UNL     1      26.270  42.997  53.304  1.00  0.00     0.276 C 
HETATM    4  C   UNL     1      26.265  43.619  51.931  1.00  0.00     0.002 A 
HETATM    5  C   UNL     1      26.519  42.814  50.822  1.00  0.00     0.076 A 
HETATM    6  O   UNL     1      26.736  41.474  50.986  1.00  0.00    -0.349 OA
HETATM    7  C   UNL     1      28.047  41.239  51.532  1.00  0.00     0.203 C 
HETATM    8  C   UNL     1      28.027  41.195  53.066  1.00  0.00     0.262 C 
HETATM    9  C   UNL     1      26.170  45.011  51.745  1.00  0.00     0.020 A 
HETATM   10  C   UNL     1      26.343  45.591  50.470  1.00  0.00    -0.032 A 
HETATM   11  C   UNL     1      26.548  44.739  49.373  1.00  0.00     0.011 A 
HETATM   12  C   UNL     1      26.610  43.354  49.545  1.00  0.00     0.038 A 
ENDROOT
BRANCH  10  13
HETATM   13  C   UNL     1      26.479  47.096  50.353  1.00  0.00     0.273 C 
BRANCH  13  14
HETATM   14  N   UNL     1      25.426  47.830  49.569  1.00  0.00    -0.066 N 
HETATM   15  H   UNL     1      25.130  47.214  48.788  1.00  0.00     0.280 HD
HETATM   16  C   UNL     1      24.160  48.095  50.361  1.00  0.00     0.249 C 
HETATM   17  C   UNL     1      23.093  48.732  49.467  1.00  0.00     0.103 C 
HETATM   18  C   UNL     1      23.627  49.999  48.794  1.00  0.00     0.017 C 
HETATM   19  C   UNL     1      24.944  49.748  48.060  1.00  0.00     0.029 C 
HETATM   20  C   UNL     1      25.987  49.089  48.949  1.00  0.00     0.235 C 
BRANCH  17  21
HETATM   21  C   UNL     1      22.649  47.719  48.427  1.00  0.00     0.221 C 
HETATM   22  N   UNL     1      21.727  48.143  47.528  1.00  0.00    -0.370 N 
HETATM   23  H   UNL     1      21.272  49.048  47.555  1.00  0.00     0.159 HD
HETATM   24  H   UNL     1      21.412  47.501  46.807  1.00  0.00     0.159 HD
HETATM   25  O   UNL     1      23.166  46.605  48.361  1.00  0.00    -0.273 OA
ENDBRANCH  17  21
ENDBRANCH  13  14
ENDBRANCH  10  13
BRANCH   1  26
HETATM   26  C   UNL     1      28.672  43.626  53.604  1.00  0.00     0.274 C 
BRANCH  26  27
HETATM   27  C   UNL     1      29.169  44.247  54.877  1.00  0.00    -0.026 A 
HETATM   28  C   UNL     1      30.238  43.609  55.541  1.00  0.00     0.016 A 
HETATM   29  C   UNL     1      30.864  44.178  56.656  1.00  0.00    -0.056 A 
HETATM   30  C   UNL     1      30.423  45.429  57.115  1.00  0.00    -0.056 A 
HETATM   31  C   UNL     1      32.045  43.477  57.272  1.00  0.00     0.049 C 
HETATM   32  C   UNL     1      31.097  46.127  58.267  1.00  0.00     0.049 C 
HETATM   33  C   UNL     1      29.323  46.040  56.491  1.00  0.00     0.014 A 
HETATM   34  C   UNL     1      28.695  45.475  55.369  1.00  0.00    -0.053 A 
HETATM   35  C   UNL     1      27.545  46.222  54.749  1.00  0.00     0.049 C 
ENDBRANCH  26  27
ENDBRANCH   1  26
TORSDOF 5
ENDMDL
MODEL 3
REMARK VINA RESULT:      -9.7      1.561      2.729
REMARK  5 active torsions:
REMARK  status: ('A' for Active; 'I' for Inactive)
REMARK    1  A    between atoms: C_6  and  C_7 
REMARK    2  A    between atoms: C_7  and  N_8 
REMARK    3  A    between atoms: C_17  and  C_18 
REMARK    4  A    between atoms: C_18  and  N_19 
REMARK    5  A    between atoms: C_22  and  C_23 
REMARK       I    between atoms: C_23  and  N_24 
ROOT
HETATM    1  N   UNL     1      26.153  46.124  51.267  1.00  0.00    -0.061 N 
HETATM    2  H   UNL     1      26.691  46.946  51.564  1.00  0.00     0.280 HD
HETATM    3  C   UNL     1      27.029  45.382  50.270  1.00  0.00     0.276 C 
HETATM    4  C   UNL     1      26.501  44.007  49.949  1.00  0.00     0.002 A 
HETATM    5  C   UNL     1      25.299  43.889  49.254  1.00  0.00     0.076 A 
HETATM    6  O   UNL     1      24.632  45.011  48.845  1.00  0.00    -0.349 OA
HETATM    7  C   UNL     1      23.993  45.653  49.964  1.00  0.00     0.203 C 
HETATM    8  C   UNL     1      24.902  46.704  50.616  1.00  0.00     0.262 C 
HETATM    9  C   UNL     1      27.098  42.841  50.465  1.00  0.00     0.020 A 
HETATM   10  C   UNL     1      26.492  41.577  50.302  1.00  0.00    -0.032 A 
HETATM   11  C   UNL     1      25.307  41.498  49.553  1.00  0.00     0.011 A 
HETATM   12  C   UNL     1      24.726  42.646  49.010  1.00  0.00     0.038 A 
ENDROOT
BRANCH  10  13
HETATM   13  C   UNL     1      27.031  40.391  51.077  1.00  0.00     0.273 C 
BRANCH  13  14
HETATM   14  N   UNL     1      27.826  39.366  50.316  1.00  0.00    -0.066 N 
HETATM   15  H   UNL     1      27.228  38.524  50.209  1.00  0.00     0.280 HD
HETATM   16  C   UNL     1      28.161  39.792  48.900  1.00  0.00     0.249 C 
HETATM   17  C   UNL     1      28.858  38.655  48.149  1.00  0.00     0.103 C 
HETATM   18  C   UNL     1      30.095  38.173  48.913  1.00  0.00     0.017 C 
HETATM   19  C   UNL     1      29.771  37.816  50.363  1.00  0.00     0.029 C 
HETATM   20  C   UNL     1      29.052  38.942  51.091  1.00  0.00     0.235 C 
BRANCH  17  21
HETATM   21  C   UNL     1      27.874  37.517  47.948  1.00  0.00     0.221 C 
HETATM   22  N   UNL     1      28.313  36.463  47.217  1.00  0.00    -0.370 N 
HETATM   23  H   UNL     1      29.209  36.425  46.745  1.00  0.00     0.159 HD
HETATM   24  H   UNL     1      27.691  35.674  47.069  1.00  0.00     0.159 HD
HETATM   25  O   UNL     1      26.772  37.524  48.493  1.00  0.00    -0.273 OA
ENDBRANCH  17  21
ENDBRANCH  13  14
ENDBRANCH  10  13
BRANCH   1  26
HETATM   26  C   UNL     1      25.930  45.306  52.515  1.00  0.00     0.274 C 
BRANCH  26  27
HETATM   27  C   UNL     1      26.961  45.403  53.601  1.00  0.00    -0.026 A 
HETATM   28  C   UNL     1      27.896  44.352  53.709  1.00  0.00     0.016 A 
HETATM   29  C   UNL     1      28.978  44.411  54.595  1.00  0.00    -0.056 A 
HETATM   30  C   UNL     1      29.144  45.558  55.386  1.00  0.00    -0.056 A 
HETATM   31  C   UNL     1      29.978  43.285  54.608  1.00  0.00     0.049 C 
HETATM   32  C   UNL     1      30.324  45.713  56.309  1.00  0.00     0.049 C 
HETATM   33  C   UNL     1      28.184  46.581  55.321  1.00  0.00     0.014 A 
HETATM   34  C   UNL     1      27.099  46.529  54.430  1.00  0.00    -0.053 A 
HETATM   35  C   UNL     1      26.142  47.690  54.410  1.00  0.00     0.049 C 
ENDBRANCH  26  27
ENDBRANCH   1  26
TORSDOF 5
ENDMDL
MODEL 4
REMARK VINA RESULT:      -9.7      3.842      7.417
REMARK  5 active torsions:
REMARK  status: ('A' for Active; 'I' for Inactive)
REMARK    1  A    between atoms: C_6  and  C_7 
REMARK    2  A    between atoms: C_7  and  N_8 
REMARK    3  A    between atoms: C_17  and  C_18 
REMARK    4  A    between atoms: C_18  and  N_19 
REMARK    5  A    between atoms: C_22  and  C_23 
REMARK       I    between atoms: C_23  and  N_24 
ROOT
HETATM    1  N   UNL     1      27.014  43.006  53.272  1.00  0.00    -0.061 N 
HETATM    2  H   UNL     1      27.038  42.669  54.240  1.00  0.00     0.280 HD
HETATM    3  C   UNL     1      25.550  43.266  52.949  1.00  0.00     0.276 C 
HETATM    4  C   UNL     1      25.369  44.026  51.661  1.00  0.00     0.002 A 
HETATM    5  C   UNL     1      25.712  43.412  50.457  1.00  0.00     0.076 A 
HETATM    6  O   UNL     1      26.174  42.125  50.455  1.00  0.00    -0.349 OA
HETATM    7  C   UNL     1      27.530  42.075  50.936  1.00  0.00     0.203 C 
HETATM    8  C   UNL     1      27.589  41.855  52.454  1.00  0.00     0.262 C 
HETATM    9  C   UNL     1      25.017  45.390  51.644  1.00  0.00     0.020 A 
HETATM   10  C   UNL     1      25.024  46.131  50.444  1.00  0.00    -0.032 A 
HETATM   11  C   UNL     1      25.327  45.460  49.248  1.00  0.00     0.011 A 
HETATM   12  C   UNL     1      25.645  44.100  49.252  1.00  0.00     0.038 A 
ENDROOT
BRANCH  10  13
HETATM   13  C   UNL     1      24.881  47.639  50.503  1.00  0.00     0.273 C 
BRANCH  13  14
HETATM   14  N   UNL     1      23.699  48.254  49.807  1.00  0.00    -0.066 N 
HETATM   15  H   UNL     1      23.146  48.764  50.522  1.00  0.00     0.280 HD
HETATM   16  C   UNL     1      24.082  49.305  48.783  1.00  0.00     0.249 C 
HETATM   17  C   UNL     1      22.831  49.974  48.207  1.00  0.00     0.103 C 
HETATM   18  C   UNL     1      21.871  48.930  47.629  1.00  0.00     0.017 C 
HETATM   19  C   UNL     1      21.545  47.828  48.637  1.00  0.00     0.029 C 
HETATM   20  C   UNL     1      22.795  47.192  49.225  1.00  0.00     0.235 C 
BRANCH  17  21
HETATM   21  C   UNL     1      22.152  50.780  49.299  1.00  0.00     0.221 C 
HETATM   22  N   UNL     1      20.952  51.327  48.987  1.00  0.00    -0.370 N 
HETATM   23  H   UNL     1      20.527  51.294  48.067  1.00  0.00     0.159 HD
HETATM   24  H   UNL     1      20.457  51.864  49.693  1.00  0.00     0.159 HD
HETATM   25  O   UNL     1      22.634  50.856  50.428  1.00  0.00    -0.273 OA
ENDBRANCH  17  21
ENDBRANCH  13  14
ENDBRANCH  10  13
BRANCH   1  26
HETATM   26  C   UNL     1      27.811  44.287  53.262  1.00  0.00     0.274 C 
BRANCH  26  27
HETATM   27  C   UNL     1      28.421  44.733  54.559  1.00  0.00    -0.026 A 
HETATM   28  C   UNL     1      29.528  44.005  55.044  1.00  0.00     0.016 A 
HETATM   29  C   UNL     1      30.253  44.418  56.168  1.00  0.00    -0.056 A 
HETATM   30  C   UNL     1      29.874  45.602  56.819  1.00  0.00    -0.056 A 
HETATM   31  C   UNL     1      31.466  43.631  56.588  1.00  0.00     0.049 C 
HETATM   32  C   UNL     1      30.653  46.138  57.992  1.00  0.00     0.049 C 
HETATM   33  C   UNL     1      28.740  46.299  56.373  1.00  0.00     0.014 A 
HETATM   34  C   UNL     1      28.012  45.891  55.242  1.00  0.00    -0.053 A 
HETATM   35  C   UNL     1      26.831  46.723  54.821  1.00  0.00     0.049 C 
ENDBRANCH  26  27
ENDBRANCH   1  26
TORSDOF 5
ENDMDL
MODEL 5
REMARK VINA RESULT:      -9.6      1.659      2.157
REMARK  5 active torsions:
REMARK  status: ('A' for Active; 'I' for Inactive)
REMARK    1  A    between atoms: C_6  and  C_7 
REMARK    2  A    between atoms: C_7  and  N_8 
REMARK    3  A    between atoms: C_17  and  C_18 
REMARK    4  A    between atoms: C_18  and  N_19 
REMARK    5  A    between atoms: C_22  and  C_23 
REMARK       I    between atoms: C_23  and  N_24 
ROOT
HETATM    1  N   UNL     1      27.195  45.530  51.541  1.00  0.00    -0.061 N 
HETATM    2  H   UNL     1      28.057  46.047  51.750  1.00  0.00     0.280 HD
HETATM    3  C   UNL     1      27.398  44.906  50.168  1.00  0.00     0.276 C 
HETATM    4  C   UNL     1      26.338  43.888  49.835  1.00  0.00     0.002 A 
HETATM    5  C   UNL     1      25.024  44.315  49.647  1.00  0.00     0.076 A 
HETATM    6  O   UNL     1      24.719  45.645  49.733  1.00  0.00    -0.349 OA
HETATM    7  C   UNL     1      24.726  46.077  51.106  1.00  0.00     0.203 C 
HETATM    8  C   UNL     1      26.105  46.595  51.535  1.00  0.00     0.262 C 
HETATM    9  C   UNL     1      26.598  42.505  49.866  1.00  0.00     0.020 A 
HETATM   10  C   UNL     1      25.557  41.562  49.725  1.00  0.00    -0.032 A 
HETATM   11  C   UNL     1      24.257  42.036  49.488  1.00  0.00     0.011 A 
HETATM   12  C   UNL     1      23.996  43.407  49.423  1.00  0.00     0.038 A 
ENDROOT
BRANCH  10  13
HETATM   13  C   UNL     1      25.839  40.100  50.008  1.00  0.00     0.273 C 
BRANCH  13  14
HETATM   14  N   UNL     1      27.035  39.480  49.341  1.00  0.00    -0.066 N 
HETATM   15  H   UNL     1      27.879  39.969  49.696  1.00  0.00     0.280 HD
HETATM   16  C   UNL     1      27.243  38.023  49.709  1.00  0.00     0.249 C 
HETATM   17  C   UNL     1      28.542  37.496  49.095  1.00  0.00     0.103 C 
HETATM   18  C   UNL     1      28.560  37.716  47.580  1.00  0.00     0.017 C 
HETATM   19  C   UNL     1      28.275  39.170  47.207  1.00  0.00     0.029 C 
HETATM   20  C   UNL     1      26.997  39.693  47.846  1.00  0.00     0.235 C 
BRANCH  17  21
HETATM   21  C   UNL     1      29.719  38.193  49.752  1.00  0.00     0.221 C 
HETATM   22  N   UNL     1      29.491  38.742  50.970  1.00  0.00    -0.370 N 
HETATM   23  H   UNL     1      28.585  38.779  51.423  1.00  0.00     0.159 HD
HETATM   24  H   UNL     1      30.256  39.207  51.451  1.00  0.00     0.159 HD
HETATM   25  O   UNL     1      30.836  38.182  49.236  1.00  0.00    -0.273 OA
ENDBRANCH  17  21
ENDBRANCH  13  14
ENDBRANCH  10  13
BRANCH   1  26
HETATM   26  C   UNL     1      27.080  44.472  52.611  1.00  0.00     0.274 C 
BRANCH  26  27
HETATM   27  C   UNL     1      28.256  44.280  53.524  1.00  0.00    -0.026 A 
HETATM   28  C   UNL     1      28.412  45.193  54.588  1.00  0.00     0.016 A 
HETATM   29  C   UNL     1      29.392  45.024  55.573  1.00  0.00    -0.056 A 
HETATM   30  C   UNL     1      30.230  43.901  55.507  1.00  0.00    -0.056 A 
HETATM   31  C   UNL     1      29.456  45.998  56.719  1.00  0.00     0.049 C 
HETATM   32  C   UNL     1      31.259  43.623  56.572  1.00  0.00     0.049 C 
HETATM   33  C   UNL     1      30.114  43.020  54.420  1.00  0.00     0.014 A 
HETATM   34  C   UNL     1      29.129  43.183  53.431  1.00  0.00    -0.053 A 
HETATM   35  C   UNL     1      29.062  42.168  52.323  1.00  0.00     0.049 C 
ENDBRANCH  26  27
ENDBRANCH   1  26
TORSDOF 5
ENDMDL
MODEL 6
REMARK VINA RESULT:      -9.1      3.088      5.967
REMARK  5 active torsions:
REMARK  status: ('A' for Active; 'I' for Inactive)
REMARK    1  A    between atoms: C_6  and  C_7 
REMARK    2  A    between atoms: C_7  and  N_8 
REMARK    3  A    between atoms: C_17  and  C_18 
REMARK    4  A    between atoms: C_18  and  N_19 
REMARK    5  A    between atoms: C_22  and  C_23 
REMARK       I    between atoms: C_23  and  N_24 
ROOT
HETATM    1  N   UNL     1      25.256  46.337  52.179  1.00  0.00    -0.061 N 
HETATM    2  H   UNL     1      24.426  46.941  52.169  1.00  0.00     0.280 HD
HETATM    3  C   UNL     1      24.739  44.908  52.240  1.00  0.00     0.276 C 
HETATM    4  C   UNL     1      25.821  43.891  51.982  1.00  0.00     0.002 A 
HETATM    5  C   UNL     1      26.852  43.749  52.909  1.00  0.00     0.076 A 
HETATM    6  O   UNL     1      26.854  44.503  54.049  1.00  0.00    -0.349 OA
HETATM    7  C   UNL     1      27.225  45.863  53.755  1.00  0.00     0.203 C 
HETATM    8  C   UNL     1      26.001  46.736  53.448  1.00  0.00     0.262 C 
HETATM    9  C   UNL     1      25.912  43.195  50.761  1.00  0.00     0.020 A 
HETATM   10  C   UNL     1      27.026  42.381  50.466  1.00  0.00    -0.032 A 
HETATM   11  C   UNL     1      28.018  42.227  51.448  1.00  0.00     0.011 A 
HETATM   12  C   UNL     1      27.918  42.889  52.675  1.00  0.00     0.038 A 
ENDROOT
BRANCH  10  13
HETATM   13  C   UNL     1      27.204  41.851  49.058  1.00  0.00     0.273 C 
BRANCH  13  14
HETATM   14  N   UNL     1      27.807  40.482  48.900  1.00  0.00    -0.066 N 
HETATM   15  H   UNL     1      28.796  40.538  49.214  1.00  0.00     0.280 HD
HETATM   16  C   UNL     1      27.171  39.436  49.795  1.00  0.00     0.249 C 
HETATM   17  C   UNL     1      27.914  38.103  49.673  1.00  0.00     0.103 C 
HETATM   18  C   UNL     1      27.983  37.647  48.214  1.00  0.00     0.017 C 
HETATM   19  C   UNL     1      28.555  38.730  47.300  1.00  0.00     0.029 C 
HETATM   20  C   UNL     1      27.828  40.058  47.450  1.00  0.00     0.235 C 
BRANCH  17  21
HETATM   21  C   UNL     1      29.308  38.258  50.254  1.00  0.00     0.221 C 
HETATM   22  N   UNL     1      29.408  38.978  51.398  1.00  0.00    -0.370 N 
HETATM   23  H   UNL     1      28.638  39.470  51.836  1.00  0.00     0.159 HD
HETATM   24  H   UNL     1      30.321  39.096  51.827  1.00  0.00     0.159 HD
HETATM   25  O   UNL     1      30.275  37.687  49.751  1.00  0.00    -0.273 OA
ENDBRANCH  17  21
ENDBRANCH  13  14
ENDBRANCH  10  13
BRANCH   1  26
HETATM   26  C   UNL     1      25.974  46.604  50.880  1.00  0.00     0.274 C 
BRANCH  26  27
HETATM   27  C   UNL     1      25.362  47.604  49.942  1.00  0.00    -0.026 A 
HETATM   28  C   UNL     1      23.959  47.593  49.802  1.00  0.00     0.016 A 
HETATM   29  C   UNL     1      23.280  48.568  49.062  1.00  0.00    -0.056 A 
HETATM   30  C   UNL     1      24.019  49.595  48.457  1.00  0.00    -0.056 A 
HETATM   31  C   UNL     1      21.775  48.536  49.013  1.00  0.00     0.049 C 
HETATM   32  C   UNL     1      23.345  50.713  47.705  1.00  0.00     0.049 C 
HETATM   33  C   UNL     1      25.420  49.578  48.548  1.00  0.00     0.014 A 
HETATM   34  C   UNL     1      26.106  48.604  49.293  1.00  0.00    -0.053 A 
HETATM   35  C   UNL     1      27.607  48.689  49.360  1.00  0.00     0.049 C 
ENDBRANCH  26  27
ENDBRANCH   1  26
TORSDOF 5
ENDMDL
MODEL 7
REMARK VINA RESULT:      -9.0      4.008      7.219
REMARK  5 active torsions:
REMARK  status: ('A' for Active; 'I' for Inactive)
REMARK    1  A    between atoms: C_6  and  C_7 
REMARK    2  A    between atoms: C_7  and  N_8 
REMARK    3  A    between atoms: C_17  and  C_18 
REMARK    4  A    between atoms: C_18  and  N_19 
REMARK    5  A    between atoms: C_22  and  C_23 
REMARK       I    between atoms: C_23  and  N_24 
ROOT
HETATM    1  N   UNL     1      26.545  42.704  52.482  1.00  0.00    -0.061 N 
HETATM    2  H   UNL     1      26.719  42.376  53.438  1.00  0.00     0.280 HD
HETATM    3  C   UNL     1      25.154  43.319  52.490  1.00  0.00     0.276 C 
HETATM    4  C   UNL     1      24.858  44.093  51.232  1.00  0.00     0.002 A 
HETATM    5  C   UNL     1      24.743  43.407  50.024  1.00  0.00     0.076 A 
HETATM    6  O   UNL     1      24.867  42.045  49.998  1.00  0.00    -0.349 OA
HETATM    7  C   UNL     1      26.245  41.661  50.156  1.00  0.00     0.203 C 
HETATM    8  C   UNL     1      26.613  41.441  51.629  1.00  0.00     0.262 C 
HETATM    9  C   UNL     1      24.852  45.501  51.209  1.00  0.00     0.020 A 
HETATM   10  C   UNL     1      24.749  46.212  49.994  1.00  0.00    -0.032 A 
HETATM   11  C   UNL     1      24.586  45.480  48.806  1.00  0.00     0.011 A 
HETATM   12  C   UNL     1      24.557  44.083  48.825  1.00  0.00     0.038 A 
ENDROOT
BRANCH  10  13
HETATM   13  C   UNL     1      24.992  47.707  49.987  1.00  0.00     0.273 C 
BRANCH  13  14
HETATM   14  N   UNL     1      24.064  48.560  49.166  1.00  0.00    -0.066 N 
HETATM   15  H   UNL     1      23.725  47.980  48.374  1.00  0.00     0.280 HD
HETATM   16  C   UNL     1      22.811  48.977  49.911  1.00  0.00     0.249 C 
HETATM   17  C   UNL     1      21.860  49.733  48.980  1.00  0.00     0.103 C 
HETATM   18  C   UNL     1      22.566  50.925  48.329  1.00  0.00     0.017 C 
HETATM   19  C   UNL     1      23.869  50.516  47.642  1.00  0.00     0.029 C 
HETATM   20  C   UNL     1      24.794  49.740  48.568  1.00  0.00     0.235 C 
BRANCH  17  21
HETATM   21  C   UNL     1      21.337  48.777  47.924  1.00  0.00     0.221 C 
HETATM   22  N   UNL     1      20.386  49.264  47.088  1.00  0.00    -0.370 N 
HETATM   23  H   UNL     1      19.962  50.180  47.173  1.00  0.00     0.159 HD
HETATM   24  H   UNL     1      20.018  48.661  46.359  1.00  0.00     0.159 HD
HETATM   25  O   UNL     1      21.815  47.652  47.789  1.00  0.00    -0.273 OA
ENDBRANCH  17  21
ENDBRANCH  13  14
ENDBRANCH  10  13
BRANCH   1  26
HETATM   26  C   UNL     1      27.601  43.745  52.205  1.00  0.00     0.274 C 
BRANCH  26  27
HETATM   27  C   UNL     1      28.354  44.297  53.380  1.00  0.00    -0.026 A 
HETATM   28  C   UNL     1      27.829  45.445  54.011  1.00  0.00     0.016 A 
HETATM   29  C   UNL     1      28.376  45.957  55.193  1.00  0.00    -0.056 A 
HETATM   30  C   UNL     1      29.469  45.297  55.774  1.00  0.00    -0.056 A 
HETATM   31  C   UNL     1      27.721  47.143  55.850  1.00  0.00     0.049 C 
HETATM   32  C   UNL     1      30.061  45.756  57.081  1.00  0.00     0.049 C 
HETATM   33  C   UNL     1      30.029  44.188  55.120  1.00  0.00     0.014 A 
HETATM   34  C   UNL     1      29.481  43.667  53.936  1.00  0.00    -0.053 A 
HETATM   35  C   UNL     1      30.131  42.455  53.327  1.00  0.00     0.049 C 
ENDBRANCH  26  27
ENDBRANCH   1  26
TORSDOF 5
ENDMDL
MODEL 8
REMARK VINA RESULT:      -8.8      7.897     11.794
REMARK  5 active torsions:
REMARK  status: ('A' for Active; 'I' for Inactive)
REMARK    1  A    between atoms: C_6  and  C_7 
REMARK    2  A    between atoms: C_7  and  N_8 
REMARK    3  A    between atoms: C_17  and  C_18 
REMARK    4  A    between atoms: C_18  and  N_19 
REMARK    5  A    between atoms: C_22  and  C_23 
REMARK       I    between atoms: C_23  and  N_24 
ROOT
HETATM    1  N   UNL     1      21.531  46.252  48.794  1.00  0.00    -0.061 N 
HETATM    2  H   UNL     1      21.828  45.934  49.723  1.00  0.00     0.280 HD
HETATM    3  C   UNL     1      20.065  45.866  48.661  1.00  0.00     0.276 C 
HETATM    4  C   UNL     1      19.405  46.507  47.468  1.00  0.00     0.002 A 
HETATM    5  C   UNL     1      19.807  46.131  46.188  1.00  0.00     0.076 A 
HETATM    6  O   UNL     1      20.764  45.167  46.028  1.00  0.00    -0.349 OA
HETATM    7  C   UNL     1      22.066  45.692  46.347  1.00  0.00     0.203 C 
HETATM    8  C   UNL     1      22.421  45.481  47.825  1.00  0.00     0.262 C 
HETATM    9  C   UNL     1      18.512  47.588  47.603  1.00  0.00     0.020 A 
HETATM   10  C   UNL     1      18.040  48.290  46.474  1.00  0.00    -0.032 A 
HETATM   11  C   UNL     1      18.431  47.845  45.201  1.00  0.00     0.011 A 
HETATM   12  C   UNL     1      19.291  46.754  45.058  1.00  0.00     0.038 A 
ENDROOT
BRANCH  10  13
HETATM   13  C   UNL     1      17.283  49.588  46.672  1.00  0.00     0.273 C 
BRANCH  13  14
HETATM   14  N   UNL     1      17.552  50.365  47.931  1.00  0.00    -0.066 N 
HETATM   15  H   UNL     1      17.745  49.679  48.687  1.00  0.00     0.280 HD
HETATM   16  C   UNL     1      18.798  51.225  47.856  1.00  0.00     0.249 C 
HETATM   17  C   UNL     1      19.076  51.886  49.208  1.00  0.00     0.103 C 
HETATM   18  C   UNL     1      17.858  52.679  49.690  1.00  0.00     0.017 C 
HETATM   19  C   UNL     1      16.586  51.831  49.694  1.00  0.00     0.029 C 
HETATM   20  C   UNL     1      16.336  51.156  48.354  1.00  0.00     0.235 C 
BRANCH  17  21
HETATM   21  C   UNL     1      19.452  50.815  50.216  1.00  0.00     0.221 C 
HETATM   22  N   UNL     1      20.752  50.777  50.599  1.00  0.00    -0.370 N 
HETATM   23  H   UNL     1      21.483  51.358  50.206  1.00  0.00     0.159 HD
HETATM   24  H   UNL     1      21.043  50.083  51.281  1.00  0.00     0.159 HD
HETATM   25  O   UNL     1      18.599  50.081  50.713  1.00  0.00    -0.273 OA
ENDBRANCH  17  21
ENDBRANCH  13  14
ENDBRANCH  10  13
BRANCH   1  26
HETATM   26  C   UNL     1      21.703  47.751  48.798  1.00  0.00     0.274 C 
BRANCH  26  27
HETATM   27  C   UNL     1      23.099  48.288  48.925  1.00  0.00    -0.026 A 
HETATM   28  C   UNL     1      24.029  47.520  49.656  1.00  0.00     0.016 A 
HETATM   29  C   UNL     1      25.386  47.860  49.719  1.00  0.00    -0.056 A 
HETATM   30  C   UNL     1      25.833  48.991  49.018  1.00  0.00    -0.056 A 
HETATM   31  C   UNL     1      26.335  46.956  50.460  1.00  0.00     0.049 C 
HETATM   32  C   UNL     1      27.290  49.373  48.988  1.00  0.00     0.049 C 
HETATM   33  C   UNL     1      24.901  49.788  48.335  1.00  0.00     0.014 A 
HETATM   34  C   UNL     1      23.539  49.448  48.265  1.00  0.00    -0.053 A 
HETATM   35  C   UNL     1      22.623  50.348  47.481  1.00  0.00     0.049 C 
ENDBRANCH  26  27
ENDBRANCH   1  26
TORSDOF 5
ENDMDL
MODEL 9
REMARK VINA RESULT:      -8.7      2.287      6.035
REMARK  5 active torsions:
REMARK  status: ('A' for Active; 'I' for Inactive)
REMARK    1  A    between atoms: C_6  and  C_7 
REMARK    2  A    between atoms: C_7  and  N_8 
REMARK    3  A    between atoms: C_17  and  C_18 
REMARK    4  A    between atoms: C_18  and  N_19 
REMARK    5  A    between atoms: C_22  and  C_23 
REMARK       I    between atoms: C_23  and  N_24 
ROOT
HETATM    1  N   UNL     1      27.917  40.951  51.884  1.00  0.00    -0.061 N 
HETATM    2  H   UNL     1      28.168  40.858  52.874  1.00  0.00     0.280 HD
HETATM    3  C   UNL     1      26.444  40.580  51.782  1.00  0.00     0.276 C 
HETATM    4  C   UNL     1      25.851  40.932  50.443  1.00  0.00     0.002 A 
HETATM    5  C   UNL     1      26.287  40.249  49.308  1.00  0.00     0.076 A 
HETATM    6  O   UNL     1      27.216  39.253  49.426  1.00  0.00    -0.349 OA
HETATM    7  C   UNL     1      28.523  39.807  49.667  1.00  0.00     0.203 C 
HETATM    8  C   UNL     1      28.815  39.949  51.167  1.00  0.00     0.262 C 
HETATM    9  C   UNL     1      24.992  42.035  50.275  1.00  0.00     0.020 A 
HETATM   10  C   UNL     1      24.586  42.457  48.992  1.00  0.00    -0.032 A 
HETATM   11  C   UNL     1      25.009  41.710  47.880  1.00  0.00     0.011 A 
HETATM   12  C   UNL     1      25.835  40.595  48.040  1.00  0.00     0.038 A 
ENDROOT
BRANCH  10  13
HETATM   13  C   UNL     1      23.868  43.783  48.840  1.00  0.00     0.273 C 
BRANCH  13  14
HETATM   14  N   UNL     1      24.594  45.022  49.282  1.00  0.00    -0.066 N 
HETATM   15  H   UNL     1      24.398  45.766  48.585  1.00  0.00     0.280 HD
HETATM   16  C   UNL     1      24.091  45.578  50.600  1.00  0.00     0.249 C 
HETATM   17  C   UNL     1      24.788  46.902  50.924  1.00  0.00     0.103 C 
HETATM   18  C   UNL     1      26.310  46.736  50.913  1.00  0.00     0.017 C 
HETATM   19  C   UNL     1      26.810  46.105  49.614  1.00  0.00     0.029 C 
HETATM   20  C   UNL     1      26.090  44.805  49.286  1.00  0.00     0.235 C 
BRANCH  17  21
HETATM   21  C   UNL     1      24.355  47.950  49.915  1.00  0.00     0.221 C 
HETATM   22  N   UNL     1      23.036  47.982  49.608  1.00  0.00    -0.370 N 
HETATM   23  H   UNL     1      22.351  47.315  49.946  1.00  0.00     0.159 HD
HETATM   24  H   UNL     1      22.701  48.676  48.946  1.00  0.00     0.159 HD
HETATM   25  O   UNL     1      25.153  48.775  49.471  1.00  0.00    -0.273 OA
ENDBRANCH  17  21
ENDBRANCH  13  14
ENDBRANCH  10  13
BRANCH   1  26
HETATM   26  C   UNL     1      28.139  42.403  51.537  1.00  0.00     0.274 C 
BRANCH  26  27
HETATM   27  C   UNL     1      28.257  43.376  52.674  1.00  0.00    -0.026 A 
HETATM   28  C   UNL     1      27.137  44.185  52.958  1.00  0.00     0.016 A 
HETATM   29  C   UNL     1      27.093  45.024  54.078  1.00  0.00    -0.056 A 
HETATM   30  C   UNL     1      28.192  45.045  54.950  1.00  0.00    -0.056 A 
HETATM   31  C   UNL     1      25.838  45.807  54.359  1.00  0.00     0.049 C 
HETATM   32  C   UNL     1      28.181  45.874  56.209  1.00  0.00     0.049 C 
HETATM   33  C   UNL     1      29.330  44.284  54.641  1.00  0.00     0.014 A 
HETATM   34  C   UNL     1      29.377  43.437  53.521  1.00  0.00    -0.053 A 
HETATM   35  C   UNL     1      30.628  42.634  53.291  1.00  0.00     0.049 C 
ENDBRANCH  26  27
ENDBRANCH   1  26
TORSDOF 5
ENDMDL
MODEL 10
REMARK VINA RESULT:      -8.2      2.118      2.911
REMARK  5 active torsions:
REMARK  status: ('A' for Active; 'I' for Inactive)
REMARK    1  A    between atoms: C_6  and  C_7 
REMARK    2  A    between atoms: C_7  and  N_8 
REMARK    3  A    between atoms: C_17  and  C_18 
REMARK    4  A    between atoms: C_18  and  N_19 
REMARK    5  A    between atoms: C_22  and  C_23 
REMARK       I    between atoms: C_23  and  N_24 
ROOT
HETATM    1  N   UNL     1      26.345  46.077  51.007  1.00  0.00    -0.061 N 
HETATM    2  H   UNL     1      27.044  46.777  51.276  1.00  0.00     0.280 HD
HETATM    3  C   UNL     1      26.887  45.391  49.762  1.00  0.00     0.276 C 
HETATM    4  C   UNL     1      26.112  44.150  49.402  1.00  0.00     0.002 A 
HETATM    5  C   UNL     1      24.791  44.276  48.977  1.00  0.00     0.076 A 
HETATM    6  O   UNL     1      24.226  45.516  48.859  1.00  0.00    -0.349 OA
HETATM    7  C   UNL     1      23.923  46.057  50.158  1.00  0.00     0.203 C 
HETATM    8  C   UNL     1      25.086  46.887  50.717  1.00  0.00     0.262 C 
HETATM    9  C   UNL     1      26.624  42.859  49.634  1.00  0.00     0.020 A 
HETATM   10  C   UNL     1      25.821  41.712  49.458  1.00  0.00    -0.032 A 
HETATM   11  C   UNL     1      24.511  41.883  48.980  1.00  0.00     0.011 A 
HETATM   12  C   UNL     1      24.007  43.158  48.716  1.00  0.00     0.038 A 
ENDROOT
BRANCH  10  13
HETATM   13  C   UNL     1      26.326  40.371  49.950  1.00  0.00     0.273 C 
BRANCH  13  14
HETATM   14  N   UNL     1      26.708  39.349  48.915  1.00  0.00    -0.066 N 
HETATM   15  H   UNL     1      25.924  39.282  48.237  1.00  0.00     0.280 HD
HETATM   16  C   UNL     1      27.911  39.751  48.085  1.00  0.00     0.249 C 
HETATM   17  C   UNL     1      28.164  38.726  46.976  1.00  0.00     0.103 C 
HETATM   18  C   UNL     1      28.311  37.317  47.557  1.00  0.00     0.017 C 
HETATM   19  C   UNL     1      27.133  36.941  48.455  1.00  0.00     0.029 C 
HETATM   20  C   UNL     1      26.872  37.980  49.535  1.00  0.00     0.235 C 
BRANCH  17  21
HETATM   21  C   UNL     1      27.020  38.780  45.981  1.00  0.00     0.221 C 
HETATM   22  N   UNL     1      27.088  37.918  44.937  1.00  0.00    -0.370 N 
HETATM   23  H   UNL     1      27.875  37.309  44.745  1.00  0.00     0.159 HD
HETATM   24  H   UNL     1      26.336  37.913  44.254  1.00  0.00     0.159 HD
HETATM   25  O   UNL     1      26.048  39.510  46.167  1.00  0.00    -0.273 OA
ENDBRANCH  17  21
ENDBRANCH  13  14
ENDBRANCH  10  13
BRANCH   1  26
HETATM   26  C   UNL     1      26.259  45.115  52.167  1.00  0.00     0.274 C 
BRANCH  26  27
HETATM   27  C   UNL     1      27.109  45.404  53.370  1.00  0.00    -0.026 A 
HETATM   28  C   UNL     1      26.781  46.537  54.144  1.00  0.00     0.016 A 
HETATM   29  C   UNL     1      27.421  46.817  55.357  1.00  0.00    -0.056 A 
HETATM   30  C   UNL     1      28.406  45.933  55.821  1.00  0.00    -0.056 A 
HETATM   31  C   UNL     1      26.972  48.005  56.166  1.00  0.00     0.049 C 
HETATM   32  C   UNL     1      29.085  46.139  57.151  1.00  0.00     0.049 C 
HETATM   33  C   UNL     1      28.774  44.835  55.027  1.00  0.00     0.014 A 
HETATM   34  C   UNL     1      28.131  44.547  53.812  1.00  0.00    -0.053 A 
HETATM   35  C   UNL     1      28.573  43.328  53.048  1.00  0.00     0.049 C 
ENDBRANCH  26  27
ENDBRANCH   1  26
TORSDOF 5
ENDMDL
