MODEL 1
REMARK VINA RESULT:      -9.8      0.000      0.000
REMARK  4 active torsions:
REMARK  status: ('A' for Active; 'I' for Inactive)
REMARK    1  A    between atoms: C_6  and  C_7 
REMARK    2  A    between atoms: C_7  and  C_8 
REMARK    3  A    between atoms: C_18  and  N_19 
REMARK    4  A    between atoms: C_21  and  C_22 
ROOT
HETATM    1  C   UNL     1      30.201  42.744  53.386  1.00  0.00     0.049 C 
HETATM    2  C   UNL     1      29.531  43.785  54.240  1.00  0.00    -0.044 A 
HETATM    3  C   UNL     1      28.315  44.439  53.897  1.00  0.00     0.033 A 
HETATM    4  C   UNL     1      27.846  45.392  54.797  1.00  0.00     0.112 A 
HETATM    5  S   UNL     1      26.403  46.139  54.298  1.00  0.00    -0.063 SA
HETATM    6  C   UNL     1      26.360  45.250  52.840  1.00  0.00     0.085 A 
HETATM    7  C   UNL     1      27.406  44.344  52.782  1.00  0.00     0.060 A 
HETATM    8  N   UNL     1      28.402  45.753  55.970  1.00  0.00    -0.236 NA
HETATM    9  C   UNL     1      29.544  45.102  56.288  1.00  0.00     0.142 A 
HETATM   10  C   UNL     1      30.123  44.133  55.467  1.00  0.00     0.044 A 
ENDROOT
BRANCH   6  11
HETATM   11  C   UNL     1      25.274  45.402  51.880  1.00  0.00     0.201 C 
HETATM   12  O   UNL     1      24.329  44.613  51.819  1.00  0.00    -0.286 OA
BRANCH  11  13
HETATM   13  C   UNL     1      25.267  46.514  50.888  1.00  0.00     0.018 A 
HETATM   14  C   UNL     1      26.480  47.165  50.615  1.00  0.00     0.055 A 
HETATM   15  C   UNL     1      26.454  48.218  49.726  1.00  0.00     0.106 A 
HETATM   16  C   UNL     1      25.289  48.634  49.126  1.00  0.00     0.105 A 
HETATM   17  O   UNL     1      27.528  48.959  49.343  1.00  0.00    -0.323 OA
HETATM   18  O   UNL     1      25.485  49.688  48.289  1.00  0.00    -0.323 OA
HETATM   19  C   UNL     1      24.079  48.027  49.385  1.00  0.00     0.040 A 
HETATM   20  C   UNL     1      26.905  49.896  48.439  1.00  0.00     0.352 A 
HETATM   21  C   UNL     1      24.067  46.958  50.288  1.00  0.00     0.018 A 
ENDBRANCH  11  13
ENDBRANCH   6  11
BRANCH   7  22
HETATM   22  N   UNL     1      27.543  43.468  51.753  1.00  0.00    -0.397 N 
HETATM   23  H   UNL     1      27.702  43.848  50.815  1.00  0.00     0.156 HD
HETATM   24  H   UNL     1      26.990  42.619  51.714  1.00  0.00     0.156 HD
ENDBRANCH   7  22
BRANCH   9  25
HETATM   25  C   UNL     1      30.240  45.435  57.603  1.00  0.00     0.434 C 
HETATM   26  F   UNL     1      30.933  46.608  57.595  1.00  0.00    -0.165 F 
HETATM   27  F   UNL     1      29.363  45.528  58.645  1.00  0.00    -0.165 F 
HETATM   28  F   UNL     1      31.140  44.475  57.972  1.00  0.00    -0.165 F 
ENDBRANCH   9  25
TORSDOF 4
ENDMDL
MODEL 2
REMARK VINA RESULT:      -9.0      1.899      2.973
REMARK  4 active torsions:
REMARK  status: ('A' for Active; 'I' for Inactive)
REMARK    1  A    between atoms: C_6  and  C_7 
REMARK    2  A    between atoms: C_7  and  C_8 
REMARK    3  A    between atoms: C_18  and  N_19 
REMARK    4  A    between atoms: C_21  and  C_22 
ROOT
HETATM    1  C   UNL     1      27.612  47.292  56.007  1.00  0.00     0.049 C 
HETATM    2  C   UNL     1      28.026  46.114  55.170  1.00  0.00    -0.044 A 
HETATM    3  C   UNL     1      27.414  45.755  53.937  1.00  0.00     0.033 A 
HETATM    4  C   UNL     1      27.911  44.621  53.302  1.00  0.00     0.112 A 
HETATM    5  S   UNL     1      27.109  44.253  51.849  1.00  0.00    -0.063 SA
HETATM    6  C   UNL     1      26.036  45.572  52.022  1.00  0.00     0.085 A 
HETATM    7  C   UNL     1      26.346  46.318  53.147  1.00  0.00     0.060 A 
HETATM    8  N   UNL     1      28.923  43.831  53.712  1.00  0.00    -0.236 NA
HETATM    9  C   UNL     1      29.507  44.204  54.874  1.00  0.00     0.142 A 
HETATM   10  C   UNL     1      29.095  45.315  55.612  1.00  0.00     0.044 A 
ENDROOT
BRANCH   6  11
HETATM   11  C   UNL     1      25.021  45.872  51.020  1.00  0.00     0.201 C 
HETATM   12  O   UNL     1      24.085  45.107  50.778  1.00  0.00    -0.286 OA
BRANCH  11  13
HETATM   13  C   UNL     1      25.081  47.117  50.205  1.00  0.00     0.018 A 
HETATM   14  C   UNL     1      23.876  47.661  49.736  1.00  0.00     0.055 A 
HETATM   15  C   UNL     1      23.947  48.791  48.950  1.00  0.00     0.106 A 
HETATM   16  C   UNL     1      25.148  49.371  48.619  1.00  0.00     0.105 A 
HETATM   17  O   UNL     1      22.886  49.451  48.413  1.00  0.00    -0.323 OA
HETATM   18  O   UNL     1      24.994  50.470  47.834  1.00  0.00    -0.323 OA
HETATM   19  C   UNL     1      26.351  48.852  49.049  1.00  0.00     0.040 A 
HETATM   20  C   UNL     1      23.558  50.510  47.699  1.00  0.00     0.352 A 
HETATM   21  C   UNL     1      26.316  47.701  49.844  1.00  0.00     0.018 A 
ENDBRANCH  11  13
ENDBRANCH   6  11
BRANCH   7  22
HETATM   22  N   UNL     1      25.683  47.461  53.457  1.00  0.00    -0.397 N 
HETATM   23  H   UNL     1      26.049  48.346  53.091  1.00  0.00     0.156 HD
HETATM   24  H   UNL     1      25.265  47.589  54.371  1.00  0.00     0.156 HD
ENDBRANCH   7  22
BRANCH   9  25
HETATM   25  C   UNL     1      30.669  43.377  55.413  1.00  0.00     0.434 C 
HETATM   26  F   UNL     1      30.331  42.495  56.395  1.00  0.00    -0.165 F 
HETATM   27  F   UNL     1      31.273  42.635  54.438  1.00  0.00    -0.165 F 
HETATM   28  F   UNL     1      31.660  44.156  55.939  1.00  0.00    -0.165 F 
ENDBRANCH   9  25
TORSDOF 4
ENDMDL
MODEL 3
REMARK VINA RESULT:      -8.8      3.773      5.204
REMARK  4 active torsions:
REMARK  status: ('A' for Active; 'I' for Inactive)
REMARK    1  A    between atoms: C_6  and  C_7 
REMARK    2  A    between atoms: C_7  and  C_8 
REMARK    3  A    between atoms: C_18  and  N_19 
REMARK    4  A    between atoms: C_21  and  C_22 
ROOT
HETATM    1  C   UNL     1      28.243  46.993  55.132  1.00  0.00     0.049 C 
HETATM    2  C   UNL     1      28.766  45.584  55.101  1.00  0.00    -0.044 A 
HETATM    3  C   UNL     1      28.294  44.575  54.215  1.00  0.00     0.033 A 
HETATM    4  C   UNL     1      28.879  43.318  54.336  1.00  0.00     0.112 A 
HETATM    5  S   UNL     1      28.242  42.170  53.255  1.00  0.00    -0.063 SA
HETATM    6  C   UNL     1      27.131  43.292  52.603  1.00  0.00     0.085 A 
HETATM    7  C   UNL     1      27.306  44.546  53.165  1.00  0.00     0.060 A 
HETATM    8  N   UNL     1      29.857  42.948  55.186  1.00  0.00    -0.236 NA
HETATM    9  C   UNL     1      30.307  43.928  56.003  1.00  0.00     0.142 A 
HETATM   10  C   UNL     1      29.797  45.228  55.987  1.00  0.00     0.044 A 
ENDROOT
BRANCH   6  11
HETATM   11  C   UNL     1      26.222  42.932  51.523  1.00  0.00     0.201 C 
HETATM   12  O   UNL     1      25.122  43.471  51.376  1.00  0.00    -0.286 OA
BRANCH  11  13
HETATM   13  C   UNL     1      26.564  41.859  50.548  1.00  0.00     0.018 A 
HETATM   14  C   UNL     1      27.173  42.231  49.340  1.00  0.00     0.055 A 
HETATM   15  C   UNL     1      27.450  41.234  48.429  1.00  0.00     0.106 A 
HETATM   16  C   UNL     1      27.137  39.918  48.675  1.00  0.00     0.105 A 
HETATM   17  O   UNL     1      28.036  41.409  47.215  1.00  0.00    -0.323 OA
HETATM   18  O   UNL     1      27.489  39.101  47.647  1.00  0.00    -0.323 OA
HETATM   19  C   UNL     1      26.523  39.521  49.844  1.00  0.00     0.040 A 
HETATM   20  C   UNL     1      28.050  40.054  46.721  1.00  0.00     0.352 A 
HETATM   21  C   UNL     1      26.222  40.509  50.789  1.00  0.00     0.018 A 
ENDBRANCH  11  13
ENDBRANCH   6  11
BRANCH   7  22
HETATM   22  N   UNL     1      26.591  45.624  52.754  1.00  0.00    -0.397 N 
HETATM   23  H   UNL     1      26.399  46.365  53.437  1.00  0.00     0.156 HD
HETATM   24  H   UNL     1      25.823  45.523  52.101  1.00  0.00     0.156 HD
ENDBRANCH   7  22
BRANCH   9  25
HETATM   25  C   UNL     1      31.422  43.607  56.992  1.00  0.00     0.434 C 
HETATM   26  F   UNL     1      32.678  43.662  56.468  1.00  0.00    -0.165 F 
HETATM   27  F   UNL     1      31.427  44.458  58.062  1.00  0.00    -0.165 F 
HETATM   28  F   UNL     1      31.297  42.356  57.527  1.00  0.00    -0.165 F 
ENDBRANCH   9  25
TORSDOF 4
ENDMDL
MODEL 4
REMARK VINA RESULT:      -8.3      3.792      5.610
REMARK  4 active torsions:
REMARK  status: ('A' for Active; 'I' for Inactive)
REMARK    1  A    between atoms: C_6  and  C_7 
REMARK    2  A    between atoms: C_7  and  C_8 
REMARK    3  A    between atoms: C_18  and  N_19 
REMARK    4  A    between atoms: C_21  and  C_22 
ROOT
HETATM    1  C   UNL     1      28.062  46.910  55.267  1.00  0.00     0.049 C 
HETATM    2  C   UNL     1      28.647  45.527  55.177  1.00  0.00    -0.044 A 
HETATM    3  C   UNL     1      28.212  44.534  54.256  1.00  0.00     0.033 A 
HETATM    4  C   UNL     1      28.853  43.300  54.325  1.00  0.00     0.112 A 
HETATM    5  S   UNL     1      28.258  42.167  53.205  1.00  0.00    -0.063 SA
HETATM    6  C   UNL     1      27.092  43.263  52.605  1.00  0.00     0.085 A 
HETATM    7  C   UNL     1      27.216  44.500  53.214  1.00  0.00     0.060 A 
HETATM    8  N   UNL     1      29.854  42.942  55.152  1.00  0.00    -0.236 NA
HETATM    9  C   UNL     1      30.268  43.909  56.003  1.00  0.00     0.142 A 
HETATM   10  C   UNL     1      29.701  45.184  56.041  1.00  0.00     0.044 A 
ENDROOT
BRANCH   6  11
HETATM   11  C   UNL     1      26.190  42.904  51.518  1.00  0.00     0.201 C 
HETATM   12  O   UNL     1      25.064  43.393  51.404  1.00  0.00    -0.286 OA
BRANCH  11  13
HETATM   13  C   UNL     1      26.573  41.890  50.496  1.00  0.00     0.018 A 
HETATM   14  C   UNL     1      26.303  40.541  50.769  1.00  0.00     0.055 A 
HETATM   15  C   UNL     1      26.697  39.608  49.833  1.00  0.00     0.106 A 
HETATM   16  C   UNL     1      27.342  39.969  48.674  1.00  0.00     0.105 A 
HETATM   17  O   UNL     1      26.517  38.263  49.929  1.00  0.00    -0.323 OA
HETATM   18  O   UNL     1      27.646  38.898  47.894  1.00  0.00    -0.323 OA
HETATM   19  C   UNL     1      27.637  41.285  48.384  1.00  0.00     0.040 A 
HETATM   20  C   UNL     1      27.129  37.818  48.700  1.00  0.00     0.352 A 
HETATM   21  C   UNL     1      27.256  42.257  49.315  1.00  0.00     0.018 A 
ENDBRANCH  11  13
ENDBRANCH   6  11
BRANCH   7  22
HETATM   22  N   UNL     1      26.451  45.561  52.850  1.00  0.00    -0.397 N 
HETATM   23  H   UNL     1      25.867  46.002  53.568  1.00  0.00     0.156 HD
HETATM   24  H   UNL     1      26.000  45.592  51.943  1.00  0.00     0.156 HD
ENDBRANCH   7  22
BRANCH   9  25
HETATM   25  C   UNL     1      31.405  43.601  56.971  1.00  0.00     0.434 C 
HETATM   26  F   UNL     1      31.538  44.494  57.991  1.00  0.00    -0.165 F 
HETATM   27  F   UNL     1      31.266  42.378  57.562  1.00  0.00    -0.165 F 
HETATM   28  F   UNL     1      32.621  43.565  56.348  1.00  0.00    -0.165 F 
ENDBRANCH   9  25
TORSDOF 4
ENDMDL
MODEL 5
REMARK VINA RESULT:      -8.3      5.393      8.380
REMARK  4 active torsions:
REMARK  status: ('A' for Active; 'I' for Inactive)
REMARK    1  A    between atoms: C_6  and  C_7 
REMARK    2  A    between atoms: C_7  and  C_8 
REMARK    3  A    between atoms: C_18  and  N_19 
REMARK    4  A    between atoms: C_21  and  C_22 
ROOT
HETATM    1  C   UNL     1      26.795  50.137  48.387  1.00  0.00     0.049 C 
HETATM    2  C   UNL     1      25.549  49.420  48.828  1.00  0.00    -0.044 A 
HETATM    3  C   UNL     1      25.525  48.082  49.310  1.00  0.00     0.033 A 
HETATM    4  C   UNL     1      24.279  47.569  49.658  1.00  0.00     0.112 A 
HETATM    5  S   UNL     1      24.339  45.959  50.202  1.00  0.00    -0.063 SA
HETATM    6  C   UNL     1      26.028  45.863  49.961  1.00  0.00     0.085 A 
HETATM    7  C   UNL     1      26.537  47.080  49.537  1.00  0.00     0.060 A 
HETATM    8  N   UNL     1      23.090  48.202  49.611  1.00  0.00    -0.236 NA
HETATM    9  C   UNL     1      23.139  49.481  49.172  1.00  0.00     0.142 A 
HETATM   10  C   UNL     1      24.324  50.108  48.784  1.00  0.00     0.044 A 
ENDROOT
BRANCH   6  11
HETATM   11  C   UNL     1      26.782  44.659  50.283  1.00  0.00     0.201 C 
HETATM   12  O   UNL     1      26.881  43.711  49.501  1.00  0.00    -0.286 OA
BRANCH  11  13
HETATM   13  C   UNL     1      27.452  44.495  51.604  1.00  0.00     0.018 A 
HETATM   14  C   UNL     1      28.596  43.686  51.670  1.00  0.00     0.055 A 
HETATM   15  C   UNL     1      29.186  43.510  52.903  1.00  0.00     0.106 A 
HETATM   16  C   UNL     1      28.677  44.091  54.041  1.00  0.00     0.105 A 
HETATM   17  O   UNL     1      30.295  42.765  53.154  1.00  0.00    -0.323 OA
HETATM   18  O   UNL     1      29.404  43.786  55.148  1.00  0.00    -0.323 OA
HETATM   19  C   UNL     1      27.545  44.878  54.013  1.00  0.00     0.040 A 
HETATM   20  C   UNL     1      30.423  42.937  54.581  1.00  0.00     0.352 A 
HETATM   21  C   UNL     1      26.918  45.073  52.777  1.00  0.00     0.018 A 
ENDBRANCH  11  13
ENDBRANCH   6  11
BRANCH   7  22
HETATM   22  N   UNL     1      27.867  47.277  49.350  1.00  0.00    -0.397 N 
HETATM   23  H   UNL     1      28.519  46.628  49.802  1.00  0.00     0.156 HD
HETATM   24  H   UNL     1      28.254  48.213  49.307  1.00  0.00     0.156 HD
ENDBRANCH   7  22
BRANCH   9  25
HETATM   25  C   UNL     1      21.845  50.283  49.094  1.00  0.00     0.434 C 
HETATM   26  F   UNL     1      21.482  50.887  50.260  1.00  0.00    -0.165 F 
HETATM   27  F   UNL     1      21.907  51.279  48.162  1.00  0.00    -0.165 F 
HETATM   28  F   UNL     1      20.778  49.512  48.728  1.00  0.00    -0.165 F 
ENDBRANCH   9  25
TORSDOF 4
ENDMDL
MODEL 6
REMARK VINA RESULT:      -8.0      5.554      8.163
REMARK  4 active torsions:
REMARK  status: ('A' for Active; 'I' for Inactive)
REMARK    1  A    between atoms: C_6  and  C_7 
REMARK    2  A    between atoms: C_7  and  C_8 
REMARK    3  A    between atoms: C_18  and  N_19 
REMARK    4  A    between atoms: C_21  and  C_22 
ROOT
HETATM    1  C   UNL     1      25.080  41.231  49.278  1.00  0.00     0.049 C 
HETATM    2  C   UNL     1      26.354  40.752  49.918  1.00  0.00    -0.044 A 
HETATM    3  C   UNL     1      27.062  41.468  50.923  1.00  0.00     0.033 A 
HETATM    4  C   UNL     1      28.236  40.885  51.391  1.00  0.00     0.112 A 
HETATM    5  S   UNL     1      29.029  41.817  52.572  1.00  0.00    -0.063 SA
HETATM    6  C   UNL     1      27.858  43.059  52.483  1.00  0.00     0.085 A 
HETATM    7  C   UNL     1      26.840  42.718  51.608  1.00  0.00     0.060 A 
HETATM    8  N   UNL     1      28.771  39.707  51.016  1.00  0.00    -0.236 NA
HETATM    9  C   UNL     1      28.070  39.032  50.077  1.00  0.00     0.142 A 
HETATM   10  C   UNL     1      26.883  39.512  49.520  1.00  0.00     0.044 A 
ENDROOT
BRANCH   6  11
HETATM   11  C   UNL     1      27.931  44.244  53.328  1.00  0.00     0.201 C 
HETATM   12  O   UNL     1      27.263  45.256  53.107  1.00  0.00    -0.286 OA
BRANCH  11  13
HETATM   13  C   UNL     1      28.853  44.307  54.497  1.00  0.00     0.018 A 
HETATM   14  C   UNL     1      28.636  45.305  55.458  1.00  0.00     0.055 A 
HETATM   15  C   UNL     1      29.519  45.378  56.515  1.00  0.00     0.106 A 
HETATM   16  C   UNL     1      30.585  44.518  56.632  1.00  0.00     0.105 A 
HETATM   17  O   UNL     1      29.462  46.275  57.535  1.00  0.00    -0.323 OA
HETATM   18  O   UNL     1      31.331  44.765  57.741  1.00  0.00    -0.323 OA
HETATM   19  C   UNL     1      30.835  43.536  55.696  1.00  0.00     0.040 A 
HETATM   20  C   UNL     1      30.620  45.887  58.304  1.00  0.00     0.352 A 
HETATM   21  C   UNL     1      29.962  43.438  54.607  1.00  0.00     0.018 A 
ENDBRANCH  11  13
ENDBRANCH   6  11
BRANCH   7  22
HETATM   22  N   UNL     1      25.754  43.511  51.425  1.00  0.00    -0.397 N 
HETATM   23  H   UNL     1      24.850  43.058  51.254  1.00  0.00     0.156 HD
HETATM   24  H   UNL     1      25.827  44.385  50.917  1.00  0.00     0.156 HD
ENDBRANCH   7  22
BRANCH   9  25
HETATM   25  C   UNL     1      28.591  37.682  49.597  1.00  0.00     0.434 C 
HETATM   26  F   UNL     1      29.783  37.309  50.141  1.00  0.00    -0.165 F 
HETATM   27  F   UNL     1      27.723  36.663  49.870  1.00  0.00    -0.165 F 
HETATM   28  F   UNL     1      28.774  37.647  48.243  1.00  0.00    -0.165 F 
ENDBRANCH   9  25
TORSDOF 4
ENDMDL
MODEL 7
REMARK VINA RESULT:      -7.9      9.004     12.063
REMARK  4 active torsions:
REMARK  status: ('A' for Active; 'I' for Inactive)
REMARK    1  A    between atoms: C_6  and  C_7 
REMARK    2  A    between atoms: C_7  and  C_8 
REMARK    3  A    between atoms: C_18  and  N_19 
REMARK    4  A    between atoms: C_21  and  C_22 
ROOT
HETATM    1  C   UNL     1      16.462  51.010  45.811  1.00  0.00     0.049 C 
HETATM    2  C   UNL     1      16.681  51.192  47.287  1.00  0.00    -0.044 A 
HETATM    3  C   UNL     1      17.717  50.556  48.027  1.00  0.00     0.033 A 
HETATM    4  C   UNL     1      17.762  50.824  49.392  1.00  0.00     0.112 A 
HETATM    5  S   UNL     1      19.015  50.007  50.200  1.00  0.00    -0.063 SA
HETATM    6  C   UNL     1      19.531  49.230  48.768  1.00  0.00     0.085 A 
HETATM    7  C   UNL     1      18.789  49.656  47.679  1.00  0.00     0.060 A 
HETATM    8  N   UNL     1      16.946  51.634  50.094  1.00  0.00    -0.236 NA
HETATM    9  C   UNL     1      15.983  52.247  49.368  1.00  0.00     0.142 A 
HETATM   10  C   UNL     1      15.826  52.056  47.994  1.00  0.00     0.044 A 
ENDROOT
BRANCH   6  11
HETATM   11  C   UNL     1      20.678  48.331  48.753  1.00  0.00     0.201 C 
HETATM   12  O   UNL     1      20.567  47.114  48.915  1.00  0.00    -0.286 OA
BRANCH  11  13
HETATM   13  C   UNL     1      22.064  48.847  48.573  1.00  0.00     0.018 A 
HETATM   14  C   UNL     1      23.122  48.108  49.123  1.00  0.00     0.055 A 
HETATM   15  C   UNL     1      24.397  48.615  48.984  1.00  0.00     0.106 A 
HETATM   16  C   UNL     1      24.638  49.807  48.342  1.00  0.00     0.105 A 
HETATM   17  O   UNL     1      25.536  48.036  49.449  1.00  0.00    -0.323 OA
HETATM   18  O   UNL     1      25.960  50.125  48.321  1.00  0.00    -0.323 OA
HETATM   19  C   UNL     1      23.620  50.565  47.805  1.00  0.00     0.040 A 
HETATM   20  C   UNL     1      26.522  49.004  49.033  1.00  0.00     0.352 A 
HETATM   21  C   UNL     1      22.312  50.083  47.933  1.00  0.00     0.018 A 
ENDBRANCH  11  13
ENDBRANCH   6  11
BRANCH   7  22
HETATM   22  N   UNL     1      19.060  49.238  46.416  1.00  0.00    -0.397 N 
HETATM   23  H   UNL     1      19.319  49.944  45.720  1.00  0.00     0.156 HD
HETATM   24  H   UNL     1      18.533  48.483  45.992  1.00  0.00     0.156 HD
ENDBRANCH   7  22
BRANCH   9  25
HETATM   25  C   UNL     1      15.018  53.193  50.074  1.00  0.00     0.434 C 
HETATM   26  F   UNL     1      15.616  54.119  50.874  1.00  0.00    -0.165 F 
HETATM   27  F   UNL     1      14.249  53.902  49.195  1.00  0.00    -0.165 F 
HETATM   28  F   UNL     1      14.132  52.528  50.874  1.00  0.00    -0.165 F 
ENDBRANCH   9  25
TORSDOF 4
ENDMDL
MODEL 8
REMARK VINA RESULT:      -7.9      4.864      7.989
REMARK  4 active torsions:
REMARK  status: ('A' for Active; 'I' for Inactive)
REMARK    1  A    between atoms: C_6  and  C_7 
REMARK    2  A    between atoms: C_7  and  C_8 
REMARK    3  A    between atoms: C_18  and  N_19 
REMARK    4  A    between atoms: C_21  and  C_22 
ROOT
HETATM    1  C   UNL     1      24.537  46.909  50.522  1.00  0.00     0.049 C 
HETATM    2  C   UNL     1      25.082  45.615  51.058  1.00  0.00    -0.044 A 
HETATM    3  C   UNL     1      25.806  45.496  52.277  1.00  0.00     0.033 A 
HETATM    4  C   UNL     1      26.254  44.222  52.613  1.00  0.00     0.112 A 
HETATM    5  S   UNL     1      27.127  44.176  54.071  1.00  0.00    -0.063 SA
HETATM    6  C   UNL     1      26.977  45.862  54.300  1.00  0.00     0.085 A 
HETATM    7  C   UNL     1      26.204  46.430  53.301  1.00  0.00     0.060 A 
HETATM    8  N   UNL     1      26.065  43.080  51.924  1.00  0.00    -0.236 NA
HETATM    9  C   UNL     1      25.354  43.211  50.781  1.00  0.00     0.142 A 
HETATM   10  C   UNL     1      24.857  44.435  50.329  1.00  0.00     0.044 A 
ENDROOT
BRANCH   6  11
HETATM   11  C   UNL     1      27.526  46.529  55.474  1.00  0.00     0.201 C 
HETATM   12  O   UNL     1      27.100  47.612  55.879  1.00  0.00    -0.286 OA
BRANCH  11  13
HETATM   13  C   UNL     1      28.668  45.946  56.233  1.00  0.00     0.018 A 
HETATM   14  C   UNL     1      29.486  45.010  55.583  1.00  0.00     0.055 A 
HETATM   15  C   UNL     1      30.515  44.447  56.307  1.00  0.00     0.106 A 
HETATM   16  C   UNL     1      30.740  44.773  57.624  1.00  0.00     0.105 A 
HETATM   17  O   UNL     1      31.404  43.530  55.841  1.00  0.00    -0.323 OA
HETATM   18  O   UNL     1      31.799  44.103  58.150  1.00  0.00    -0.323 OA
HETATM   19  C   UNL     1      29.944  45.676  58.297  1.00  0.00     0.040 A 
HETATM   20  C   UNL     1      32.210  43.309  57.018  1.00  0.00     0.352 A 
HETATM   21  C   UNL     1      28.886  46.262  57.593  1.00  0.00     0.018 A 
ENDBRANCH  11  13
ENDBRANCH   6  11
BRANCH   7  22
HETATM   22  N   UNL     1      25.878  47.748  53.306  1.00  0.00    -0.397 N 
HETATM   23  H   UNL     1      26.454  48.386  53.864  1.00  0.00     0.156 HD
HETATM   24  H   UNL     1      24.908  48.045  53.298  1.00  0.00     0.156 HD
ENDBRANCH   7  22
BRANCH   9  25
HETATM   25  C   UNL     1      25.078  41.970  49.939  1.00  0.00     0.434 C 
HETATM   26  F   UNL     1      23.757  41.683  49.769  1.00  0.00    -0.165 F 
HETATM   27  F   UNL     1      25.602  42.069  48.681  1.00  0.00    -0.165 F 
HETATM   28  F   UNL     1      25.637  40.844  50.475  1.00  0.00    -0.165 F 
ENDBRANCH   9  25
TORSDOF 4
ENDMDL
MODEL 9
REMARK VINA RESULT:      -7.8      5.109      6.844
REMARK  4 active torsions:
REMARK  status: ('A' for Active; 'I' for Inactive)
REMARK    1  A    between atoms: C_6  and  C_7 
REMARK    2  A    between atoms: C_7  and  C_8 
REMARK    3  A    between atoms: C_18  and  N_19 
REMARK    4  A    between atoms: C_21  and  C_22 
ROOT
HETATM    1  C   UNL     1      27.290  41.132  47.046  1.00  0.00     0.049 C 
HETATM    2  C   UNL     1      27.684  40.782  48.454  1.00  0.00    -0.044 A 
HETATM    3  C   UNL     1      27.292  41.525  49.602  1.00  0.00     0.033 A 
HETATM    4  C   UNL     1      27.764  41.069  50.829  1.00  0.00     0.112 A 
HETATM    5  S   UNL     1      27.265  42.027  52.143  1.00  0.00    -0.063 SA
HETATM    6  C   UNL     1      26.428  43.115  51.126  1.00  0.00     0.085 A 
HETATM    7  C   UNL     1      26.477  42.698  49.806  1.00  0.00     0.060 A 
HETATM    8  N   UNL     1      28.536  39.989  51.059  1.00  0.00    -0.236 NA
HETATM    9  C   UNL     1      28.878  39.284  49.956  1.00  0.00     0.142 A 
HETATM   10  C   UNL     1      28.477  39.641  48.668  1.00  0.00     0.044 A 
ENDROOT
BRANCH   6  11
HETATM   11  C   UNL     1      25.690  44.252  51.662  1.00  0.00     0.201 C 
HETATM   12  O   UNL     1      24.606  44.614  51.200  1.00  0.00    -0.286 OA
BRANCH  11  13
HETATM   13  C   UNL     1      26.231  45.066  52.786  1.00  0.00     0.018 A 
HETATM   14  C   UNL     1      25.570  46.258  53.119  1.00  0.00     0.055 A 
HETATM   15  C   UNL     1      26.102  47.022  54.135  1.00  0.00     0.106 A 
HETATM   16  C   UNL     1      27.244  46.649  54.803  1.00  0.00     0.105 A 
HETATM   17  O   UNL     1      25.596  48.200  54.590  1.00  0.00    -0.323 OA
HETATM   18  O   UNL     1      27.599  47.544  55.763  1.00  0.00    -0.323 OA
HETATM   19  C   UNL     1      27.927  45.493  54.490  1.00  0.00     0.040 A 
HETATM   20  C   UNL     1      26.555  48.530  55.617  1.00  0.00     0.352 A 
HETATM   21  C   UNL     1      27.417  44.696  53.459  1.00  0.00     0.018 A 
ENDBRANCH  11  13
ENDBRANCH   6  11
BRANCH   7  22
HETATM   22  N   UNL     1      25.821  43.357  48.819  1.00  0.00    -0.397 N 
HETATM   23  H   UNL     1      25.029  42.887  48.368  1.00  0.00     0.156 HD
HETATM   24  H   UNL     1      26.322  43.940  48.158  1.00  0.00     0.156 HD
ENDBRANCH   7  22
BRANCH   9  25
HETATM   25  C   UNL     1      29.742  38.038  50.118  1.00  0.00     0.434 C 
HETATM   26  F   UNL     1      29.061  36.921  50.498  1.00  0.00    -0.165 F 
HETATM   27  F   UNL     1      30.392  37.704  48.964  1.00  0.00    -0.165 F 
HETATM   28  F   UNL     1      30.727  38.207  51.051  1.00  0.00    -0.165 F 
ENDBRANCH   9  25
TORSDOF 4
ENDMDL
MODEL 10
REMARK VINA RESULT:      -7.6      7.262     10.213
REMARK  4 active torsions:
REMARK  status: ('A' for Active; 'I' for Inactive)
REMARK    1  A    between atoms: C_6  and  C_7 
REMARK    2  A    between atoms: C_7  and  C_8 
REMARK    3  A    between atoms: C_18  and  N_19 
REMARK    4  A    between atoms: C_21  and  C_22 
ROOT
HETATM    1  C   UNL     1      16.694  47.444  48.910  1.00  0.00     0.049 C 
HETATM    2  C   UNL     1      18.034  48.117  48.798  1.00  0.00    -0.044 A 
HETATM    3  C   UNL     1      19.266  47.425  48.634  1.00  0.00     0.033 A 
HETATM    4  C   UNL     1      20.415  48.207  48.568  1.00  0.00     0.112 A 
HETATM    5  S   UNL     1      21.841  47.298  48.394  1.00  0.00    -0.063 SA
HETATM    6  C   UNL     1      20.990  45.817  48.437  1.00  0.00     0.085 A 
HETATM    7  C   UNL     1      19.624  46.033  48.512  1.00  0.00     0.060 A 
HETATM    8  N   UNL     1      20.495  49.551  48.621  1.00  0.00    -0.236 NA
HETATM    9  C   UNL     1      19.309  50.191  48.753  1.00  0.00     0.142 A 
HETATM   10  C   UNL     1      18.088  49.521  48.841  1.00  0.00     0.044 A 
ENDROOT
BRANCH   6  11
HETATM   11  C   UNL     1      21.672  44.537  48.300  1.00  0.00     0.201 C 
HETATM   12  O   UNL     1      21.258  43.643  47.558  1.00  0.00    -0.286 OA
BRANCH  11  13
HETATM   13  C   UNL     1      22.900  44.225  49.083  1.00  0.00     0.018 A 
HETATM   14  C   UNL     1      24.087  44.892  48.747  1.00  0.00     0.055 A 
HETATM   15  C   UNL     1      25.226  44.567  49.452  1.00  0.00     0.106 A 
HETATM   16  C   UNL     1      25.218  43.618  50.447  1.00  0.00     0.105 A 
HETATM   17  O   UNL     1      26.458  45.111  49.265  1.00  0.00    -0.323 OA
HETATM   18  O   UNL     1      26.444  43.448  51.010  1.00  0.00    -0.323 OA
HETATM   19  C   UNL     1      24.073  42.932  50.791  1.00  0.00     0.040 A 
HETATM   20  C   UNL     1      27.228  44.390  50.250  1.00  0.00     0.352 A 
HETATM   21  C   UNL     1      22.899  43.233  50.090  1.00  0.00     0.018 A 
ENDBRANCH  11  13
ENDBRANCH   6  11
BRANCH   7  22
HETATM   22  N   UNL     1      18.732  45.011  48.482  1.00  0.00    -0.397 N 
HETATM   23  H   UNL     1      17.800  45.173  48.875  1.00  0.00     0.156 HD
HETATM   24  H   UNL     1      19.031  44.054  48.634  1.00  0.00     0.156 HD
ENDBRANCH   7  22
BRANCH   9  25
HETATM   25  C   UNL     1      19.298  51.714  48.811  1.00  0.00     0.434 C 
HETATM   26  F   UNL     1      18.406  52.307  47.969  1.00  0.00    -0.165 F 
HETATM   27  F   UNL     1      19.000  52.183  50.059  1.00  0.00    -0.165 F 
HETATM   28  F   UNL     1      20.515  52.255  48.504  1.00  0.00    -0.165 F 
ENDBRANCH   9  25
TORSDOF 4
ENDMDL
