MODEL 1
REMARK VINA RESULT:      -9.8      0.000      0.000
REMARK  7 active torsions:
REMARK  status: ('A' for Active; 'I' for Inactive)
REMARK    1  A    between atoms: C_2  and  C_3 
REMARK    2  A    between atoms: C_3  and  C_4 
REMARK    3  A    between atoms: C_7  and  C_8 
REMARK    4  A    between atoms: C_10  and  C_11 
REMARK    5  A    between atoms: C_14  and  N_15 
REMARK    6  A    between atoms: N_15  and  C_16 
REMARK    7  A    between atoms: C_17  and  C_18 
ROOT
HETATM    1  C   UNL     1      24.687  46.996  49.808  1.00  0.00     0.082 C 
HETATM    2  C   UNL     1      25.857  47.943  49.588  1.00  0.00     0.024 C 
HETATM    3  N   UNL     1      26.827  48.727  49.406  1.00  0.00    -0.096 N 
HETATM    4  C   UNL     1      24.785  45.878  50.553  1.00  0.00     0.113 C 
ENDROOT
BRANCH   1   5
HETATM    5  C   UNL     1      23.426  47.371  49.258  1.00  0.00     0.119 A 
HETATM    6  N   UNL     1      22.794  48.512  49.456  1.00  0.00    -0.239 NA
HETATM    7  C   UNL     1      21.528  48.495  48.881  1.00  0.00     0.075 A 
HETATM    8  C   UNL     1      21.265  47.368  48.129  1.00  0.00     0.084 A 
HETATM    9  S   UNL     1      22.579  46.274  48.216  1.00  0.00    -0.078 SA
BRANCH   7  10
HETATM   10  C   UNL     1      20.587  49.595  49.098  1.00  0.00    -0.007 A 
HETATM   11  C   UNL     1      19.462  49.390  49.909  1.00  0.00     0.014 A 
HETATM   12  C   UNL     1      18.522  50.407  50.110  1.00  0.00     0.008 A 
HETATM   13  C   UNL     1      18.684  51.655  49.499  1.00  0.00    -0.058 A 
HETATM   14  C   UNL     1      19.803  51.866  48.685  1.00  0.00     0.008 A 
HETATM   15  C   UNL     1      20.742  50.847  48.486  1.00  0.00     0.014 A 
BRANCH  13  16
HETATM   16  C   UNL     1      17.671  52.756  49.709  1.00  0.00     0.042 C 
BRANCH  16  17
HETATM   17  C   UNL     1      16.216  52.254  49.767  1.00  0.00    -0.019 C 
HETATM   18  C   UNL     1      15.667  51.931  48.373  1.00  0.00     0.010 C 
HETATM   19  C   UNL     1      15.331  53.304  50.440  1.00  0.00     0.010 C 
ENDBRANCH  16  17
ENDBRANCH  13  16
ENDBRANCH   7  10
ENDBRANCH   1   5
BRANCH   4  20
HETATM   20  N   UNL     1      25.856  45.257  51.184  1.00  0.00    -0.364 N 
HETATM   21  H   UNL     1      25.862  44.250  51.014  1.00  0.00     0.165 HD
BRANCH  20  22
HETATM   22  C   UNL     1      26.252  45.585  52.507  1.00  0.00     0.048 A 
HETATM   23  C   UNL     1      27.305  44.892  53.168  1.00  0.00     0.039 A 
HETATM   24  C   UNL     1      27.824  45.350  54.389  1.00  0.00     0.057 A 
HETATM   25  C   UNL     1      27.265  46.483  54.934  1.00  0.00     0.106 A 
HETATM   26  C   UNL     1      26.225  47.142  54.324  1.00  0.00     0.107 A 
HETATM   27  O   UNL     1      27.648  47.077  56.094  1.00  0.00    -0.323 OA
HETATM   28  O   UNL     1      25.828  48.240  55.023  1.00  0.00    -0.323 OA
HETATM   29  C   UNL     1      25.695  46.720  53.120  1.00  0.00     0.070 A 
HETATM   30  C   UNL     1      26.795  48.240  56.096  1.00  0.00     0.352 A 
BRANCH  23  31
HETATM   31  C   UNL     1      27.887  43.634  52.636  1.00  0.00     0.158 C 
HETATM   32  C   UNL     1      29.353  43.361  52.858  1.00  0.00     0.097 C 
HETATM   33  O   UNL     1      27.180  42.873  51.978  1.00  0.00    -0.293 OA
ENDBRANCH  23  31
ENDBRANCH  20  22
ENDBRANCH   4  20
TORSDOF 7
ENDMDL
MODEL 2
REMARK VINA RESULT:      -9.8      1.455      3.315
REMARK  7 active torsions:
REMARK  status: ('A' for Active; 'I' for Inactive)
REMARK    1  A    between atoms: C_2  and  C_3 
REMARK    2  A    between atoms: C_3  and  C_4 
REMARK    3  A    between atoms: C_7  and  C_8 
REMARK    4  A    between atoms: C_10  and  C_11 
REMARK    5  A    between atoms: C_14  and  N_15 
REMARK    6  A    between atoms: N_15  and  C_16 
REMARK    7  A    between atoms: C_17  and  C_18 
ROOT
HETATM    1  C   UNL     1      24.972  47.570  50.076  1.00  0.00     0.082 C 
HETATM    2  C   UNL     1      26.146  48.366  49.528  1.00  0.00     0.024 C 
HETATM    3  N   UNL     1      27.119  49.027  49.074  1.00  0.00    -0.096 N 
HETATM    4  C   UNL     1      25.093  46.711  51.107  1.00  0.00     0.113 C 
ENDROOT
BRANCH   1   5
HETATM    5  C   UNL     1      23.687  47.819  49.511  1.00  0.00     0.119 A 
HETATM    6  N   UNL     1      22.981  48.927  49.631  1.00  0.00    -0.239 NA
HETATM    7  C   UNL     1      21.717  48.785  49.069  1.00  0.00     0.075 A 
HETATM    8  C   UNL     1      21.528  47.592  48.402  1.00  0.00     0.084 A 
HETATM    9  S   UNL     1      22.912  46.597  48.556  1.00  0.00    -0.078 SA
BRANCH   7  10
HETATM   10  C   UNL     1      20.705  49.832  49.214  1.00  0.00    -0.007 A 
HETATM   11  C   UNL     1      19.625  49.633  50.086  1.00  0.00     0.014 A 
HETATM   12  C   UNL     1      18.620  50.597  50.223  1.00  0.00     0.008 A 
HETATM   13  C   UNL     1      18.670  51.785  49.486  1.00  0.00    -0.058 A 
HETATM   14  C   UNL     1      19.743  51.989  48.611  1.00  0.00     0.008 A 
HETATM   15  C   UNL     1      20.748  51.024  48.475  1.00  0.00     0.014 A 
BRANCH  13  16
HETATM   16  C   UNL     1      17.587  52.827  49.626  1.00  0.00     0.042 C 
BRANCH  16  17
HETATM   17  C   UNL     1      16.171  52.234  49.754  1.00  0.00    -0.019 C 
HETATM   18  C   UNL     1      15.630  51.750  48.405  1.00  0.00     0.010 C 
HETATM   19  C   UNL     1      15.222  53.277  50.347  1.00  0.00     0.010 C 
ENDBRANCH  16  17
ENDBRANCH  13  16
ENDBRANCH   7  10
ENDBRANCH   1   5
BRANCH   4  20
HETATM   20  N   UNL     1      26.188  46.256  51.832  1.00  0.00    -0.364 N 
HETATM   21  H   UNL     1      26.878  46.995  51.978  1.00  0.00     0.165 HD
BRANCH  20  22
HETATM   22  C   UNL     1      26.789  44.995  51.586  1.00  0.00     0.048 A 
HETATM   23  C   UNL     1      27.296  44.187  52.643  1.00  0.00     0.039 A 
HETATM   24  C   UNL     1      27.703  42.863  52.416  1.00  0.00     0.057 A 
HETATM   25  C   UNL     1      27.613  42.379  51.132  1.00  0.00     0.106 A 
HETATM   26  C   UNL     1      27.157  43.158  50.096  1.00  0.00     0.107 A 
HETATM   27  O   UNL     1      27.943  41.124  50.731  1.00  0.00    -0.323 OA
HETATM   28  O   UNL     1      27.139  42.487  48.913  1.00  0.00    -0.323 OA
HETATM   29  C   UNL     1      26.746  44.463  50.285  1.00  0.00     0.070 A 
HETATM   30  C   UNL     1      27.553  41.172  49.344  1.00  0.00     0.352 A 
BRANCH  23  31
HETATM   31  C   UNL     1      27.463  44.700  54.026  1.00  0.00     0.158 C 
HETATM   32  C   UNL     1      28.808  44.559  54.695  1.00  0.00     0.097 C 
HETATM   33  O   UNL     1      26.494  45.172  54.616  1.00  0.00    -0.293 OA
ENDBRANCH  23  31
ENDBRANCH  20  22
ENDBRANCH   4  20
TORSDOF 7
ENDMDL
MODEL 3
REMARK VINA RESULT:      -9.6      3.654     10.563
REMARK  7 active torsions:
REMARK  status: ('A' for Active; 'I' for Inactive)
REMARK    1  A    between atoms: C_2  and  C_3 
REMARK    2  A    between atoms: C_3  and  C_4 
REMARK    3  A    between atoms: C_7  and  C_8 
REMARK    4  A    between atoms: C_10  and  C_11 
REMARK    5  A    between atoms: C_14  and  N_15 
REMARK    6  A    between atoms: N_15  and  C_16 
REMARK    7  A    between atoms: C_17  and  C_18 
ROOT
HETATM    1  C   UNL     1      24.537  46.914  49.847  1.00  0.00     0.082 C 
HETATM    2  C   UNL     1      25.446  48.066  49.449  1.00  0.00     0.024 C 
HETATM    3  N   UNL     1      26.200  49.021  49.119  1.00  0.00    -0.096 N 
HETATM    4  C   UNL     1      23.398  46.624  49.189  1.00  0.00     0.113 C 
ENDROOT
BRANCH   1   5
HETATM    5  C   UNL     1      24.970  46.073  50.915  1.00  0.00     0.119 A 
HETATM    6  N   UNL     1      25.929  46.340  51.780  1.00  0.00    -0.239 NA
HETATM    7  C   UNL     1      26.185  45.249  52.604  1.00  0.00     0.075 A 
HETATM    8  C   UNL     1      25.308  44.197  52.434  1.00  0.00     0.084 A 
HETATM    9  S   UNL     1      24.209  44.536  51.167  1.00  0.00    -0.078 SA
BRANCH   7  10
HETATM   10  C   UNL     1      27.307  45.259  53.543  1.00  0.00    -0.007 A 
HETATM   11  C   UNL     1      27.513  46.380  54.359  1.00  0.00     0.014 A 
HETATM   12  C   UNL     1      28.596  46.440  55.244  1.00  0.00     0.008 A 
HETATM   13  C   UNL     1      29.503  45.378  55.329  1.00  0.00    -0.058 A 
HETATM   14  C   UNL     1      29.306  44.257  54.514  1.00  0.00     0.008 A 
HETATM   15  C   UNL     1      28.221  44.199  53.631  1.00  0.00     0.014 A 
BRANCH  13  16
HETATM   16  C   UNL     1      30.676  45.439  56.278  1.00  0.00     0.042 C 
BRANCH  16  17
HETATM   17  C   UNL     1      30.621  44.383  57.399  1.00  0.00    -0.019 C 
HETATM   18  C   UNL     1      30.694  45.022  58.789  1.00  0.00     0.010 C 
HETATM   19  C   UNL     1      31.765  43.383  57.228  1.00  0.00     0.010 C 
ENDBRANCH  16  17
ENDBRANCH  13  16
ENDBRANCH   7  10
ENDBRANCH   1   5
BRANCH   4  20
HETATM   20  N   UNL     1      22.724  47.254  48.149  1.00  0.00    -0.364 N 
HETATM   21  H   UNL     1      23.369  47.699  47.495  1.00  0.00     0.165 HD
BRANCH  20  22
HETATM   22  C   UNL     1      21.551  48.024  48.363  1.00  0.00     0.048 A 
HETATM   23  C   UNL     1      21.553  49.442  48.233  1.00  0.00     0.039 A 
HETATM   24  C   UNL     1      20.355  50.175  48.247  1.00  0.00     0.057 A 
HETATM   25  C   UNL     1      19.182  49.476  48.410  1.00  0.00     0.106 A 
HETATM   26  C   UNL     1      19.169  48.112  48.571  1.00  0.00     0.107 A 
HETATM   27  O   UNL     1      17.934  50.014  48.431  1.00  0.00    -0.323 OA
HETATM   28  O   UNL     1      17.908  47.620  48.707  1.00  0.00    -0.323 OA
HETATM   29  C   UNL     1      20.328  47.360  48.558  1.00  0.00     0.070 A 
HETATM   30  C   UNL     1      17.129  48.822  48.526  1.00  0.00     0.352 A 
BRANCH  23  31
HETATM   31  C   UNL     1      22.806  50.229  48.117  1.00  0.00     0.158 C 
HETATM   32  C   UNL     1      23.127  51.244  49.186  1.00  0.00     0.097 C 
HETATM   33  O   UNL     1      23.523  50.082  47.130  1.00  0.00    -0.293 OA
ENDBRANCH  23  31
ENDBRANCH  20  22
ENDBRANCH   4  20
TORSDOF 7
ENDMDL
MODEL 4
REMARK VINA RESULT:      -9.6      2.119      3.373
REMARK  7 active torsions:
REMARK  status: ('A' for Active; 'I' for Inactive)
REMARK    1  A    between atoms: C_2  and  C_3 
REMARK    2  A    between atoms: C_3  and  C_4 
REMARK    3  A    between atoms: C_7  and  C_8 
REMARK    4  A    between atoms: C_10  and  C_11 
REMARK    5  A    between atoms: C_14  and  N_15 
REMARK    6  A    between atoms: N_15  and  C_16 
REMARK    7  A    between atoms: C_17  and  C_18 
ROOT
HETATM    1  C   UNL     1      26.138  45.363  50.911  1.00  0.00     0.082 C 
HETATM    2  C   UNL     1      26.355  44.166  49.998  1.00  0.00     0.024 C 
HETATM    3  N   UNL     1      26.536  43.173  49.243  1.00  0.00    -0.096 N 
HETATM    4  C   UNL     1      26.266  45.291  52.249  1.00  0.00     0.113 C 
ENDROOT
BRANCH   1   5
HETATM    5  C   UNL     1      25.866  46.619  50.293  1.00  0.00     0.119 A 
HETATM    6  N   UNL     1      24.683  47.185  50.160  1.00  0.00    -0.239 NA
HETATM    7  C   UNL     1      24.759  48.342  49.390  1.00  0.00     0.075 A 
HETATM    8  C   UNL     1      26.045  48.712  49.056  1.00  0.00     0.084 A 
HETATM    9  S   UNL     1      27.167  47.554  49.629  1.00  0.00    -0.078 SA
BRANCH   7  10
HETATM   10  C   UNL     1      23.549  49.058  48.984  1.00  0.00    -0.007 A 
HETATM   11  C   UNL     1      22.378  48.337  48.714  1.00  0.00     0.014 A 
HETATM   12  C   UNL     1      21.212  48.985  48.289  1.00  0.00     0.008 A 
HETATM   13  C   UNL     1      21.193  50.373  48.120  1.00  0.00    -0.058 A 
HETATM   14  C   UNL     1      22.360  51.100  48.384  1.00  0.00     0.008 A 
HETATM   15  C   UNL     1      23.524  50.450  48.810  1.00  0.00     0.014 A 
BRANCH  13  16
HETATM   16  C   UNL     1      19.940  51.078  47.658  1.00  0.00     0.042 C 
BRANCH  16  17
HETATM   17  C   UNL     1      19.413  52.124  48.659  1.00  0.00    -0.019 C 
HETATM   18  C   UNL     1      19.108  51.503  50.026  1.00  0.00     0.010 C 
HETATM   19  C   UNL     1      18.153  52.788  48.101  1.00  0.00     0.010 C 
ENDBRANCH  16  17
ENDBRANCH  13  16
ENDBRANCH   7  10
ENDBRANCH   1   5
BRANCH   4  20
HETATM   20  N   UNL     1      26.499  44.232  53.119  1.00  0.00    -0.364 N 
HETATM   21  H   UNL     1      25.633  43.896  53.544  1.00  0.00     0.165 HD
BRANCH  20  22
HETATM   22  C   UNL     1      27.589  44.221  54.027  1.00  0.00     0.048 A 
HETATM   23  C   UNL     1      28.695  43.340  53.861  1.00  0.00     0.039 A 
HETATM   24  C   UNL     1      29.855  43.473  54.640  1.00  0.00     0.057 A 
HETATM   25  C   UNL     1      29.878  44.474  55.584  1.00  0.00     0.106 A 
HETATM   26  C   UNL     1      28.804  45.309  55.778  1.00  0.00     0.107 A 
HETATM   27  O   UNL     1      30.916  44.760  56.411  1.00  0.00    -0.323 OA
HETATM   28  O   UNL     1      29.037  46.231  56.751  1.00  0.00    -0.323 OA
HETATM   29  C   UNL     1      27.650  45.208  55.026  1.00  0.00     0.070 A 
HETATM   30  C   UNL     1      30.411  45.932  57.083  1.00  0.00     0.352 A 
BRANCH  23  31
HETATM   31  C   UNL     1      28.676  42.214  52.894  1.00  0.00     0.158 C 
HETATM   32  C   UNL     1      28.526  40.809  53.420  1.00  0.00     0.097 C 
HETATM   33  O   UNL     1      28.841  42.442  51.697  1.00  0.00    -0.293 OA
ENDBRANCH  23  31
ENDBRANCH  20  22
ENDBRANCH   4  20
TORSDOF 7
ENDMDL
MODEL 5
REMARK VINA RESULT:      -9.6      1.424      1.834
REMARK  7 active torsions:
REMARK  status: ('A' for Active; 'I' for Inactive)
REMARK    1  A    between atoms: C_2  and  C_3 
REMARK    2  A    between atoms: C_3  and  C_4 
REMARK    3  A    between atoms: C_7  and  C_8 
REMARK    4  A    between atoms: C_10  and  C_11 
REMARK    5  A    between atoms: C_14  and  N_15 
REMARK    6  A    between atoms: N_15  and  C_16 
REMARK    7  A    between atoms: C_17  and  C_18 
ROOT
HETATM    1  C   UNL     1      25.194  48.197  49.589  1.00  0.00     0.082 C 
HETATM    2  C   UNL     1      26.679  48.411  49.343  1.00  0.00     0.024 C 
HETATM    3  N   UNL     1      27.911  48.588  49.140  1.00  0.00    -0.096 N 
HETATM    4  C   UNL     1      24.714  47.144  50.278  1.00  0.00     0.113 C 
ENDROOT
BRANCH   1   5
HETATM    5  C   UNL     1      24.300  49.209  49.130  1.00  0.00     0.119 A 
HETATM    6  N   UNL     1      23.103  49.473  49.616  1.00  0.00    -0.239 NA
HETATM    7  C   UNL     1      22.445  50.430  48.850  1.00  0.00     0.075 A 
HETATM    8  C   UNL     1      23.222  50.983  47.851  1.00  0.00     0.084 A 
HETATM    9  S   UNL     1      24.760  50.233  47.809  1.00  0.00    -0.078 SA
BRANCH   7  10
HETATM   10  C   UNL     1      21.047  50.775  49.110  1.00  0.00    -0.007 A 
HETATM   11  C   UNL     1      20.458  51.838  48.411  1.00  0.00     0.014 A 
HETATM   12  C   UNL     1      19.134  52.219  48.659  1.00  0.00     0.008 A 
HETATM   13  C   UNL     1      18.369  51.546  49.617  1.00  0.00    -0.058 A 
HETATM   14  C   UNL     1      18.952  50.486  50.321  1.00  0.00     0.008 A 
HETATM   15  C   UNL     1      20.275  50.106  50.071  1.00  0.00     0.014 A 
BRANCH  13  16
HETATM   16  C   UNL     1      16.942  51.955  49.892  1.00  0.00     0.042 C 
BRANCH  16  17
HETATM   17  C   UNL     1      16.144  52.309  48.623  1.00  0.00    -0.019 C 
HETATM   18  C   UNL     1      14.964  53.237  48.930  1.00  0.00     0.010 C 
HETATM   19  C   UNL     1      15.635  51.030  47.956  1.00  0.00     0.010 C 
ENDBRANCH  16  17
ENDBRANCH  13  16
ENDBRANCH   7  10
ENDBRANCH   1   5
BRANCH   4  20
HETATM   20  N   UNL     1      25.320  46.015  50.818  1.00  0.00    -0.364 N 
HETATM   21  H   UNL     1      24.791  45.167  50.611  1.00  0.00     0.165 HD
BRANCH  20  22
HETATM   22  C   UNL     1      25.873  46.004  52.124  1.00  0.00     0.048 A 
HETATM   23  C   UNL     1      26.891  45.082  52.499  1.00  0.00     0.039 A 
HETATM   24  C   UNL     1      27.572  45.206  53.720  1.00  0.00     0.057 A 
HETATM   25  C   UNL     1      27.208  46.239  54.551  1.00  0.00     0.106 A 
HETATM   26  C   UNL     1      26.203  47.116  54.218  1.00  0.00     0.107 A 
HETATM   27  O   UNL     1      27.765  46.523  55.757  1.00  0.00    -0.323 OA
HETATM   28  O   UNL     1      26.008  48.066  55.172  1.00  0.00    -0.323 OA
HETATM   29  C   UNL     1      25.517  47.025  53.023  1.00  0.00     0.070 A 
HETATM   30  C   UNL     1      27.063  47.734  56.101  1.00  0.00     0.352 A 
BRANCH  23  31
HETATM   31  C   UNL     1      27.264  43.921  51.651  1.00  0.00     0.158 C 
HETATM   32  C   UNL     1      27.641  42.624  52.322  1.00  0.00     0.097 C 
HETATM   33  O   UNL     1      27.316  44.056  50.431  1.00  0.00    -0.293 OA
ENDBRANCH  23  31
ENDBRANCH  20  22
ENDBRANCH   4  20
TORSDOF 7
ENDMDL
MODEL 6
REMARK VINA RESULT:      -9.2      3.394     10.443
REMARK  7 active torsions:
REMARK  status: ('A' for Active; 'I' for Inactive)
REMARK    1  A    between atoms: C_2  and  C_3 
REMARK    2  A    between atoms: C_3  and  C_4 
REMARK    3  A    between atoms: C_7  and  C_8 
REMARK    4  A    between atoms: C_10  and  C_11 
REMARK    5  A    between atoms: C_14  and  N_15 
REMARK    6  A    between atoms: N_15  and  C_16 
REMARK    7  A    between atoms: C_17  and  C_18 
ROOT
HETATM    1  C   UNL     1      24.910  47.538  49.710  1.00  0.00     0.082 C 
HETATM    2  C   UNL     1      26.105  48.395  49.324  1.00  0.00     0.024 C 
HETATM    3  N   UNL     1      27.095  49.107  49.003  1.00  0.00    -0.096 N 
HETATM    4  C   UNL     1      23.658  47.802  49.291  1.00  0.00     0.113 C 
ENDROOT
BRANCH   1   5
HETATM    5  C   UNL     1      25.164  46.367  50.484  1.00  0.00     0.119 A 
HETATM    6  N   UNL     1      26.141  46.202  51.354  1.00  0.00    -0.239 NA
HETATM    7  C   UNL     1      26.180  44.896  51.830  1.00  0.00     0.075 A 
HETATM    8  C   UNL     1      25.128  44.110  51.404  1.00  0.00     0.084 A 
HETATM    9  S   UNL     1      24.131  44.984  50.322  1.00  0.00    -0.078 SA
BRANCH   7  10
HETATM   10  C   UNL     1      27.269  44.439  52.694  1.00  0.00    -0.007 A 
HETATM   11  C   UNL     1      28.404  43.849  52.119  1.00  0.00     0.014 A 
HETATM   12  C   UNL     1      29.450  43.368  52.915  1.00  0.00     0.008 A 
HETATM   13  C   UNL     1      29.383  43.463  54.309  1.00  0.00    -0.058 A 
HETATM   14  C   UNL     1      28.252  44.048  54.890  1.00  0.00     0.008 A 
HETATM   15  C   UNL     1      27.207  44.529  54.092  1.00  0.00     0.014 A 
BRANCH  13  16
HETATM   16  C   UNL     1      30.506  42.943  55.174  1.00  0.00     0.042 C 
BRANCH  16  17
HETATM   17  C   UNL     1      30.737  43.770  56.453  1.00  0.00    -0.019 C 
HETATM   18  C   UNL     1      30.853  45.267  56.151  1.00  0.00     0.010 C 
HETATM   19  C   UNL     1      32.002  43.286  57.163  1.00  0.00     0.010 C 
ENDBRANCH  16  17
ENDBRANCH  13  16
ENDBRANCH   7  10
ENDBRANCH   1   5
BRANCH   4  20
HETATM   20  N   UNL     1      23.109  48.851  48.563  1.00  0.00    -0.364 N 
HETATM   21  H   UNL     1      23.685  49.692  48.620  1.00  0.00     0.165 HD
BRANCH  20  22
HETATM   22  C   UNL     1      21.721  49.143  48.582  1.00  0.00     0.048 A 
HETATM   23  C   UNL     1      20.746  48.172  48.214  1.00  0.00     0.039 A 
HETATM   24  C   UNL     1      19.377  48.399  48.427  1.00  0.00     0.057 A 
HETATM   25  C   UNL     1      19.009  49.601  48.987  1.00  0.00     0.106 A 
HETATM   26  C   UNL     1      19.937  50.560  49.315  1.00  0.00     0.107 A 
HETATM   27  O   UNL     1      17.739  49.985  49.279  1.00  0.00    -0.323 OA
HETATM   28  O   UNL     1      19.365  51.667  49.861  1.00  0.00    -0.323 OA
HETATM   29  C   UNL     1      21.291  50.367  49.122  1.00  0.00     0.070 A 
HETATM   30  C   UNL     1      17.981  51.255  49.917  1.00  0.00     0.352 A 
BRANCH  23  31
HETATM   31  C   UNL     1      21.107  46.893  47.553  1.00  0.00     0.158 C 
HETATM   32  C   UNL     1      20.753  45.597  48.238  1.00  0.00     0.097 C 
HETATM   33  O   UNL     1      21.736  46.916  46.497  1.00  0.00    -0.293 OA
ENDBRANCH  23  31
ENDBRANCH  20  22
ENDBRANCH   4  20
TORSDOF 7
ENDMDL
MODEL 7
REMARK VINA RESULT:      -9.2      2.403      4.711
REMARK  7 active torsions:
REMARK  status: ('A' for Active; 'I' for Inactive)
REMARK    1  A    between atoms: C_2  and  C_3 
REMARK    2  A    between atoms: C_3  and  C_4 
REMARK    3  A    between atoms: C_7  and  C_8 
REMARK    4  A    between atoms: C_10  and  C_11 
REMARK    5  A    between atoms: C_14  and  N_15 
REMARK    6  A    between atoms: N_15  and  C_16 
REMARK    7  A    between atoms: C_17  and  C_18 
ROOT
HETATM    1  C   UNL     1      25.988  46.267  51.932  1.00  0.00     0.082 C 
HETATM    2  C   UNL     1      26.431  46.808  53.282  1.00  0.00     0.024 C 
HETATM    3  N   UNL     1      26.798  47.257  54.402  1.00  0.00    -0.096 N 
HETATM    4  C   UNL     1      25.806  44.953  51.698  1.00  0.00     0.113 C 
ENDROOT
BRANCH   1   5
HETATM    5  C   UNL     1      25.683  47.216  50.912  1.00  0.00     0.119 A 
HETATM    6  N   UNL     1      24.530  47.833  50.737  1.00  0.00    -0.239 NA
HETATM    7  C   UNL     1      24.532  48.588  49.569  1.00  0.00     0.075 A 
HETATM    8  C   UNL     1      25.756  48.638  48.934  1.00  0.00     0.084 A 
HETATM    9  S   UNL     1      26.894  47.656  49.752  1.00  0.00    -0.078 SA
BRANCH   7  10
HETATM   10  C   UNL     1      23.313  49.242  49.091  1.00  0.00    -0.007 A 
HETATM   11  C   UNL     1      22.185  48.464  48.795  1.00  0.00     0.014 A 
HETATM   12  C   UNL     1      21.013  49.050  48.302  1.00  0.00     0.008 A 
HETATM   13  C   UNL     1      20.945  50.431  48.089  1.00  0.00    -0.058 A 
HETATM   14  C   UNL     1      22.070  51.213  48.379  1.00  0.00     0.008 A 
HETATM   15  C   UNL     1      23.240  50.625  48.873  1.00  0.00     0.014 A 
BRANCH  13  16
HETATM   16  C   UNL     1      19.686  51.069  47.553  1.00  0.00     0.042 C 
BRANCH  16  17
HETATM   17  C   UNL     1      19.070  52.116  48.502  1.00  0.00    -0.019 C 
HETATM   18  C   UNL     1      19.019  51.615  49.948  1.00  0.00     0.010 C 
HETATM   19  C   UNL     1      17.662  52.479  48.030  1.00  0.00     0.010 C 
ENDBRANCH  16  17
ENDBRANCH  13  16
ENDBRANCH   7  10
ENDBRANCH   1   5
BRANCH   4  20
HETATM   20  N   UNL     1      26.034  43.818  52.468  1.00  0.00    -0.364 N 
HETATM   21  H   UNL     1      26.126  44.046  53.459  1.00  0.00     0.165 HD
BRANCH  20  22
HETATM   22  C   UNL     1      26.927  42.794  52.062  1.00  0.00     0.048 A 
HETATM   23  C   UNL     1      28.009  42.373  52.887  1.00  0.00     0.039 A 
HETATM   24  C   UNL     1      28.763  41.231  52.572  1.00  0.00     0.057 A 
HETATM   25  C   UNL     1      28.430  40.543  51.429  1.00  0.00     0.106 A 
HETATM   26  C   UNL     1      27.410  40.957  50.606  1.00  0.00     0.107 A 
HETATM   27  O   UNL     1      29.034  39.412  50.979  1.00  0.00    -0.323 OA
HETATM   28  O   UNL     1      27.242  40.132  49.537  1.00  0.00    -0.323 OA
HETATM   29  C   UNL     1      26.647  42.073  50.888  1.00  0.00     0.070 A 
HETATM   30  C   UNL     1      28.216  39.107  49.832  1.00  0.00     0.352 A 
BRANCH  23  31
HETATM   31  C   UNL     1      28.431  43.130  54.093  1.00  0.00     0.158 C 
HETATM   32  C   UNL     1      29.894  43.156  54.458  1.00  0.00     0.097 C 
HETATM   33  O   UNL     1      27.579  43.666  54.797  1.00  0.00    -0.293 OA
ENDBRANCH  23  31
ENDBRANCH  20  22
ENDBRANCH   4  20
TORSDOF 7
ENDMDL
MODEL 8
REMARK VINA RESULT:      -9.0      1.917      3.044
REMARK  7 active torsions:
REMARK  status: ('A' for Active; 'I' for Inactive)
REMARK    1  A    between atoms: C_2  and  C_3 
REMARK    2  A    between atoms: C_3  and  C_4 
REMARK    3  A    between atoms: C_7  and  C_8 
REMARK    4  A    between atoms: C_10  and  C_11 
REMARK    5  A    between atoms: C_14  and  N_15 
REMARK    6  A    between atoms: N_15  and  C_16 
REMARK    7  A    between atoms: C_17  and  C_18 
ROOT
HETATM    1  C   UNL     1      25.138  43.520  49.892  1.00  0.00     0.082 C 
HETATM    2  C   UNL     1      26.194  42.634  49.251  1.00  0.00     0.024 C 
HETATM    3  N   UNL     1      27.071  41.900  48.719  1.00  0.00    -0.096 N 
HETATM    4  C   UNL     1      25.091  43.754  51.218  1.00  0.00     0.113 C 
ENDROOT
BRANCH   1   5
HETATM    5  C   UNL     1      24.221  44.183  49.025  1.00  0.00     0.119 A 
HETATM    6  N   UNL     1      23.851  45.447  49.095  1.00  0.00    -0.239 NA
HETATM    7  C   UNL     1      22.842  45.730  48.181  1.00  0.00     0.075 A 
HETATM    8  C   UNL     1      22.549  44.689  47.324  1.00  0.00     0.084 A 
HETATM    9  S   UNL     1      23.478  43.308  47.725  1.00  0.00    -0.078 SA
BRANCH   7  10
HETATM   10  C   UNL     1      22.170  47.031  48.178  1.00  0.00    -0.007 A 
HETATM   11  C   UNL     1      22.682  48.073  48.963  1.00  0.00     0.014 A 
HETATM   12  C   UNL     1      22.047  49.319  49.013  1.00  0.00     0.008 A 
HETATM   13  C   UNL     1      20.878  49.550  48.279  1.00  0.00    -0.058 A 
HETATM   14  C   UNL     1      20.359  48.512  47.496  1.00  0.00     0.008 A 
HETATM   15  C   UNL     1      20.997  47.268  47.447  1.00  0.00     0.014 A 
BRANCH  13  16
HETATM   16  C   UNL     1      20.185  50.891  48.332  1.00  0.00     0.042 C 
BRANCH  16  17
HETATM   17  C   UNL     1      19.560  51.210  49.703  1.00  0.00    -0.019 C 
HETATM   18  C   UNL     1      18.920  49.974  50.341  1.00  0.00     0.010 C 
HETATM   19  C   UNL     1      18.512  52.314  49.551  1.00  0.00     0.010 C 
ENDBRANCH  16  17
ENDBRANCH  13  16
ENDBRANCH   7  10
ENDBRANCH   1   5
BRANCH   4  20
HETATM   20  N   UNL     1      25.818  43.250  52.291  1.00  0.00    -0.364 N 
HETATM   21  H   UNL     1      25.375  42.421  52.691  1.00  0.00     0.165 HD
BRANCH  20  22
HETATM   22  C   UNL     1      26.390  44.091  53.280  1.00  0.00     0.048 A 
HETATM   23  C   UNL     1      27.701  43.864  53.789  1.00  0.00     0.039 A 
HETATM   24  C   UNL     1      28.334  44.808  54.612  1.00  0.00     0.057 A 
HETATM   25  C   UNL     1      27.637  45.952  54.926  1.00  0.00     0.106 A 
HETATM   26  C   UNL     1      26.359  46.167  54.470  1.00  0.00     0.107 A 
HETATM   27  O   UNL     1      28.095  46.976  55.691  1.00  0.00    -0.323 OA
HETATM   28  O   UNL     1      25.855  47.360  54.887  1.00  0.00    -0.323 OA
HETATM   29  C   UNL     1      25.708  45.261  53.655  1.00  0.00     0.070 A 
HETATM   30  C   UNL     1      26.996  47.904  55.585  1.00  0.00     0.352 A 
BRANCH  23  31
HETATM   31  C   UNL     1      28.454  42.614  53.519  1.00  0.00     0.158 C 
HETATM   32  C   UNL     1      29.901  42.713  53.107  1.00  0.00     0.097 C 
HETATM   33  O   UNL     1      27.871  41.533  53.577  1.00  0.00    -0.293 OA
ENDBRANCH  23  31
ENDBRANCH  20  22
ENDBRANCH   4  20
TORSDOF 7
ENDMDL
MODEL 9
REMARK VINA RESULT:      -8.9      2.389      4.240
REMARK  7 active torsions:
REMARK  status: ('A' for Active; 'I' for Inactive)
REMARK    1  A    between atoms: C_2  and  C_3 
REMARK    2  A    between atoms: C_3  and  C_4 
REMARK    3  A    between atoms: C_7  and  C_8 
REMARK    4  A    between atoms: C_10  and  C_11 
REMARK    5  A    between atoms: C_14  and  N_15 
REMARK    6  A    between atoms: N_15  and  C_16 
REMARK    7  A    between atoms: C_17  and  C_18 
ROOT
HETATM    1  C   UNL     1      25.737  43.145  50.423  1.00  0.00     0.082 C 
HETATM    2  C   UNL     1      26.723  42.178  49.784  1.00  0.00     0.024 C 
HETATM    3  N   UNL     1      27.540  41.378  49.255  1.00  0.00    -0.096 N 
HETATM    4  C   UNL     1      25.710  43.389  51.747  1.00  0.00     0.113 C 
ENDROOT
BRANCH   1   5
HETATM    5  C   UNL     1      24.869  43.868  49.553  1.00  0.00     0.119 A 
HETATM    6  N   UNL     1      24.629  45.165  49.589  1.00  0.00    -0.239 NA
HETATM    7  C   UNL     1      23.631  45.520  48.687  1.00  0.00     0.075 A 
HETATM    8  C   UNL     1      23.215  44.487  47.872  1.00  0.00     0.084 A 
HETATM    9  S   UNL     1      24.012  43.033  48.298  1.00  0.00    -0.078 SA
BRANCH   7  10
HETATM   10  C   UNL     1      23.092  46.880  48.655  1.00  0.00    -0.007 A 
HETATM   11  C   UNL     1      23.705  47.883  49.420  1.00  0.00     0.014 A 
HETATM   12  C   UNL     1      23.197  49.186  49.441  1.00  0.00     0.008 A 
HETATM   13  C   UNL     1      22.057  49.517  48.700  1.00  0.00    -0.058 A 
HETATM   14  C   UNL     1      21.438  48.520  47.937  1.00  0.00     0.008 A 
HETATM   15  C   UNL     1      21.949  47.217  47.916  1.00  0.00     0.014 A 
BRANCH  13  16
HETATM   16  C   UNL     1      21.502  50.921  48.722  1.00  0.00     0.042 C 
BRANCH  16  17
HETATM   17  C   UNL     1      19.966  50.976  48.829  1.00  0.00    -0.019 C 
HETATM   18  C   UNL     1      19.416  52.354  48.446  1.00  0.00     0.010 C 
HETATM   19  C   UNL     1      19.530  50.623  50.252  1.00  0.00     0.010 C 
ENDBRANCH  16  17
ENDBRANCH  13  16
ENDBRANCH   7  10
ENDBRANCH   1   5
BRANCH   4  20
HETATM   20  N   UNL     1      26.400  42.838  52.821  1.00  0.00    -0.364 N 
HETATM   21  H   UNL     1      25.787  42.280  53.418  1.00  0.00     0.165 HD
BRANCH  20  22
HETATM   22  C   UNL     1      27.356  43.576  53.566  1.00  0.00     0.048 A 
HETATM   23  C   UNL     1      27.002  44.755  54.281  1.00  0.00     0.039 A 
HETATM   24  C   UNL     1      27.899  45.363  55.173  1.00  0.00     0.057 A 
HETATM   25  C   UNL     1      29.141  44.789  55.318  1.00  0.00     0.106 A 
HETATM   26  C   UNL     1      29.508  43.671  54.609  1.00  0.00     0.107 A 
HETATM   27  O   UNL     1      30.126  45.228  56.145  1.00  0.00    -0.323 OA
HETATM   28  O   UNL     1      30.771  43.262  54.907  1.00  0.00    -0.323 OA
HETATM   29  C   UNL     1      28.648  43.046  53.727  1.00  0.00     0.070 A 
HETATM   30  C   UNL     1      31.120  44.202  55.947  1.00  0.00     0.352 A 
BRANCH  23  31
HETATM   31  C   UNL     1      25.693  45.432  54.099  1.00  0.00     0.158 C 
HETATM   32  C   UNL     1      25.657  46.765  53.394  1.00  0.00     0.097 C 
HETATM   33  O   UNL     1      24.680  44.925  54.576  1.00  0.00    -0.293 OA
ENDBRANCH  23  31
ENDBRANCH  20  22
ENDBRANCH   4  20
TORSDOF 7
ENDMDL
MODEL 10
REMARK VINA RESULT:      -8.8      2.929      5.243
REMARK  7 active torsions:
REMARK  status: ('A' for Active; 'I' for Inactive)
REMARK    1  A    between atoms: C_2  and  C_3 
REMARK    2  A    between atoms: C_3  and  C_4 
REMARK    3  A    between atoms: C_7  and  C_8 
REMARK    4  A    between atoms: C_10  and  C_11 
REMARK    5  A    between atoms: C_14  and  N_15 
REMARK    6  A    between atoms: N_15  and  C_16 
REMARK    7  A    between atoms: C_17  and  C_18 
ROOT
HETATM    1  C   UNL     1      24.855  44.418  50.164  1.00  0.00     0.082 C 
HETATM    2  C   UNL     1      24.122  43.581  49.127  1.00  0.00     0.024 C 
HETATM    3  N   UNL     1      23.516  42.886  48.267  1.00  0.00    -0.096 N 
HETATM    4  C   UNL     1      25.515  43.875  51.204  1.00  0.00     0.113 C 
ENDROOT
BRANCH   1   5
HETATM    5  C   UNL     1      24.896  45.829  49.959  1.00  0.00     0.119 A 
HETATM    6  N   UNL     1      23.857  46.638  49.877  1.00  0.00    -0.239 NA
HETATM    7  C   UNL     1      24.247  47.930  49.539  1.00  0.00     0.075 A 
HETATM    8  C   UNL     1      25.615  48.113  49.500  1.00  0.00     0.084 A 
HETATM    9  S   UNL     1      26.423  46.634  49.796  1.00  0.00    -0.078 SA
BRANCH   7  10
HETATM   10  C   UNL     1      23.255  48.965  49.247  1.00  0.00    -0.007 A 
HETATM   11  C   UNL     1      21.893  48.635  49.252  1.00  0.00     0.014 A 
HETATM   12  C   UNL     1      20.918  49.591  48.942  1.00  0.00     0.008 A 
HETATM   13  C   UNL     1      21.285  50.901  48.616  1.00  0.00    -0.058 A 
HETATM   14  C   UNL     1      22.644  51.236  48.605  1.00  0.00     0.008 A 
HETATM   15  C   UNL     1      23.617  50.279  48.916  1.00  0.00     0.014 A 
BRANCH  13  16
HETATM   16  C   UNL     1      20.238  51.934  48.276  1.00  0.00     0.042 C 
BRANCH  16  17
HETATM   17  C   UNL     1      18.797  51.472  48.562  1.00  0.00    -0.019 C 
HETATM   18  C   UNL     1      17.879  51.683  47.354  1.00  0.00     0.010 C 
HETATM   19  C   UNL     1      18.240  52.225  49.771  1.00  0.00     0.010 C 
ENDBRANCH  16  17
ENDBRANCH  13  16
ENDBRANCH   7  10
ENDBRANCH   1   5
BRANCH   4  20
HETATM   20  N   UNL     1      25.637  42.569  51.666  1.00  0.00    -0.364 N 
HETATM   21  H   UNL     1      25.540  42.517  52.681  1.00  0.00     0.165 HD
BRANCH  20  22
HETATM   22  C   UNL     1      26.622  41.678  51.168  1.00  0.00     0.048 A 
HETATM   23  C   UNL     1      27.860  41.476  51.843  1.00  0.00     0.039 A 
HETATM   24  C   UNL     1      28.739  40.451  51.460  1.00  0.00     0.057 A 
HETATM   25  C   UNL     1      28.371  39.660  50.397  1.00  0.00     0.106 A 
HETATM   26  C   UNL     1      27.196  39.865  49.715  1.00  0.00     0.107 A 
HETATM   27  O   UNL     1      29.084  38.616  49.901  1.00  0.00    -0.323 OA
HETATM   28  O   UNL     1      27.020  38.969  48.707  1.00  0.00    -0.323 OA
HETATM   29  C   UNL     1      26.306  40.861  50.069  1.00  0.00     0.070 A 
HETATM   30  C   UNL     1      28.179  38.127  48.891  1.00  0.00     0.352 A 
BRANCH  23  31
HETATM   31  C   UNL     1      28.312  42.352  52.953  1.00  0.00     0.158 C 
HETATM   32  C   UNL     1      29.771  42.726  53.035  1.00  0.00     0.097 C 
HETATM   33  O   UNL     1      27.506  42.704  53.812  1.00  0.00    -0.293 OA
ENDBRANCH  23  31
ENDBRANCH  20  22
ENDBRANCH   4  20
TORSDOF 7
ENDMDL
