MODEL 1
REMARK VINA RESULT:      -8.8      0.000      0.000
REMARK  7 active torsions:
REMARK  status: ('A' for Active; 'I' for Inactive)
REMARK    1  A    between atoms: C_4  and  C_5 
REMARK    2  A    between atoms: C_10  and  C_11 
REMARK       I    between atoms: C_11  and  N_12 
REMARK    3  A    between atoms: N_12  and  C_13 
REMARK    4  A    between atoms: C_13  and  C_14 
REMARK    5  A    between atoms: C_14  and  C_15 
REMARK    6  A    between atoms: C_15  and  N_16 
REMARK    7  A    between atoms: C_26  and  C_27 
ROOT
HETATM    1  C   UNL     1      29.319  44.501  54.836  1.00  0.00     0.125 C 
HETATM    2  N   UNL     1      28.117  45.231  54.414  1.00  0.00    -0.365 N 
HETATM    3  C   UNL     1      27.271  44.712  53.492  1.00  0.00     0.141 A 
HETATM    4  N   UNL     1      27.367  43.404  53.103  1.00  0.00    -0.238 N 
HETATM    5  N   UNL     1      26.405  43.013  52.245  1.00  0.00    -0.163 NA
HETATM    6  C   UNL     1      25.707  44.150  52.006  1.00  0.00     0.165 A 
HETATM    7  C   UNL     1      26.214  45.221  52.782  1.00  0.00     0.092 A 
HETATM    8 BR   UNL     1      25.560  46.975  52.846  1.00  0.00    -0.044 Br
HETATM    9  C   UNL     1      28.396  42.489  53.570  1.00  0.00     0.221 C 
HETATM   10  C   UNL     1      28.990  42.994  54.896  1.00  0.00     0.067 C 
HETATM   11  H   UNL     1      28.174  46.242  54.545  1.00  0.00     0.162 HD
ENDROOT
BRANCH   6  12
HETATM   12  C   UNL     1      24.587  44.137  51.058  1.00  0.00     0.273 C 
HETATM   13  N   UNL     1      24.843  44.823  49.886  1.00  0.00    -0.355 N 
HETATM   14  H   UNL     1      25.735  45.324  49.877  1.00  0.00     0.162 HD
HETATM   15  O   UNL     1      23.512  43.561  51.231  1.00  0.00    -0.266 OA
BRANCH  13  16
HETATM   16  C   UNL     1      23.825  45.135  48.913  1.00  0.00     0.124 C 
BRANCH  16  17
HETATM   17  C   UNL     1      23.344  46.586  48.964  1.00  0.00     0.047 C 
BRANCH  17  18
HETATM   18  C   UNL     1      23.991  47.501  50.005  1.00  0.00     0.236 C 
BRANCH  18  19
HETATM   19  N   UNL     1      24.655  48.720  49.427  1.00  0.00    -0.067 N 
HETATM   20  H   UNL     1      24.590  49.469  50.149  1.00  0.00     0.280 HD
HETATM   21  C   UNL     1      26.110  48.543  49.035  1.00  0.00     0.261 C 
HETATM   22  C   UNL     1      26.663  49.858  48.476  1.00  0.00     0.195 C 
HETATM   23  O   UNL     1      25.889  50.312  47.361  1.00  0.00    -0.388 OA
HETATM   24  C   UNL     1      24.530  50.564  47.740  1.00  0.00     0.195 C 
HETATM   25  C   UNL     1      23.862  49.281  48.247  1.00  0.00     0.261 C 
ENDBRANCH  18  19
ENDBRANCH  17  18
ENDBRANCH  16  17
ENDBRANCH  13  16
ENDBRANCH   6  12
BRANCH   9  26
HETATM   26  C   UNL     1      29.447  42.317  52.495  1.00  0.00     0.409 C 
HETATM   27  F   UNL     1      29.597  43.418  51.728  1.00  0.00    -0.169 F 
HETATM   28  F   UNL     1      30.652  42.056  53.057  1.00  0.00    -0.169 F 
HETATM   29  F   UNL     1      29.171  41.281  51.672  1.00  0.00    -0.169 F 
ENDBRANCH   9  26
BRANCH   1  30
HETATM   30  C   UNL     1      29.846  44.965  56.172  1.00  0.00     0.005 A 
HETATM   31  S   UNL     1      31.176  44.156  56.895  1.00  0.00    -0.104 SA
HETATM   32  C   UNL     1      31.146  45.184  58.259  1.00  0.00     0.050 A 
HETATM   33  C   UNL     1      30.145  46.126  58.175  1.00  0.00     0.008 A 
HETATM   34  C   UNL     1      29.395  45.999  56.972  1.00  0.00     0.017 A 
ENDBRANCH   1  30
TORSDOF 7
ENDMDL
MODEL 2
REMARK VINA RESULT:      -8.7      2.472      3.071
REMARK  7 active torsions:
REMARK  status: ('A' for Active; 'I' for Inactive)
REMARK    1  A    between atoms: C_4  and  C_5 
REMARK    2  A    between atoms: C_10  and  C_11 
REMARK       I    between atoms: C_11  and  N_12 
REMARK    3  A    between atoms: N_12  and  C_13 
REMARK    4  A    between atoms: C_13  and  C_14 
REMARK    5  A    between atoms: C_14  and  C_15 
REMARK    6  A    between atoms: C_15  and  N_16 
REMARK    7  A    between atoms: C_26  and  C_27 
ROOT
HETATM    1  C   UNL     1      28.931  43.561  53.747  1.00  0.00     0.125 C 
HETATM    2  N   UNL     1      27.962  44.578  53.323  1.00  0.00    -0.365 N 
HETATM    3  C   UNL     1      26.908  44.255  52.535  1.00  0.00     0.141 A 
HETATM    4  N   UNL     1      26.571  42.949  52.307  1.00  0.00    -0.238 N 
HETATM    5  N   UNL     1      25.452  42.790  51.575  1.00  0.00    -0.163 NA
HETATM    6  C   UNL     1      25.101  44.057  51.245  1.00  0.00     0.165 A 
HETATM    7  C   UNL     1      25.981  44.992  51.843  1.00  0.00     0.092 A 
HETATM    8 BR   UNL     1      25.887  46.859  51.731  1.00  0.00    -0.044 Br
HETATM    9  C   UNL     1      27.325  41.814  52.812  1.00  0.00     0.221 C 
HETATM   10  C   UNL     1      28.178  42.240  54.019  1.00  0.00     0.067 C 
HETATM   11  H   UNL     1      28.329  45.531  53.321  1.00  0.00     0.162 HD
ENDROOT
BRANCH   6  12
HETATM   12  C   UNL     1      23.935  44.294  50.386  1.00  0.00     0.273 C 
HETATM   13  N   UNL     1      24.218  45.039  49.257  1.00  0.00    -0.355 N 
HETATM   14  H   UNL     1      25.173  45.403  49.221  1.00  0.00     0.162 HD
HETATM   15  O   UNL     1      22.797  43.868  50.593  1.00  0.00    -0.266 OA
BRANCH  13  16
HETATM   16  C   UNL     1      23.200  45.584  48.392  1.00  0.00     0.124 C 
BRANCH  16  17
HETATM   17  C   UNL     1      22.769  47.004  48.762  1.00  0.00     0.047 C 
BRANCH  17  18
HETATM   18  C   UNL     1      21.288  47.350  48.598  1.00  0.00     0.236 C 
BRANCH  18  19
HETATM   19  N   UNL     1      20.800  48.429  49.526  1.00  0.00    -0.067 N 
HETATM   20  H   UNL     1      21.226  48.239  50.459  1.00  0.00     0.280 HD
HETATM   21  C   UNL     1      21.143  49.847  49.110  1.00  0.00     0.261 C 
HETATM   22  C   UNL     1      20.600  50.839  50.144  1.00  0.00     0.195 C 
HETATM   23  O   UNL     1      19.187  50.687  50.313  1.00  0.00    -0.388 OA
HETATM   24  C   UNL     1      18.858  49.376  50.787  1.00  0.00     0.195 C 
HETATM   25  C   UNL     1      19.298  48.309  49.779  1.00  0.00     0.261 C 
ENDBRANCH  18  19
ENDBRANCH  17  18
ENDBRANCH  16  17
ENDBRANCH  13  16
ENDBRANCH   6  12
BRANCH   9  26
HETATM   26  C   UNL     1      28.160  41.223  51.696  1.00  0.00     0.409 C 
HETATM   27  F   UNL     1      29.257  40.579  52.147  1.00  0.00    -0.169 F 
HETATM   28  F   UNL     1      27.431  40.323  50.992  1.00  0.00    -0.169 F 
HETATM   29  F   UNL     1      28.571  42.163  50.815  1.00  0.00    -0.169 F 
ENDBRANCH   9  26
BRANCH   1  30
HETATM   30  C   UNL     1      29.709  43.969  54.975  1.00  0.00     0.005 A 
HETATM   31  S   UNL     1      29.331  45.438  55.778  1.00  0.00    -0.104 SA
HETATM   32  C   UNL     1      30.555  45.194  56.943  1.00  0.00     0.050 A 
HETATM   33  C   UNL     1      31.245  44.021  56.732  1.00  0.00     0.008 A 
HETATM   34  C   UNL     1      30.756  43.314  55.596  1.00  0.00     0.017 A 
ENDBRANCH   1  30
TORSDOF 7
ENDMDL
MODEL 3
REMARK VINA RESULT:      -8.4      3.700      5.908
REMARK  7 active torsions:
REMARK  status: ('A' for Active; 'I' for Inactive)
REMARK    1  A    between atoms: C_4  and  C_5 
REMARK    2  A    between atoms: C_10  and  C_11 
REMARK       I    between atoms: C_11  and  N_12 
REMARK    3  A    between atoms: N_12  and  C_13 
REMARK    4  A    between atoms: C_13  and  C_14 
REMARK    5  A    between atoms: C_14  and  C_15 
REMARK    6  A    between atoms: C_15  and  N_16 
REMARK    7  A    between atoms: C_26  and  C_27 
ROOT
HETATM    1  C   UNL     1      26.503  44.523  51.179  1.00  0.00     0.125 C 
HETATM    2  N   UNL     1      26.860  45.881  50.756  1.00  0.00    -0.365 N 
HETATM    3  C   UNL     1      25.940  46.708  50.205  1.00  0.00     0.141 A 
HETATM    4  N   UNL     1      24.606  46.405  50.244  1.00  0.00    -0.238 N 
HETATM    5  N   UNL     1      23.809  47.363  49.731  1.00  0.00    -0.163 NA
HETATM    6  C   UNL     1      24.681  48.289  49.263  1.00  0.00     0.165 A 
HETATM    7  C   UNL     1      26.015  47.915  49.558  1.00  0.00     0.092 A 
HETATM    8 BR   UNL     1      27.569  48.884  49.167  1.00  0.00    -0.044 Br
HETATM    9  C   UNL     1      24.067  45.174  50.798  1.00  0.00     0.221 C 
HETATM   10  C   UNL     1      25.078  44.546  51.773  1.00  0.00     0.067 C 
HETATM   11  H   UNL     1      27.852  46.006  50.544  1.00  0.00     0.162 HD
ENDROOT
BRANCH   6  12
HETATM   12  C   UNL     1      24.181  49.483  48.571  1.00  0.00     0.273 C 
HETATM   13  N   UNL     1      23.224  50.179  49.283  1.00  0.00    -0.355 N 
HETATM   14  H   UNL     1      22.926  49.721  50.148  1.00  0.00     0.162 HD
HETATM   15  O   UNL     1      24.566  49.883  47.471  1.00  0.00    -0.266 OA
BRANCH  13  16
HETATM   16  C   UNL     1      22.434  51.244  48.716  1.00  0.00     0.124 C 
BRANCH  16  17
HETATM   17  C   UNL     1      20.935  50.947  48.672  1.00  0.00     0.047 C 
BRANCH  17  18
HETATM   18  C   UNL     1      20.292  50.405  49.950  1.00  0.00     0.236 C 
BRANCH  18  19
HETATM   19  N   UNL     1      19.568  49.099  49.771  1.00  0.00    -0.067 N 
HETATM   20  H   UNL     1      19.570  48.625  50.700  1.00  0.00     0.280 HD
HETATM   21  C   UNL     1      18.137  49.211  49.281  1.00  0.00     0.261 C 
HETATM   22  C   UNL     1      17.518  47.815  49.156  1.00  0.00     0.195 C 
HETATM   23  O   UNL     1      18.290  46.984  48.283  1.00  0.00    -0.388 OA
HETATM   24  C   UNL     1      19.622  46.802  48.781  1.00  0.00     0.195 C 
HETATM   25  C   UNL     1      20.354  48.145  48.872  1.00  0.00     0.261 C 
ENDBRANCH  18  19
ENDBRANCH  17  18
ENDBRANCH  16  17
ENDBRANCH  13  16
ENDBRANCH   6  12
BRANCH   9  26
HETATM   26  C   UNL     1      23.689  44.235  49.673  1.00  0.00     0.409 C 
HETATM   27  F   UNL     1      24.479  44.374  48.587  1.00  0.00    -0.169 F 
HETATM   28  F   UNL     1      23.798  42.948  50.082  1.00  0.00    -0.169 F 
HETATM   29  F   UNL     1      22.410  44.407  49.273  1.00  0.00    -0.169 F 
ENDBRANCH   9  26
BRANCH   1  30
HETATM   30  C   UNL     1      27.469  43.951  52.188  1.00  0.00     0.005 A 
HETATM   31  S   UNL     1      28.173  42.409  51.920  1.00  0.00    -0.104 SA
HETATM   32  C   UNL     1      29.048  42.480  53.385  1.00  0.00     0.050 A 
HETATM   33  C   UNL     1      28.813  43.649  54.073  1.00  0.00     0.008 A 
HETATM   34  C   UNL     1      27.902  44.498  53.382  1.00  0.00     0.017 A 
ENDBRANCH   1  30
TORSDOF 7
ENDMDL
MODEL 4
REMARK VINA RESULT:      -8.3      5.915      9.708
REMARK  7 active torsions:
REMARK  status: ('A' for Active; 'I' for Inactive)
REMARK    1  A    between atoms: C_4  and  C_5 
REMARK    2  A    between atoms: C_10  and  C_11 
REMARK       I    between atoms: C_11  and  N_12 
REMARK    3  A    between atoms: N_12  and  C_13 
REMARK    4  A    between atoms: C_13  and  C_14 
REMARK    5  A    between atoms: C_14  and  C_15 
REMARK    6  A    between atoms: C_15  and  N_16 
REMARK    7  A    between atoms: C_26  and  C_27 
ROOT
HETATM    1  C   UNL     1      20.163  50.430  48.512  1.00  0.00     0.125 C 
HETATM    2  N   UNL     1      19.881  49.004  48.307  1.00  0.00    -0.365 N 
HETATM    3  C   UNL     1      20.850  48.070  48.465  1.00  0.00     0.141 A 
HETATM    4  N   UNL     1      22.046  48.385  49.049  1.00  0.00    -0.238 N 
HETATM    5  N   UNL     1      22.872  47.334  49.213  1.00  0.00    -0.163 NA
HETATM    6  C   UNL     1      22.207  46.308  48.627  1.00  0.00     0.165 A 
HETATM    7  C   UNL     1      20.937  46.734  48.166  1.00  0.00     0.092 A 
HETATM    8 BR   UNL     1      19.628  45.682  47.337  1.00  0.00    -0.044 Br
HETATM    9  C   UNL     1      22.414  49.724  49.480  1.00  0.00     0.221 C 
HETATM   10  C   UNL     1      21.151  50.577  49.689  1.00  0.00     0.067 C 
HETATM   11  H   UNL     1      19.086  48.818  47.693  1.00  0.00     0.162 HD
ENDROOT
BRANCH   6  12
HETATM   12  C   UNL     1      22.824  44.979  48.555  1.00  0.00     0.273 C 
HETATM   13  N   UNL     1      22.688  44.239  49.713  1.00  0.00    -0.355 N 
HETATM   14  H   UNL     1      22.262  44.748  50.490  1.00  0.00     0.162 HD
HETATM   15  O   UNL     1      23.397  44.512  47.568  1.00  0.00    -0.266 OA
BRANCH  13  16
HETATM   16  C   UNL     1      23.400  43.007  49.954  1.00  0.00     0.124 C 
BRANCH  16  17
HETATM   17  C   UNL     1      24.462  43.111  51.048  1.00  0.00     0.047 C 
BRANCH  17  18
HETATM   18  C   UNL     1      25.865  43.545  50.621  1.00  0.00     0.236 C 
BRANCH  18  19
HETATM   19  N   UNL     1      26.172  44.993  50.890  1.00  0.00    -0.067 N 
HETATM   20  H   UNL     1      27.118  45.024  51.327  1.00  0.00     0.280 HD
HETATM   21  C   UNL     1      26.164  45.896  49.671  1.00  0.00     0.261 C 
HETATM   22  C   UNL     1      26.503  47.333  50.085  1.00  0.00     0.195 C 
HETATM   23  O   UNL     1      25.591  47.812  51.078  1.00  0.00    -0.388 OA
HETATM   24  C   UNL     1      25.651  47.016  52.268  1.00  0.00     0.195 C 
HETATM   25  C   UNL     1      25.253  45.566  51.970  1.00  0.00     0.261 C 
ENDBRANCH  18  19
ENDBRANCH  17  18
ENDBRANCH  16  17
ENDBRANCH  13  16
ENDBRANCH   6  12
BRANCH   9  26
HETATM   26  C   UNL     1      23.365  50.337  48.476  1.00  0.00     0.409 C 
HETATM   27  F   UNL     1      24.654  50.009  48.708  1.00  0.00    -0.169 F 
HETATM   28  F   UNL     1      23.065  49.909  47.225  1.00  0.00    -0.169 F 
HETATM   29  F   UNL     1      23.283  51.686  48.454  1.00  0.00    -0.169 F 
ENDBRANCH   9  26
BRANCH   1  30
HETATM   30  C   UNL     1      18.917  51.239  48.784  1.00  0.00     0.005 A 
HETATM   31  S   UNL     1      17.655  51.284  47.622  1.00  0.00    -0.104 SA
HETATM   32  C   UNL     1      16.710  52.325  48.591  1.00  0.00     0.050 A 
HETATM   33  C   UNL     1      17.335  52.639  49.777  1.00  0.00     0.008 A 
HETATM   34  C   UNL     1      18.610  52.013  49.888  1.00  0.00     0.017 A 
ENDBRANCH   1  30
TORSDOF 7
ENDMDL
MODEL 5
REMARK VINA RESULT:      -8.2      3.237      5.587
REMARK  7 active torsions:
REMARK  status: ('A' for Active; 'I' for Inactive)
REMARK    1  A    between atoms: C_4  and  C_5 
REMARK    2  A    between atoms: C_10  and  C_11 
REMARK       I    between atoms: C_11  and  N_12 
REMARK    3  A    between atoms: N_12  and  C_13 
REMARK    4  A    between atoms: C_13  and  C_14 
REMARK    5  A    between atoms: C_14  and  C_15 
REMARK    6  A    between atoms: C_15  and  N_16 
REMARK    7  A    between atoms: C_26  and  C_27 
ROOT
HETATM    1  C   UNL     1      26.704  44.605  51.352  1.00  0.00     0.125 C 
HETATM    2  N   UNL     1      27.000  45.958  50.865  1.00  0.00    -0.365 N 
HETATM    3  C   UNL     1      26.034  46.729  50.311  1.00  0.00     0.141 A 
HETATM    4  N   UNL     1      24.714  46.382  50.405  1.00  0.00    -0.238 N 
HETATM    5  N   UNL     1      23.868  47.291  49.880  1.00  0.00    -0.163 NA
HETATM    6  C   UNL     1      24.691  48.227  49.349  1.00  0.00     0.165 A 
HETATM    7  C   UNL     1      26.046  47.912  49.616  1.00  0.00     0.092 A 
HETATM    8 BR   UNL     1      27.553  48.917  49.139  1.00  0.00    -0.044 Br
HETATM    9  C   UNL     1      24.235  45.157  51.023  1.00  0.00     0.221 C 
HETATM   10  C   UNL     1      25.297  44.603  51.989  1.00  0.00     0.067 C 
HETATM   11  H   UNL     1      27.979  46.108  50.617  1.00  0.00     0.162 HD
ENDROOT
BRANCH   6  12
HETATM   12  C   UNL     1      24.129  49.374  48.627  1.00  0.00     0.273 C 
HETATM   13  N   UNL     1      23.081  49.988  49.287  1.00  0.00    -0.355 N 
HETATM   14  H   UNL     1      22.779  49.506  50.137  1.00  0.00     0.162 HD
HETATM   15  O   UNL     1      24.534  49.805  47.546  1.00  0.00    -0.266 OA
BRANCH  13  16
HETATM   16  C   UNL     1      22.234  50.982  48.676  1.00  0.00     0.124 C 
BRANCH  16  17
HETATM   17  C   UNL     1      21.041  50.398  47.919  1.00  0.00     0.047 C 
BRANCH  17  18
HETATM   18  C   UNL     1      20.110  49.465  48.695  1.00  0.00     0.236 C 
BRANCH  18  19
HETATM   19  N   UNL     1      20.433  48.004  48.541  1.00  0.00    -0.067 N 
HETATM   20  H   UNL     1      21.144  47.775  49.269  1.00  0.00     0.280 HD
HETATM   21  C   UNL     1      19.255  47.059  48.692  1.00  0.00     0.261 C 
HETATM   22  C   UNL     1      19.725  45.610  48.526  1.00  0.00     0.195 C 
HETATM   23  O   UNL     1      20.372  45.418  47.264  1.00  0.00    -0.388 OA
HETATM   24  C   UNL     1      21.536  46.245  47.144  1.00  0.00     0.195 C 
HETATM   25  C   UNL     1      21.158  47.728  47.224  1.00  0.00     0.261 C 
ENDBRANCH  18  19
ENDBRANCH  17  18
ENDBRANCH  16  17
ENDBRANCH  13  16
ENDBRANCH   6  12
BRANCH   9  26
HETATM   26  C   UNL     1      23.858  44.161  49.948  1.00  0.00     0.409 C 
HETATM   27  F   UNL     1      24.084  42.882  50.317  1.00  0.00    -0.169 F 
HETATM   28  F   UNL     1      22.539  44.264  49.657  1.00  0.00    -0.169 F 
HETATM   29  F   UNL     1      24.528  44.378  48.794  1.00  0.00    -0.169 F 
ENDBRANCH   9  26
BRANCH   1  30
HETATM   30  C   UNL     1      27.720  44.108  52.351  1.00  0.00     0.005 A 
HETATM   31  S   UNL     1      27.466  44.363  54.029  1.00  0.00    -0.104 SA
HETATM   32  C   UNL     1      28.933  43.589  54.437  1.00  0.00     0.050 A 
HETATM   33  C   UNL     1      29.610  43.143  53.324  1.00  0.00     0.008 A 
HETATM   34  C   UNL     1      28.910  43.443  52.120  1.00  0.00     0.017 A 
ENDBRANCH   1  30
TORSDOF 7
ENDMDL
MODEL 6
REMARK VINA RESULT:      -8.2     12.043     13.251
REMARK  7 active torsions:
REMARK  status: ('A' for Active; 'I' for Inactive)
REMARK    1  A    between atoms: C_4  and  C_5 
REMARK    2  A    between atoms: C_10  and  C_11 
REMARK       I    between atoms: C_11  and  N_12 
REMARK    3  A    between atoms: N_12  and  C_13 
REMARK    4  A    between atoms: C_13  and  C_14 
REMARK    5  A    between atoms: C_14  and  C_15 
REMARK    6  A    between atoms: C_15  and  N_16 
REMARK    7  A    between atoms: C_26  and  C_27 
ROOT
HETATM    1  C   UNL     1      32.108  50.286  41.623  1.00  0.00     0.125 C 
HETATM    2  N   UNL     1      31.077  51.163  41.056  1.00  0.00    -0.365 N 
HETATM    3  C   UNL     1      29.963  50.651  40.480  1.00  0.00     0.141 A 
HETATM    4  N   UNL     1      29.640  49.329  40.620  1.00  0.00    -0.238 N 
HETATM    5  N   UNL     1      28.461  48.989  40.063  1.00  0.00    -0.163 NA
HETATM    6  C   UNL     1      28.047  50.132  39.464  1.00  0.00     0.165 A 
HETATM    7  C   UNL     1      28.955  51.188  39.721  1.00  0.00     0.092 A 
HETATM    8 BR   UNL     1      28.801  52.968  39.157  1.00  0.00    -0.044 Br
HETATM    9  C   UNL     1      30.468  48.358  41.315  1.00  0.00     0.221 C 
HETATM   10  C   UNL     1      31.420  49.075  42.288  1.00  0.00     0.067 C 
HETATM   11  H   UNL     1      31.417  52.086  40.781  1.00  0.00     0.162 HD
ENDROOT
BRANCH   6  12
HETATM   12  C   UNL     1      26.800  50.144  38.691  1.00  0.00     0.273 C 
HETATM   13  N   UNL     1      25.663  50.026  39.467  1.00  0.00    -0.355 N 
HETATM   14  H   UNL     1      25.846  49.851  40.458  1.00  0.00     0.162 HD
HETATM   15  O   UNL     1      26.720  50.274  37.468  1.00  0.00    -0.266 OA
BRANCH  13  16
HETATM   16  C   UNL     1      24.350  49.789  38.918  1.00  0.00     0.124 C 
BRANCH  16  17
HETATM   17  C   UNL     1      23.655  48.552  39.487  1.00  0.00     0.047 C 
BRANCH  17  18
HETATM   18  C   UNL     1      23.895  47.223  38.769  1.00  0.00     0.236 C 
BRANCH  18  19
HETATM   19  N   UNL     1      24.954  46.362  39.399  1.00  0.00    -0.067 N 
HETATM   20  H   UNL     1      24.578  45.390  39.422  1.00  0.00     0.280 HD
HETATM   21  C   UNL     1      26.293  46.353  38.686  1.00  0.00     0.261 C 
HETATM   22  C   UNL     1      27.271  45.431  39.423  1.00  0.00     0.195 C 
HETATM   23  O   UNL     1      27.426  45.830  40.789  1.00  0.00    -0.388 OA
HETATM   24  C   UNL     1      26.181  45.761  41.496  1.00  0.00     0.195 C 
HETATM   25  C   UNL     1      25.152  46.712  40.874  1.00  0.00     0.261 C 
ENDBRANCH  18  19
ENDBRANCH  17  18
ENDBRANCH  16  17
ENDBRANCH  13  16
ENDBRANCH   6  12
BRANCH   9  26
HETATM   26  C   UNL     1      31.209  47.508  40.305  1.00  0.00     0.409 C 
HETATM   27  F   UNL     1      32.401  47.070  40.763  1.00  0.00    -0.169 F 
HETATM   28  F   UNL     1      30.478  46.412  39.988  1.00  0.00    -0.169 F 
HETATM   29  F   UNL     1      31.434  48.171  39.149  1.00  0.00    -0.169 F 
ENDBRANCH   9  26
BRANCH   1  30
HETATM   30  C   UNL     1      32.987  50.991  42.628  1.00  0.00     0.005 A 
HETATM   31  S   UNL     1      34.658  51.209  42.300  1.00  0.00    -0.104 SA
HETATM   32  C   UNL     1      34.916  52.001  43.791  1.00  0.00     0.050 A 
HETATM   33  C   UNL     1      33.760  52.101  44.532  1.00  0.00     0.008 A 
HETATM   34  C   UNL     1      32.646  51.517  43.861  1.00  0.00     0.017 A 
ENDBRANCH   1  30
TORSDOF 7
ENDMDL
MODEL 7
REMARK VINA RESULT:      -8.2      4.468      6.311
REMARK  7 active torsions:
REMARK  status: ('A' for Active; 'I' for Inactive)
REMARK    1  A    between atoms: C_4  and  C_5 
REMARK    2  A    between atoms: C_10  and  C_11 
REMARK       I    between atoms: C_11  and  N_12 
REMARK    3  A    between atoms: N_12  and  C_13 
REMARK    4  A    between atoms: C_13  and  C_14 
REMARK    5  A    between atoms: C_14  and  C_15 
REMARK    6  A    between atoms: C_15  and  N_16 
REMARK    7  A    between atoms: C_26  and  C_27 
ROOT
HETATM    1  C   UNL     1      26.658  44.684  51.270  1.00  0.00     0.125 C 
HETATM    2  N   UNL     1      26.923  46.051  50.806  1.00  0.00    -0.365 N 
HETATM    3  C   UNL     1      25.944  46.804  50.252  1.00  0.00     0.141 A 
HETATM    4  N   UNL     1      24.632  46.421  50.324  1.00  0.00    -0.238 N 
HETATM    5  N   UNL     1      23.769  47.314  49.803  1.00  0.00    -0.163 NA
HETATM    6  C   UNL     1      24.573  48.280  49.295  1.00  0.00     0.165 A 
HETATM    7  C   UNL     1      25.933  47.997  49.575  1.00  0.00     0.092 A 
HETATM    8 BR   UNL     1      27.417  49.049  49.130  1.00  0.00    -0.044 Br
HETATM    9  C   UNL     1      24.180  45.174  50.919  1.00  0.00     0.221 C 
HETATM   10  C   UNL     1      25.245  44.635  51.890  1.00  0.00     0.067 C 
HETATM   11  H   UNL     1      27.901  46.231  50.573  1.00  0.00     0.162 HD
ENDROOT
BRANCH   6  12
HETATM   12  C   UNL     1      23.988  49.422  48.583  1.00  0.00     0.273 C 
HETATM   13  N   UNL     1      22.958  50.036  49.268  1.00  0.00    -0.355 N 
HETATM   14  H   UNL     1      22.680  49.559  50.129  1.00  0.00     0.162 HD
HETATM   15  O   UNL     1      24.363  49.848  47.489  1.00  0.00    -0.266 OA
BRANCH  13  16
HETATM   16  C   UNL     1      22.092  51.026  48.675  1.00  0.00     0.124 C 
BRANCH  16  17
HETATM   17  C   UNL     1      20.609  50.813  48.979  1.00  0.00     0.047 C 
BRANCH  17  18
HETATM   18  C   UNL     1      19.629  50.945  47.812  1.00  0.00     0.236 C 
BRANCH  18  19
HETATM   19  N   UNL     1      18.299  51.537  48.187  1.00  0.00    -0.067 N 
HETATM   20  H   UNL     1      18.122  52.324  47.527  1.00  0.00     0.280 HD
HETATM   21  C   UNL     1      17.123  50.578  48.133  1.00  0.00     0.261 C 
HETATM   22  C   UNL     1      15.835  51.311  48.524  1.00  0.00     0.195 C 
HETATM   23  O   UNL     1      15.950  51.900  49.823  1.00  0.00    -0.388 OA
HETATM   24  C   UNL     1      17.004  52.870  49.864  1.00  0.00     0.195 C 
HETATM   25  C   UNL     1      18.355  52.215  49.557  1.00  0.00     0.261 C 
ENDBRANCH  18  19
ENDBRANCH  17  18
ENDBRANCH  16  17
ENDBRANCH  13  16
ENDBRANCH   6  12
BRANCH   9  26
HETATM   26  C   UNL     1      23.842  44.184  49.825  1.00  0.00     0.409 C 
HETATM   27  F   UNL     1      24.600  44.346  48.720  1.00  0.00    -0.169 F 
HETATM   28  F   UNL     1      24.043  42.917  50.262  1.00  0.00    -0.169 F 
HETATM   29  F   UNL     1      22.547  44.263  49.448  1.00  0.00    -0.169 F 
ENDBRANCH   9  26
BRANCH   1  30
HETATM   30  C   UNL     1      27.675  44.199  52.275  1.00  0.00     0.005 A 
HETATM   31  S   UNL     1      27.625  44.777  53.890  1.00  0.00    -0.104 SA
HETATM   32  C   UNL     1      28.986  43.846  54.336  1.00  0.00     0.050 A 
HETATM   33  C   UNL     1      29.476  43.108  53.282  1.00  0.00     0.008 A 
HETATM   34  C   UNL     1      28.720  43.312  52.092  1.00  0.00     0.017 A 
ENDBRANCH   1  30
TORSDOF 7
ENDMDL
MODEL 8
REMARK VINA RESULT:      -8.1      5.389      9.929
REMARK  7 active torsions:
REMARK  status: ('A' for Active; 'I' for Inactive)
REMARK    1  A    between atoms: C_4  and  C_5 
REMARK    2  A    between atoms: C_10  and  C_11 
REMARK       I    between atoms: C_11  and  N_12 
REMARK    3  A    between atoms: N_12  and  C_13 
REMARK    4  A    between atoms: C_13  and  C_14 
REMARK    5  A    between atoms: C_14  and  C_15 
REMARK    6  A    between atoms: C_15  and  N_16 
REMARK    7  A    between atoms: C_26  and  C_27 
ROOT
HETATM    1  C   UNL     1      20.887  48.602  48.494  1.00  0.00     0.125 C 
HETATM    2  N   UNL     1      21.493  47.279  48.687  1.00  0.00    -0.365 N 
HETATM    3  C   UNL     1      22.786  47.151  49.071  1.00  0.00     0.141 A 
HETATM    4  N   UNL     1      23.497  48.227  49.524  1.00  0.00    -0.238 N 
HETATM    5  N   UNL     1      24.740  47.926  49.948  1.00  0.00    -0.163 NA
HETATM    6  C   UNL     1      24.861  46.604  49.674  1.00  0.00     0.165 A 
HETATM    7  C   UNL     1      23.653  46.091  49.142  1.00  0.00     0.092 A 
HETATM    8 BR   UNL     1      23.301  44.317  48.654  1.00  0.00    -0.044 Br
HETATM    9  C   UNL     1      22.979  49.585  49.571  1.00  0.00     0.221 C 
HETATM   10  C   UNL     1      21.441  49.564  49.568  1.00  0.00     0.067 C 
HETATM   11  H   UNL     1      21.038  46.530  48.163  1.00  0.00     0.162 HD
ENDROOT
BRANCH   6  12
HETATM   12  C   UNL     1      26.124  45.911  49.950  1.00  0.00     0.273 C 
HETATM   13  N   UNL     1      26.068  45.065  51.041  1.00  0.00    -0.355 N 
HETATM   14  H   UNL     1      25.189  45.107  51.562  1.00  0.00     0.162 HD
HETATM   15  O   UNL     1      27.157  46.018  49.286  1.00  0.00    -0.266 OA
BRANCH  13  16
HETATM   16  C   UNL     1      27.235  44.457  51.633  1.00  0.00     0.124 C 
BRANCH  16  17
HETATM   17  C   UNL     1      27.084  44.150  53.123  1.00  0.00     0.047 C 
BRANCH  17  18
HETATM   18  C   UNL     1      27.414  45.275  54.105  1.00  0.00     0.236 C 
BRANCH  18  19
HETATM   19  N   UNL     1      28.781  45.171  54.725  1.00  0.00    -0.067 N 
HETATM   20  H   UNL     1      29.443  45.648  54.076  1.00  0.00     0.280 HD
HETATM   21  C   UNL     1      28.917  45.789  56.104  1.00  0.00     0.261 C 
HETATM   22  C   UNL     1      30.354  45.625  56.610  1.00  0.00     0.195 C 
HETATM   23  O   UNL     1      30.740  44.247  56.630  1.00  0.00    -0.388 OA
HETATM   24  C   UNL     1      30.696  43.674  55.317  1.00  0.00     0.195 C 
HETATM   25  C   UNL     1      29.273  43.724  54.752  1.00  0.00     0.261 C 
ENDBRANCH  18  19
ENDBRANCH  17  18
ENDBRANCH  16  17
ENDBRANCH  13  16
ENDBRANCH   6  12
BRANCH   9  26
HETATM   26  C   UNL     1      23.548  50.384  48.419  1.00  0.00     0.409 C 
HETATM   27  F   UNL     1      23.045  51.635  48.351  1.00  0.00    -0.169 F 
HETATM   28  F   UNL     1      24.892  50.502  48.549  1.00  0.00    -0.169 F 
HETATM   29  F   UNL     1      23.325  49.789  47.226  1.00  0.00    -0.169 F 
ENDBRANCH   9  26
BRANCH   1  30
HETATM   30  C   UNL     1      19.379  48.571  48.564  1.00  0.00     0.005 A 
HETATM   31  S   UNL     1      18.473  49.954  48.104  1.00  0.00    -0.104 SA
HETATM   32  C   UNL     1      16.990  49.180  48.451  1.00  0.00     0.050 A 
HETATM   33  C   UNL     1      17.172  47.894  48.910  1.00  0.00     0.008 A 
HETATM   34  C   UNL     1      18.551  47.543  48.976  1.00  0.00     0.017 A 
ENDBRANCH   1  30
TORSDOF 7
ENDMDL
MODEL 9
REMARK VINA RESULT:      -8.0     13.107     15.524
REMARK  7 active torsions:
REMARK  status: ('A' for Active; 'I' for Inactive)
REMARK    1  A    between atoms: C_4  and  C_5 
REMARK    2  A    between atoms: C_10  and  C_11 
REMARK       I    between atoms: C_11  and  N_12 
REMARK    3  A    between atoms: N_12  and  C_13 
REMARK    4  A    between atoms: C_13  and  C_14 
REMARK    5  A    between atoms: C_14  and  C_15 
REMARK    6  A    between atoms: C_15  and  N_16 
REMARK    7  A    between atoms: C_26  and  C_27 
ROOT
HETATM    1  C   UNL     1      28.439  50.433  39.471  1.00  0.00     0.125 C 
HETATM    2  N   UNL     1      29.335  49.795  40.443  1.00  0.00    -0.365 N 
HETATM    3  C   UNL     1      30.057  50.534  41.319  1.00  0.00     0.141 A 
HETATM    4  N   UNL     1      29.802  51.866  41.497  1.00  0.00    -0.238 N 
HETATM    5  N   UNL     1      30.544  52.443  42.462  1.00  0.00    -0.163 NA
HETATM    6  C   UNL     1      31.377  51.452  42.864  1.00  0.00     0.165 A 
HETATM    7  C   UNL     1      31.085  50.246  42.180  1.00  0.00     0.092 A 
HETATM    8 BR   UNL     1      31.919  48.586  42.419  1.00  0.00    -0.044 Br
HETATM    9  C   UNL     1      28.813  52.614  40.740  1.00  0.00     0.221 C 
HETATM   10  C   UNL     1      27.771  51.654  40.139  1.00  0.00     0.067 C 
HETATM   11  H   UNL     1      29.661  48.867  40.165  1.00  0.00     0.162 HD
ENDROOT
BRANCH   6  12
HETATM   12  C   UNL     1      32.393  51.719  43.888  1.00  0.00     0.273 C 
HETATM   13  N   UNL     1      33.633  52.041  43.371  1.00  0.00    -0.355 N 
HETATM   14  H   UNL     1      33.700  51.959  42.354  1.00  0.00     0.162 HD
HETATM   15  O   UNL     1      32.202  51.697  45.106  1.00  0.00    -0.266 OA
BRANCH  13  16
HETATM   16  C   UNL     1      34.829  52.121  44.174  1.00  0.00     0.124 C 
BRANCH  16  17
HETATM   17  C   UNL     1      36.123  51.978  43.371  1.00  0.00     0.047 C 
BRANCH  17  18
HETATM   18  C   UNL     1      36.170  50.878  42.311  1.00  0.00     0.236 C 
BRANCH  18  19
HETATM   19  N   UNL     1      35.873  51.352  40.915  1.00  0.00    -0.067 N 
HETATM   20  H   UNL     1      36.506  50.824  40.276  1.00  0.00     0.280 HD
HETATM   21  C   UNL     1      34.440  51.158  40.454  1.00  0.00     0.261 C 
HETATM   22  C   UNL     1      34.281  51.670  39.018  1.00  0.00     0.195 C 
HETATM   23  O   UNL     1      34.666  53.045  38.914  1.00  0.00    -0.388 OA
HETATM   24  C   UNL     1      36.044  53.227  39.267  1.00  0.00     0.195 C 
HETATM   25  C   UNL     1      36.290  52.810  40.720  1.00  0.00     0.261 C 
ENDBRANCH  18  19
ENDBRANCH  17  18
ENDBRANCH  16  17
ENDBRANCH  13  16
ENDBRANCH   6  12
BRANCH   9  26
HETATM   26  C   UNL     1      29.507  53.447  39.683  1.00  0.00     0.409 C 
HETATM   27  F   UNL     1      29.852  54.674  40.127  1.00  0.00    -0.169 F 
HETATM   28  F   UNL     1      30.646  52.835  39.279  1.00  0.00    -0.169 F 
HETATM   29  F   UNL     1      28.742  53.611  38.581  1.00  0.00    -0.169 F 
ENDBRANCH   9  26
BRANCH   1  30
HETATM   30  C   UNL     1      27.381  49.493  38.946  1.00  0.00     0.005 A 
HETATM   31  S   UNL     1      27.223  47.921  39.616  1.00  0.00    -0.104 SA
HETATM   32  C   UNL     1      25.935  47.530  38.565  1.00  0.00     0.050 A 
HETATM   33  C   UNL     1      25.626  48.568  37.716  1.00  0.00     0.008 A 
HETATM   34  C   UNL     1      26.460  49.702  37.935  1.00  0.00     0.017 A 
ENDBRANCH   1  30
TORSDOF 7
ENDMDL
MODEL 10
REMARK VINA RESULT:      -7.9      5.628      9.970
REMARK  7 active torsions:
REMARK  status: ('A' for Active; 'I' for Inactive)
REMARK    1  A    between atoms: C_4  and  C_5 
REMARK    2  A    between atoms: C_10  and  C_11 
REMARK       I    between atoms: C_11  and  N_12 
REMARK    3  A    between atoms: N_12  and  C_13 
REMARK    4  A    between atoms: C_13  and  C_14 
REMARK    5  A    between atoms: C_14  and  C_15 
REMARK    6  A    between atoms: C_15  and  N_16 
REMARK    7  A    between atoms: C_26  and  C_27 
ROOT
HETATM    1  C   UNL     1      20.257  50.229  48.676  1.00  0.00     0.125 C 
HETATM    2  N   UNL     1      20.161  48.769  48.563  1.00  0.00    -0.365 N 
HETATM    3  C   UNL     1      21.257  47.984  48.692  1.00  0.00     0.141 A 
HETATM    4  N   UNL     1      22.435  48.490  49.169  1.00  0.00    -0.238 N 
HETATM    5  N   UNL     1      23.407  47.569  49.321  1.00  0.00    -0.163 NA
HETATM    6  C   UNL     1      22.851  46.432  48.837  1.00  0.00     0.165 A 
HETATM    7  C   UNL     1      21.506  46.657  48.453  1.00  0.00     0.092 A 
HETATM    8 BR   UNL     1      20.301  45.392  47.777  1.00  0.00    -0.044 Br
HETATM    9  C   UNL     1      22.644  49.888  49.506  1.00  0.00     0.221 C 
HETATM   10  C   UNL     1      21.293  50.576  49.767  1.00  0.00     0.067 C 
HETATM   11  H   UNL     1      19.359  48.443  48.021  1.00  0.00     0.162 HD
ENDROOT
BRANCH   6  12
HETATM   12  C   UNL     1      23.639  45.196  48.784  1.00  0.00     0.273 C 
HETATM   13  N   UNL     1      24.477  45.022  49.869  1.00  0.00    -0.355 N 
HETATM   14  H   UNL     1      24.505  45.817  50.511  1.00  0.00     0.162 HD
HETATM   15  O   UNL     1      23.576  44.347  47.892  1.00  0.00    -0.266 OA
BRANCH  13  16
HETATM   16  C   UNL     1      25.500  44.007  49.925  1.00  0.00     0.124 C 
BRANCH  16  17
HETATM   17  C   UNL     1      25.607  43.311  51.282  1.00  0.00     0.047 C 
BRANCH  17  18
HETATM   18  C   UNL     1      25.246  44.133  52.520  1.00  0.00     0.236 C 
BRANCH  18  19
HETATM   19  N   UNL     1      26.417  44.821  53.167  1.00  0.00    -0.067 N 
HETATM   20  H   UNL     1      26.973  45.256  52.399  1.00  0.00     0.280 HD
HETATM   21  C   UNL     1      26.061  45.892  54.182  1.00  0.00     0.261 C 
HETATM   22  C   UNL     1      27.340  46.516  54.750  1.00  0.00     0.195 C 
HETATM   23  O   UNL     1      28.184  45.520  55.337  1.00  0.00    -0.388 OA
HETATM   24  C   UNL     1      28.596  44.549  54.367  1.00  0.00     0.195 C 
HETATM   25  C   UNL     1      27.382  43.812  53.790  1.00  0.00     0.261 C 
ENDBRANCH  18  19
ENDBRANCH  17  18
ENDBRANCH  16  17
ENDBRANCH  13  16
ENDBRANCH   6  12
BRANCH   9  26
HETATM   26  C   UNL     1      23.432  50.563  48.404  1.00  0.00     0.409 C 
HETATM   27  F   UNL     1      24.766  50.416  48.548  1.00  0.00    -0.169 F 
HETATM   28  F   UNL     1      23.101  50.034  47.201  1.00  0.00    -0.169 F 
HETATM   29  F   UNL     1      23.172  51.887  48.330  1.00  0.00    -0.169 F 
ENDBRANCH   9  26
BRANCH   1  30
HETATM   30  C   UNL     1      18.933  50.879  49.001  1.00  0.00     0.005 A 
HETATM   31  S   UNL     1      17.473  50.176  48.438  1.00  0.00    -0.104 SA
HETATM   32  C   UNL     1      16.527  51.406  49.152  1.00  0.00     0.050 A 
HETATM   33  C   UNL     1      17.299  52.339  49.807  1.00  0.00     0.008 A 
HETATM   34  C   UNL     1      18.688  52.035  49.720  1.00  0.00     0.017 A 
ENDBRANCH   1  30
TORSDOF 7
ENDMDL
