MODEL 1
REMARK VINA RESULT:     -10.0      0.000      0.000
REMARK  8 active torsions:
REMARK  status: ('A' for Active; 'I' for Inactive)
REMARK    1  A    between atoms: C_2  and  C_3 
REMARK    2  A    between atoms: C_3  and  C_4 
REMARK    3  A    between atoms: C_7  and  N_8 
REMARK       I    between atoms: N_8  and  C_9 
REMARK    4  A    between atoms: C_9  and  C_10 
REMARK    5  A    between atoms: C_13  and  N_14 
REMARK       I    between atoms: N_14  and  C_15 
REMARK    6  A    between atoms: C_15  and  C_16 
REMARK    7  A    between atoms: C_16  and  C_17 
REMARK    8  A    between atoms: C_19  and  N_20 
ROOT
HETATM    1  C   UNL     1      23.061  47.453  49.202  1.00  0.00     0.032 A 
HETATM    2  C   UNL     1      24.175  47.924  49.907  1.00  0.00     0.019 A 
HETATM    3  C   UNL     1      25.162  47.031  50.353  1.00  0.00     0.030 A 
HETATM    4  C   UNL     1      25.040  45.661  50.116  1.00  0.00     0.034 A 
HETATM    5  C   UNL     1      23.907  45.189  49.444  1.00  0.00     0.030 A 
HETATM    6  C   UNL     1      22.927  46.075  48.991  1.00  0.00     0.019 A 
ENDROOT
BRANCH   4   7
HETATM    7  N   UNL     1      25.988  44.696  50.505  1.00  0.00    -0.327 N 
HETATM    8  C   UNL     1      25.880  43.750  51.504  1.00  0.00     0.223 C 
HETATM    9  O   UNL     1      24.903  43.552  52.218  1.00  0.00    -0.273 OA
HETATM   10  H   UNL     1      26.841  44.680  49.942  1.00  0.00     0.169 HD
BRANCH   8  11
HETATM   11  C   UNL     1      27.127  42.896  51.660  1.00  0.00     0.128 C 
BRANCH  11  12
HETATM   12  C   UNL     1      27.509  42.803  53.128  1.00  0.00     0.158 C 
HETATM   13  S   UNL     1      27.869  44.438  53.841  1.00  0.00    -0.077 SA
HETATM   14  C   UNL     1      29.245  43.771  54.710  1.00  0.00     0.168 C 
HETATM   15  N   UNL     1      29.600  42.581  54.348  1.00  0.00    -0.189 NA
HETATM   16  C   UNL     1      28.833  42.079  53.327  1.00  0.00     0.260 C 
HETATM   17  O   UNL     1      29.162  41.115  52.640  1.00  0.00    -0.270 OA
BRANCH  14  18
HETATM   18  N   UNL     1      29.821  44.488  55.734  1.00  0.00    -0.360 N 
HETATM   19  C   UNL     1      29.446  45.865  56.074  1.00  0.00     0.125 C 
HETATM   20  C   UNL     1      29.446  46.041  57.591  1.00  0.00     0.020 C 
HETATM   21  C   UNL     1      30.788  45.639  58.197  1.00  0.00     0.003 C 
HETATM   22  C   UNL     1      31.187  44.235  57.750  1.00  0.00     0.020 C 
HETATM   23  C   UNL     1      31.150  44.104  56.228  1.00  0.00     0.125 C 
ENDBRANCH  14  18
ENDBRANCH  11  12
ENDBRANCH   8  11
ENDBRANCH   4   7
BRANCH   1  24
HETATM   24  C   UNL     1      21.995  48.343  48.647  1.00  0.00     0.256 C 
HETATM   25  N   UNL     1      21.026  48.759  49.542  1.00  0.00    -0.323 N 
HETATM   26  H   UNL     1      21.070  48.404  50.485  1.00  0.00     0.169 HD
HETATM   27  O   UNL     1      22.079  48.664  47.466  1.00  0.00    -0.267 OA
BRANCH  25  28
HETATM   28  C   UNL     1      20.015  49.719  49.312  1.00  0.00     0.035 A 
HETATM   29  C   UNL     1      20.150  51.077  49.593  1.00  0.00     0.030 A 
HETATM   30  C   UNL     1      19.078  51.957  49.400  1.00  0.00     0.010 A 
HETATM   31  C   UNL     1      17.852  51.502  48.903  1.00  0.00    -0.054 A 
HETATM   32  C   UNL     1      17.723  50.139  48.606  1.00  0.00     0.010 A 
HETATM   33  C   UNL     1      18.791  49.258  48.812  1.00  0.00     0.030 A 
BRANCH  31  34
HETATM   34  C   UNL     1      16.662  52.431  48.726  1.00  0.00     0.014 C 
HETATM   35  C   UNL     1      15.680  51.825  47.715  1.00  0.00     0.015 C 
BRANCH  34  36
HETATM   36  C   UNL     1      15.928  52.775  50.038  1.00  0.00     0.004 C 
HETATM   37  C   UNL     1      14.552  53.386  49.811  1.00  0.00     0.006 C 
ENDBRANCH  34  36
ENDBRANCH  31  34
ENDBRANCH  25  28
ENDBRANCH   1  24
TORSDOF 8
ENDMDL
MODEL 2
REMARK VINA RESULT:      -9.5      3.272     12.036
REMARK  8 active torsions:
REMARK  status: ('A' for Active; 'I' for Inactive)
REMARK    1  A    between atoms: C_2  and  C_3 
REMARK    2  A    between atoms: C_3  and  C_4 
REMARK    3  A    between atoms: C_7  and  N_8 
REMARK       I    between atoms: N_8  and  C_9 
REMARK    4  A    between atoms: C_9  and  C_10 
REMARK    5  A    between atoms: C_13  and  N_14 
REMARK       I    between atoms: N_14  and  C_15 
REMARK    6  A    between atoms: C_15  and  C_16 
REMARK    7  A    between atoms: C_16  and  C_17 
REMARK    8  A    between atoms: C_19  and  N_20 
ROOT
HETATM    1  C   UNL     1      24.697  47.072  50.302  1.00  0.00     0.032 A 
HETATM    2  C   UNL     1      23.963  48.151  49.794  1.00  0.00     0.019 A 
HETATM    3  C   UNL     1      22.892  47.928  48.915  1.00  0.00     0.030 A 
HETATM    4  C   UNL     1      22.555  46.633  48.520  1.00  0.00     0.034 A 
HETATM    5  C   UNL     1      23.313  45.560  49.000  1.00  0.00     0.030 A 
HETATM    6  C   UNL     1      24.374  45.776  49.882  1.00  0.00     0.019 A 
ENDROOT
BRANCH   4   7
HETATM    7  N   UNL     1      21.485  46.314  47.662  1.00  0.00    -0.327 N 
HETATM    8  C   UNL     1      20.415  45.478  47.909  1.00  0.00     0.223 C 
HETATM    9  O   UNL     1      20.182  44.884  48.956  1.00  0.00    -0.273 OA
HETATM   10  H   UNL     1      21.495  46.801  46.763  1.00  0.00     0.169 HD
BRANCH   8  11
HETATM   11  C   UNL     1      19.470  45.346  46.728  1.00  0.00     0.128 C 
BRANCH  11  12
HETATM   12  C   UNL     1      18.472  46.492  46.731  1.00  0.00     0.158 C 
HETATM   13  S   UNL     1      19.285  48.099  46.991  1.00  0.00    -0.077 SA
HETATM   14  C   UNL     1      17.991  48.595  48.072  1.00  0.00     0.168 C 
HETATM   15  N   UNL     1      17.190  47.648  48.442  1.00  0.00    -0.189 NA
HETATM   16  C   UNL     1      17.531  46.424  47.924  1.00  0.00     0.260 C 
HETATM   17  O   UNL     1      17.102  45.359  48.360  1.00  0.00    -0.270 OA
BRANCH  14  18
HETATM   18  N   UNL     1      17.855  49.921  48.415  1.00  0.00    -0.360 N 
HETATM   19  C   UNL     1      16.607  50.676  48.270  1.00  0.00     0.125 C 
HETATM   20  C   UNL     1      16.430  51.616  49.460  1.00  0.00     0.020 C 
HETATM   21  C   UNL     1      17.641  52.528  49.633  1.00  0.00     0.003 C 
HETATM   22  C   UNL     1      18.930  51.713  49.691  1.00  0.00     0.020 C 
HETATM   23  C   UNL     1      19.050  50.773  48.492  1.00  0.00     0.125 C 
ENDBRANCH  14  18
ENDBRANCH  11  12
ENDBRANCH   8  11
ENDBRANCH   4   7
BRANCH   1  24
HETATM   24  C   UNL     1      25.816  47.220  51.284  1.00  0.00     0.256 C 
HETATM   25  N   UNL     1      25.761  46.397  52.394  1.00  0.00    -0.323 N 
HETATM   26  H   UNL     1      24.960  45.792  52.495  1.00  0.00     0.169 HD
HETATM   27  O   UNL     1      26.704  48.023  51.018  1.00  0.00    -0.267 OA
BRANCH  25  28
HETATM   28  C   UNL     1      26.763  46.229  53.376  1.00  0.00     0.035 A 
HETATM   29  C   UNL     1      27.157  47.225  54.268  1.00  0.00     0.030 A 
HETATM   30  C   UNL     1      28.206  47.003  55.170  1.00  0.00     0.010 A 
HETATM   31  C   UNL     1      28.870  45.773  55.214  1.00  0.00    -0.054 A 
HETATM   32  C   UNL     1      28.462  44.768  54.328  1.00  0.00     0.010 A 
HETATM   33  C   UNL     1      27.422  44.995  53.418  1.00  0.00     0.030 A 
BRANCH  31  34
HETATM   34  C   UNL     1      30.038  45.524  56.155  1.00  0.00     0.014 C 
HETATM   35  C   UNL     1      29.604  45.798  57.599  1.00  0.00     0.015 C 
BRANCH  34  36
HETATM   36  C   UNL     1      30.650  44.113  56.043  1.00  0.00     0.004 C 
HETATM   37  C   UNL     1      31.404  43.686  57.296  1.00  0.00     0.006 C 
ENDBRANCH  34  36
ENDBRANCH  31  34
ENDBRANCH  25  28
ENDBRANCH   1  24
TORSDOF 8
ENDMDL
MODEL 3
REMARK VINA RESULT:      -9.4      3.067     11.981
REMARK  8 active torsions:
REMARK  status: ('A' for Active; 'I' for Inactive)
REMARK    1  A    between atoms: C_2  and  C_3 
REMARK    2  A    between atoms: C_3  and  C_4 
REMARK    3  A    between atoms: C_7  and  N_8 
REMARK       I    between atoms: N_8  and  C_9 
REMARK    4  A    between atoms: C_9  and  C_10 
REMARK    5  A    between atoms: C_13  and  N_14 
REMARK       I    between atoms: N_14  and  C_15 
REMARK    6  A    between atoms: C_15  and  C_16 
REMARK    7  A    between atoms: C_16  and  C_17 
REMARK    8  A    between atoms: C_19  and  N_20 
ROOT
HETATM    1  C   UNL     1      25.145  44.612  49.863  1.00  0.00     0.032 A 
HETATM    2  C   UNL     1      24.903  43.467  49.094  1.00  0.00     0.019 A 
HETATM    3  C   UNL     1      23.751  43.379  48.297  1.00  0.00     0.030 A 
HETATM    4  C   UNL     1      22.823  44.420  48.273  1.00  0.00     0.034 A 
HETATM    5  C   UNL     1      23.049  45.547  49.071  1.00  0.00     0.030 A 
HETATM    6  C   UNL     1      24.199  45.643  49.858  1.00  0.00     0.019 A 
ENDROOT
BRANCH   4   7
HETATM    7  N   UNL     1      21.653  44.430  47.489  1.00  0.00    -0.327 N 
HETATM    8  C   UNL     1      21.449  45.047  46.272  1.00  0.00     0.223 C 
HETATM    9  O   UNL     1      22.280  45.678  45.626  1.00  0.00    -0.273 OA
HETATM   10  H   UNL     1      20.882  43.871  47.860  1.00  0.00     0.169 HD
BRANCH   8  11
HETATM   11  C   UNL     1      20.039  44.869  45.736  1.00  0.00     0.128 C 
BRANCH  11  12
HETATM   12  C   UNL     1      19.128  45.944  46.305  1.00  0.00     0.158 C 
HETATM   13  S   UNL     1      19.904  47.589  46.252  1.00  0.00    -0.077 SA
HETATM   14  C   UNL     1      19.284  47.948  47.857  1.00  0.00     0.168 C 
HETATM   15  N   UNL     1      18.802  46.934  48.500  1.00  0.00    -0.189 NA
HETATM   16  C   UNL     1      18.892  45.760  47.796  1.00  0.00     0.260 C 
HETATM   17  O   UNL     1      18.771  44.650  48.309  1.00  0.00    -0.270 OA
BRANCH  14  18
HETATM   18  N   UNL     1      19.284  49.246  48.316  1.00  0.00    -0.360 N 
HETATM   19  C   UNL     1      20.434  49.876  48.973  1.00  0.00     0.125 C 
HETATM   20  C   UNL     1      20.554  51.330  48.521  1.00  0.00     0.020 C 
HETATM   21  C   UNL     1      19.256  52.096  48.765  1.00  0.00     0.003 C 
HETATM   22  C   UNL     1      18.070  51.364  48.144  1.00  0.00     0.020 C 
HETATM   23  C   UNL     1      18.007  49.909  48.608  1.00  0.00     0.125 C 
ENDBRANCH  14  18
ENDBRANCH  11  12
ENDBRANCH   8  11
ENDBRANCH   4   7
BRANCH   1  24
HETATM   24  C   UNL     1      26.374  44.805  50.695  1.00  0.00     0.256 C 
HETATM   25  N   UNL     1      26.186  44.793  52.065  1.00  0.00    -0.323 N 
HETATM   26  H   UNL     1      25.243  44.703  52.412  1.00  0.00     0.169 HD
HETATM   27  O   UNL     1      27.445  44.923  50.109  1.00  0.00    -0.267 OA
BRANCH  25  28
HETATM   28  C   UNL     1      27.190  44.793  53.059  1.00  0.00     0.035 A 
HETATM   29  C   UNL     1      27.340  45.794  54.017  1.00  0.00     0.030 A 
HETATM   30  C   UNL     1      28.403  45.758  54.929  1.00  0.00     0.010 A 
HETATM   31  C   UNL     1      29.328  44.708  54.917  1.00  0.00    -0.054 A 
HETATM   32  C   UNL     1      29.166  43.694  53.963  1.00  0.00     0.010 A 
HETATM   33  C   UNL     1      28.111  43.739  53.044  1.00  0.00     0.030 A 
BRANCH  31  34
HETATM   34  C   UNL     1      30.512  44.670  55.868  1.00  0.00     0.014 C 
HETATM   35  C   UNL     1      30.180  45.465  57.137  1.00  0.00     0.015 C 
BRANCH  34  36
HETATM   36  C   UNL     1      30.979  43.247  56.240  1.00  0.00     0.004 C 
HETATM   37  C   UNL     1      32.087  43.236  57.285  1.00  0.00     0.006 C 
ENDBRANCH  34  36
ENDBRANCH  31  34
ENDBRANCH  25  28
ENDBRANCH   1  24
TORSDOF 8
ENDMDL
MODEL 4
REMARK VINA RESULT:      -8.7      3.255     12.448
REMARK  8 active torsions:
REMARK  status: ('A' for Active; 'I' for Inactive)
REMARK    1  A    between atoms: C_2  and  C_3 
REMARK    2  A    between atoms: C_3  and  C_4 
REMARK    3  A    between atoms: C_7  and  N_8 
REMARK       I    between atoms: N_8  and  C_9 
REMARK    4  A    between atoms: C_9  and  C_10 
REMARK    5  A    between atoms: C_13  and  N_14 
REMARK       I    between atoms: N_14  and  C_15 
REMARK    6  A    between atoms: C_15  and  C_16 
REMARK    7  A    between atoms: C_16  and  C_17 
REMARK    8  A    between atoms: C_19  and  N_20 
ROOT
HETATM    1  C   UNL     1      24.404  46.861  50.009  1.00  0.00     0.032 A 
HETATM    2  C   UNL     1      23.872  45.668  49.506  1.00  0.00     0.019 A 
HETATM    3  C   UNL     1      22.890  45.696  48.504  1.00  0.00     0.030 A 
HETATM    4  C   UNL     1      22.416  46.910  48.008  1.00  0.00     0.034 A 
HETATM    5  C   UNL     1      22.923  48.102  48.538  1.00  0.00     0.030 A 
HETATM    6  C   UNL     1      23.908  48.079  49.529  1.00  0.00     0.019 A 
ENDROOT
BRANCH   4   7
HETATM    7  N   UNL     1      21.452  47.035  46.990  1.00  0.00    -0.327 N 
HETATM    8  C   UNL     1      20.129  46.642  47.017  1.00  0.00     0.223 C 
HETATM    9  O   UNL     1      19.538  46.140  47.967  1.00  0.00    -0.273 OA
HETATM   10  H   UNL     1      21.775  47.515  46.148  1.00  0.00     0.169 HD
BRANCH   8  11
HETATM   11  C   UNL     1      19.396  46.907  45.713  1.00  0.00     0.128 C 
BRANCH  11  12
HETATM   12  C   UNL     1      18.535  48.151  45.846  1.00  0.00     0.158 C 
HETATM   13  S   UNL     1      19.082  49.213  47.219  1.00  0.00    -0.077 SA
HETATM   14  C   UNL     1      17.410  49.504  47.679  1.00  0.00     0.168 C 
HETATM   15  N   UNL     1      16.541  48.734  47.108  1.00  0.00    -0.189 NA
HETATM   16  C   UNL     1      17.110  47.816  46.262  1.00  0.00     0.260 C 
HETATM   17  O   UNL     1      16.524  46.819  45.848  1.00  0.00    -0.270 OA
BRANCH  14  18
HETATM   18  N   UNL     1      17.107  50.532  48.542  1.00  0.00    -0.360 N 
HETATM   19  C   UNL     1      17.922  50.881  49.710  1.00  0.00     0.125 C 
HETATM   20  C   UNL     1      17.977  52.400  49.866  1.00  0.00     0.020 C 
HETATM   21  C   UNL     1      16.576  53.002  49.936  1.00  0.00     0.003 C 
HETATM   22  C   UNL     1      15.729  52.545  48.752  1.00  0.00     0.020 C 
HETATM   23  C   UNL     1      15.724  51.022  48.625  1.00  0.00     0.125 C 
ENDBRANCH  14  18
ENDBRANCH  11  12
ENDBRANCH   8  11
ENDBRANCH   4   7
BRANCH   1  24
HETATM   24  C   UNL     1      25.490  46.916  51.036  1.00  0.00     0.256 C 
HETATM   25  N   UNL     1      25.491  45.898  51.972  1.00  0.00    -0.323 N 
HETATM   26  H   UNL     1      24.745  45.220  51.935  1.00  0.00     0.169 HD
HETATM   27  O   UNL     1      26.309  47.825  50.951  1.00  0.00    -0.267 OA
BRANCH  25  28
HETATM   28  C   UNL     1      26.489  45.633  52.937  1.00  0.00     0.035 A 
HETATM   29  C   UNL     1      27.201  44.437  53.015  1.00  0.00     0.030 A 
HETATM   30  C   UNL     1      28.129  44.224  54.043  1.00  0.00     0.010 A 
HETATM   31  C   UNL     1      28.380  45.210  55.004  1.00  0.00    -0.054 A 
HETATM   32  C   UNL     1      27.675  46.417  54.913  1.00  0.00     0.010 A 
HETATM   33  C   UNL     1      26.738  46.624  53.894  1.00  0.00     0.030 A 
BRANCH  31  34
HETATM   34  C   UNL     1      29.351  44.984  56.151  1.00  0.00     0.014 C 
HETATM   35  C   UNL     1      30.772  44.820  55.599  1.00  0.00     0.015 C 
BRANCH  34  36
HETATM   36  C   UNL     1      29.323  46.087  57.229  1.00  0.00     0.004 C 
HETATM   37  C   UNL     1      30.433  45.942  58.262  1.00  0.00     0.006 C 
ENDBRANCH  34  36
ENDBRANCH  31  34
ENDBRANCH  25  28
ENDBRANCH   1  24
TORSDOF 8
ENDMDL
MODEL 5
REMARK VINA RESULT:      -8.6      3.058     12.545
REMARK  8 active torsions:
REMARK  status: ('A' for Active; 'I' for Inactive)
REMARK    1  A    between atoms: C_2  and  C_3 
REMARK    2  A    between atoms: C_3  and  C_4 
REMARK    3  A    between atoms: C_7  and  N_8 
REMARK       I    between atoms: N_8  and  C_9 
REMARK    4  A    between atoms: C_9  and  C_10 
REMARK    5  A    between atoms: C_13  and  N_14 
REMARK       I    between atoms: N_14  and  C_15 
REMARK    6  A    between atoms: C_15  and  C_16 
REMARK    7  A    between atoms: C_16  and  C_17 
REMARK    8  A    between atoms: C_19  and  N_20 
ROOT
HETATM    1  C   UNL     1      24.288  44.401  50.271  1.00  0.00     0.032 A 
HETATM    2  C   UNL     1      24.163  45.711  49.794  1.00  0.00     0.019 A 
HETATM    3  C   UNL     1      23.075  46.068  48.981  1.00  0.00     0.030 A 
HETATM    4  C   UNL     1      22.116  45.121  48.622  1.00  0.00     0.034 A 
HETATM    5  C   UNL     1      22.264  43.804  49.070  1.00  0.00     0.030 A 
HETATM    6  C   UNL     1      23.339  43.446  49.887  1.00  0.00     0.019 A 
ENDROOT
BRANCH   4   7
HETATM    7  N   UNL     1      20.983  45.393  47.831  1.00  0.00    -0.327 N 
HETATM    8  C   UNL     1      20.939  45.951  46.570  1.00  0.00     0.223 C 
HETATM    9  O   UNL     1      21.901  46.280  45.884  1.00  0.00    -0.273 OA
HETATM   10  H   UNL     1      20.093  45.097  48.239  1.00  0.00     0.169 HD
BRANCH   8  11
HETATM   11  C   UNL     1      19.526  46.127  46.040  1.00  0.00     0.128 C 
BRANCH  11  12
HETATM   12  C   UNL     1      19.213  47.605  45.881  1.00  0.00     0.158 C 
HETATM   13  S   UNL     1      19.473  48.525  47.429  1.00  0.00    -0.077 SA
HETATM   14  C   UNL     1      18.001  49.444  47.148  1.00  0.00     0.168 C 
HETATM   15  N   UNL     1      17.241  48.988  46.205  1.00  0.00    -0.189 NA
HETATM   16  C   UNL     1      17.734  47.850  45.620  1.00  0.00     0.260 C 
HETATM   17  O   UNL     1      17.059  47.097  44.923  1.00  0.00    -0.270 OA
BRANCH  14  18
HETATM   18  N   UNL     1      17.761  50.590  47.870  1.00  0.00    -0.360 N 
HETATM   19  C   UNL     1      16.451  51.246  47.943  1.00  0.00     0.125 C 
HETATM   20  C   UNL     1      16.214  51.770  49.358  1.00  0.00     0.020 C 
HETATM   21  C   UNL     1      17.348  52.688  49.808  1.00  0.00     0.003 C 
HETATM   22  C   UNL     1      18.701  52.004  49.634  1.00  0.00     0.020 C 
HETATM   23  C   UNL     1      18.880  51.479  48.210  1.00  0.00     0.125 C 
ENDBRANCH  14  18
ENDBRANCH  11  12
ENDBRANCH   8  11
ENDBRANCH   4   7
BRANCH   1  24
HETATM   24  C   UNL     1      25.385  43.954  51.185  1.00  0.00     0.256 C 
HETATM   25  N   UNL     1      26.150  44.958  51.750  1.00  0.00    -0.323 N 
HETATM   26  H   UNL     1      25.955  45.910  51.479  1.00  0.00     0.169 HD
HETATM   27  O   UNL     1      25.500  42.750  51.391  1.00  0.00    -0.267 OA
BRANCH  25  28
HETATM   28  C   UNL     1      27.130  44.813  52.758  1.00  0.00     0.035 A 
HETATM   29  C   UNL     1      28.166  43.882  52.712  1.00  0.00     0.030 A 
HETATM   30  C   UNL     1      29.060  43.755  53.782  1.00  0.00     0.010 A 
HETATM   31  C   UNL     1      28.950  44.569  54.915  1.00  0.00    -0.054 A 
HETATM   32  C   UNL     1      27.918  45.515  54.952  1.00  0.00     0.010 A 
HETATM   33  C   UNL     1      27.017  45.633  53.887  1.00  0.00     0.030 A 
BRANCH  31  34
HETATM   34  C   UNL     1      29.883  44.419  56.105  1.00  0.00     0.014 C 
HETATM   35  C   UNL     1      31.083  43.548  55.714  1.00  0.00     0.015 C 
BRANCH  34  36
HETATM   36  C   UNL     1      30.369  45.756  56.701  1.00  0.00     0.004 C 
HETATM   37  C   UNL     1      30.599  45.693  58.205  1.00  0.00     0.006 C 
ENDBRANCH  34  36
ENDBRANCH  31  34
ENDBRANCH  25  28
ENDBRANCH   1  24
TORSDOF 8
ENDMDL
MODEL 6
REMARK VINA RESULT:      -8.6      3.329     13.358
REMARK  8 active torsions:
REMARK  status: ('A' for Active; 'I' for Inactive)
REMARK    1  A    between atoms: C_2  and  C_3 
REMARK    2  A    between atoms: C_3  and  C_4 
REMARK    3  A    between atoms: C_7  and  N_8 
REMARK       I    between atoms: N_8  and  C_9 
REMARK    4  A    between atoms: C_9  and  C_10 
REMARK    5  A    between atoms: C_13  and  N_14 
REMARK       I    between atoms: N_14  and  C_15 
REMARK    6  A    between atoms: C_15  and  C_16 
REMARK    7  A    between atoms: C_16  and  C_17 
REMARK    8  A    between atoms: C_19  and  N_20 
ROOT
HETATM    1  C   UNL     1      24.272  46.663  49.771  1.00  0.00     0.032 A 
HETATM    2  C   UNL     1      23.431  45.795  49.064  1.00  0.00     0.019 A 
HETATM    3  C   UNL     1      22.304  46.293  48.391  1.00  0.00     0.030 A 
HETATM    4  C   UNL     1      21.995  47.652  48.431  1.00  0.00     0.034 A 
HETATM    5  C   UNL     1      22.816  48.511  49.169  1.00  0.00     0.030 A 
HETATM    6  C   UNL     1      23.944  48.022  49.833  1.00  0.00     0.019 A 
ENDROOT
BRANCH   4   7
HETATM    7  N   UNL     1      20.901  48.242  47.769  1.00  0.00    -0.327 N 
HETATM    8  C   UNL     1      19.591  48.323  48.195  1.00  0.00     0.223 C 
HETATM    9  O   UNL     1      19.146  47.921  49.264  1.00  0.00    -0.273 OA
HETATM   10  H   UNL     1      21.130  48.699  46.884  1.00  0.00     0.169 HD
BRANCH   8  11
HETATM   11  C   UNL     1      18.675  49.005  47.193  1.00  0.00     0.128 C 
BRANCH  11  12
HETATM   12  C   UNL     1      18.381  50.426  47.644  1.00  0.00     0.158 C 
HETATM   13  S   UNL     1      17.006  50.490  48.835  1.00  0.00    -0.077 SA
HETATM   14  C   UNL     1      16.366  51.922  48.040  1.00  0.00     0.168 C 
HETATM   15  N   UNL     1      16.894  52.195  46.891  1.00  0.00    -0.189 NA
HETATM   16  C   UNL     1      17.848  51.286  46.508  1.00  0.00     0.260 C 
HETATM   17  O   UNL     1      18.262  51.180  45.357  1.00  0.00    -0.270 OA
BRANCH  14  18
HETATM   18  N   UNL     1      15.415  52.689  48.674  1.00  0.00    -0.360 N 
HETATM   19  C   UNL     1      14.891  52.394  50.011  1.00  0.00     0.125 C 
HETATM   20  C   UNL     1      14.691  53.695  50.786  1.00  0.00     0.020 C 
HETATM   21  C   UNL     1      13.802  54.669  50.017  1.00  0.00     0.003 C 
HETATM   22  C   UNL     1      14.330  54.882  48.601  1.00  0.00     0.020 C 
HETATM   23  C   UNL     1      14.534  53.552  47.876  1.00  0.00     0.125 C 
ENDBRANCH  14  18
ENDBRANCH  11  12
ENDBRANCH   8  11
ENDBRANCH   4   7
BRANCH   1  24
HETATM   24  C   UNL     1      25.519  46.221  50.469  1.00  0.00     0.256 C 
HETATM   25  N   UNL     1      25.547  46.409  51.838  1.00  0.00    -0.323 N 
HETATM   26  H   UNL     1      24.758  46.867  52.269  1.00  0.00     0.169 HD
HETATM   27  O   UNL     1      26.397  45.700  49.789  1.00  0.00    -0.267 OA
BRANCH  25  28
HETATM   28  C   UNL     1      26.528  45.938  52.740  1.00  0.00     0.035 A 
HETATM   29  C   UNL     1      27.133  44.685  52.651  1.00  0.00     0.030 A 
HETATM   30  C   UNL     1      28.049  44.263  53.622  1.00  0.00     0.010 A 
HETATM   31  C   UNL     1      28.396  45.092  54.695  1.00  0.00    -0.054 A 
HETATM   32  C   UNL     1      27.799  46.357  54.774  1.00  0.00     0.010 A 
HETATM   33  C   UNL     1      26.873  46.773  53.809  1.00  0.00     0.030 A 
BRANCH  31  34
HETATM   34  C   UNL     1      29.355  44.639  55.783  1.00  0.00     0.014 C 
HETATM   35  C   UNL     1      30.345  43.620  55.206  1.00  0.00     0.015 C 
BRANCH  34  36
HETATM   36  C   UNL     1      30.117  45.788  56.473  1.00  0.00     0.004 C 
HETATM   37  C   UNL     1      30.499  45.473  57.914  1.00  0.00     0.006 C 
ENDBRANCH  34  36
ENDBRANCH  31  34
ENDBRANCH  25  28
ENDBRANCH   1  24
TORSDOF 8
ENDMDL
MODEL 7
REMARK VINA RESULT:      -8.5      7.067     12.953
REMARK  8 active torsions:
REMARK  status: ('A' for Active; 'I' for Inactive)
REMARK    1  A    between atoms: C_2  and  C_3 
REMARK    2  A    between atoms: C_3  and  C_4 
REMARK    3  A    between atoms: C_7  and  N_8 
REMARK       I    between atoms: N_8  and  C_9 
REMARK    4  A    between atoms: C_9  and  C_10 
REMARK    5  A    between atoms: C_13  and  N_14 
REMARK       I    between atoms: N_14  and  C_15 
REMARK    6  A    between atoms: C_15  and  C_16 
REMARK    7  A    between atoms: C_16  and  C_17 
REMARK    8  A    between atoms: C_19  and  N_20 
ROOT
HETATM    1  C   UNL     1      26.112  42.759  50.134  1.00  0.00     0.032 A 
HETATM    2  C   UNL     1      24.756  43.059  49.957  1.00  0.00     0.019 A 
HETATM    3  C   UNL     1      23.953  42.252  49.135  1.00  0.00     0.030 A 
HETATM    4  C   UNL     1      24.497  41.154  48.469  1.00  0.00     0.034 A 
HETATM    5  C   UNL     1      25.861  40.879  48.618  1.00  0.00     0.030 A 
HETATM    6  C   UNL     1      26.661  41.674  49.443  1.00  0.00     0.019 A 
ENDROOT
BRANCH   4   7
HETATM    7  N   UNL     1      23.766  40.278  47.644  1.00  0.00    -0.327 N 
HETATM    8  C   UNL     1      23.489  40.408  46.298  1.00  0.00     0.223 C 
HETATM    9  O   UNL     1      23.871  41.308  45.559  1.00  0.00    -0.273 OA
HETATM   10  H   UNL     1      23.441  39.425  48.104  1.00  0.00     0.169 HD
BRANCH   8  11
HETATM   11  C   UNL     1      22.636  39.277  45.748  1.00  0.00     0.128 C 
BRANCH  11  12
HETATM   12  C   UNL     1      22.035  38.478  46.892  1.00  0.00     0.158 C 
HETATM   13  S   UNL     1      22.011  36.694  46.536  1.00  0.00    -0.077 SA
HETATM   14  C   UNL     1      20.400  36.563  47.226  1.00  0.00     0.168 C 
HETATM   15  N   UNL     1      19.805  37.690  47.451  1.00  0.00    -0.189 NA
HETATM   16  C   UNL     1      20.555  38.777  47.079  1.00  0.00     0.260 C 
HETATM   17  O   UNL     1      20.090  39.904  46.931  1.00  0.00    -0.270 OA
BRANCH  14  18
HETATM   18  N   UNL     1      19.888  35.324  47.539  1.00  0.00    -0.360 N 
HETATM   19  C   UNL     1      20.385  34.493  48.639  1.00  0.00     0.125 C 
HETATM   20  C   UNL     1      19.215  33.795  49.330  1.00  0.00     0.020 C 
HETATM   21  C   UNL     1      18.377  32.998  48.334  1.00  0.00     0.003 C 
HETATM   22  C   UNL     1      17.953  33.873  47.159  1.00  0.00     0.020 C 
HETATM   23  C   UNL     1      19.154  34.566  46.517  1.00  0.00     0.125 C 
ENDBRANCH  14  18
ENDBRANCH  11  12
ENDBRANCH   8  11
ENDBRANCH   4   7
BRANCH   1  24
HETATM   24  C   UNL     1      27.021  43.535  51.034  1.00  0.00     0.256 C 
HETATM   25  N   UNL     1      27.146  43.058  52.326  1.00  0.00    -0.323 N 
HETATM   26  H   UNL     1      26.591  42.259  52.591  1.00  0.00     0.169 HD
HETATM   27  O   UNL     1      27.607  44.501  50.556  1.00  0.00    -0.267 OA
BRANCH  25  28
HETATM   28  C   UNL     1      28.052  43.508  53.313  1.00  0.00     0.035 A 
HETATM   29  C   UNL     1      29.307  42.944  53.536  1.00  0.00     0.030 A 
HETATM   30  C   UNL     1      30.122  43.402  54.578  1.00  0.00     0.010 A 
HETATM   31  C   UNL     1      29.709  44.450  55.409  1.00  0.00    -0.054 A 
HETATM   32  C   UNL     1      28.455  45.026  55.173  1.00  0.00     0.010 A 
HETATM   33  C   UNL     1      27.635  44.558  54.139  1.00  0.00     0.030 A 
BRANCH  31  34
HETATM   34  C   UNL     1      30.559  44.935  56.572  1.00  0.00     0.014 C 
HETATM   35  C   UNL     1      29.803  46.023  57.344  1.00  0.00     0.015 C 
BRANCH  34  36
HETATM   36  C   UNL     1      31.011  43.817  57.534  1.00  0.00     0.004 C 
HETATM   37  C   UNL     1      32.385  43.255  57.194  1.00  0.00     0.006 C 
ENDBRANCH  34  36
ENDBRANCH  31  34
ENDBRANCH  25  28
ENDBRANCH   1  24
TORSDOF 8
ENDMDL
MODEL 8
REMARK VINA RESULT:      -8.5      2.320      3.413
REMARK  8 active torsions:
REMARK  status: ('A' for Active; 'I' for Inactive)
REMARK    1  A    between atoms: C_2  and  C_3 
REMARK    2  A    between atoms: C_3  and  C_4 
REMARK    3  A    between atoms: C_7  and  N_8 
REMARK       I    between atoms: N_8  and  C_9 
REMARK    4  A    between atoms: C_9  and  C_10 
REMARK    5  A    between atoms: C_13  and  N_14 
REMARK       I    between atoms: N_14  and  C_15 
REMARK    6  A    between atoms: C_15  and  C_16 
REMARK    7  A    between atoms: C_16  and  C_17 
REMARK    8  A    between atoms: C_19  and  N_20 
ROOT
HETATM    1  C   UNL     1      20.451  48.305  48.097  1.00  0.00     0.032 A 
HETATM    2  C   UNL     1      21.603  48.450  48.880  1.00  0.00     0.019 A 
HETATM    3  C   UNL     1      22.524  47.396  48.988  1.00  0.00     0.030 A 
HETATM    4  C   UNL     1      22.298  46.185  48.333  1.00  0.00     0.034 A 
HETATM    5  C   UNL     1      21.128  46.030  47.581  1.00  0.00     0.030 A 
HETATM    6  C   UNL     1      20.213  47.079  47.464  1.00  0.00     0.019 A 
ENDROOT
BRANCH   4   7
HETATM    7  N   UNL     1      23.175  45.084  48.365  1.00  0.00    -0.327 N 
HETATM    8  C   UNL     1      23.057  43.922  49.100  1.00  0.00     0.223 C 
HETATM    9  O   UNL     1      22.127  43.620  49.841  1.00  0.00    -0.273 OA
HETATM   10  H   UNL     1      23.972  45.151  47.729  1.00  0.00     0.169 HD
BRANCH   8  11
HETATM   11  C   UNL     1      24.221  42.967  48.905  1.00  0.00     0.128 C 
BRANCH  11  12
HETATM   12  C   UNL     1      24.827  42.607  50.252  1.00  0.00     0.158 C 
HETATM   13  S   UNL     1      25.586  44.048  51.062  1.00  0.00    -0.077 SA
HETATM   14  C   UNL     1      26.951  43.062  51.569  1.00  0.00     0.168 C 
HETATM   15  N   UNL     1      27.023  41.896  51.013  1.00  0.00    -0.189 NA
HETATM   16  C   UNL     1      26.016  41.668  50.109  1.00  0.00     0.260 C 
HETATM   17  O   UNL     1      26.047  40.774  49.268  1.00  0.00    -0.270 OA
BRANCH  14  18
HETATM   18  N   UNL     1      27.811  43.529  52.537  1.00  0.00    -0.360 N 
HETATM   19  C   UNL     1      27.569  44.743  53.323  1.00  0.00     0.125 C 
HETATM   20  C   UNL     1      28.018  44.521  54.766  1.00  0.00     0.020 C 
HETATM   21  C   UNL     1      29.474  44.069  54.832  1.00  0.00     0.003 C 
HETATM   22  C   UNL     1      29.707  42.859  53.932  1.00  0.00     0.020 C 
HETATM   23  C   UNL     1      29.222  43.121  52.507  1.00  0.00     0.125 C 
ENDBRANCH  14  18
ENDBRANCH  11  12
ENDBRANCH   8  11
ENDBRANCH   4   7
BRANCH   1  24
HETATM   24  C   UNL     1      19.450  49.396  47.887  1.00  0.00     0.256 C 
HETATM   25  N   UNL     1      18.674  49.726  48.984  1.00  0.00    -0.323 N 
HETATM   26  H   UNL     1      18.796  49.188  49.829  1.00  0.00     0.169 HD
HETATM   27  O   UNL     1      19.416  49.934  46.786  1.00  0.00    -0.267 OA
BRANCH  25  28
HETATM   28  C   UNL     1      17.780  50.815  49.095  1.00  0.00     0.035 A 
HETATM   29  C   UNL     1      18.083  52.011  49.741  1.00  0.00     0.030 A 
HETATM   30  C   UNL     1      17.119  53.020  49.867  1.00  0.00     0.010 A 
HETATM   31  C   UNL     1      15.836  52.862  49.331  1.00  0.00    -0.054 A 
HETATM   32  C   UNL     1      15.539  51.665  48.667  1.00  0.00     0.010 A 
HETATM   33  C   UNL     1      16.499  50.652  48.554  1.00  0.00     0.030 A 
BRANCH  31  34
HETATM   34  C   UNL     1      14.762  53.925  49.493  1.00  0.00     0.014 C 
HETATM   35  C   UNL     1      13.701  53.439  50.487  1.00  0.00     0.015 C 
BRANCH  34  36
HETATM   36  C   UNL     1      15.299  55.306  49.922  1.00  0.00     0.004 C 
HETATM   37  C   UNL     1      14.276  56.423  49.759  1.00  0.00     0.006 C 
ENDBRANCH  34  36
ENDBRANCH  31  34
ENDBRANCH  25  28
ENDBRANCH   1  24
TORSDOF 8
ENDMDL
MODEL 9
REMARK VINA RESULT:      -8.3      4.171     14.140
REMARK  8 active torsions:
REMARK  status: ('A' for Active; 'I' for Inactive)
REMARK    1  A    between atoms: C_2  and  C_3 
REMARK    2  A    between atoms: C_3  and  C_4 
REMARK    3  A    between atoms: C_7  and  N_8 
REMARK       I    between atoms: N_8  and  C_9 
REMARK    4  A    between atoms: C_9  and  C_10 
REMARK    5  A    between atoms: C_13  and  N_14 
REMARK       I    between atoms: N_14  and  C_15 
REMARK    6  A    between atoms: C_15  and  C_16 
REMARK    7  A    between atoms: C_16  and  C_17 
REMARK    8  A    between atoms: C_19  and  N_20 
ROOT
HETATM    1  C   UNL     1      24.028  48.357  49.422  1.00  0.00     0.032 A 
HETATM    2  C   UNL     1      22.818  47.696  49.180  1.00  0.00     0.019 A 
HETATM    3  C   UNL     1      21.724  48.394  48.644  1.00  0.00     0.030 A 
HETATM    4  C   UNL     1      21.820  49.757  48.363  1.00  0.00     0.034 A 
HETATM    5  C   UNL     1      23.018  50.423  48.641  1.00  0.00     0.030 A 
HETATM    6  C   UNL     1      24.113  49.730  49.165  1.00  0.00     0.019 A 
ENDROOT
BRANCH   4   7
HETATM    7  N   UNL     1      20.785  50.531  47.805  1.00  0.00    -0.327 N 
HETATM    8  C   UNL     1      19.878  51.339  48.460  1.00  0.00     0.223 C 
HETATM    9  O   UNL     1      19.837  51.561  49.665  1.00  0.00    -0.273 OA
HETATM   10  H   UNL     1      20.738  50.515  46.784  1.00  0.00     0.169 HD
BRANCH   8  11
HETATM   11  C   UNL     1      18.876  51.998  47.527  1.00  0.00     0.128 C 
BRANCH  11  12
HETATM   12  C   UNL     1      17.798  51.001  47.137  1.00  0.00     0.158 C 
HETATM   13  S   UNL     1      17.259  51.223  45.413  1.00  0.00    -0.077 SA
HETATM   14  C   UNL     1      15.584  50.977  45.891  1.00  0.00     0.168 C 
HETATM   15  N   UNL     1      15.368  50.998  47.166  1.00  0.00    -0.189 NA
HETATM   16  C   UNL     1      16.503  51.234  47.900  1.00  0.00     0.260 C 
HETATM   17  O   UNL     1      16.490  51.580  49.078  1.00  0.00    -0.270 OA
BRANCH  14  18
HETATM   18  N   UNL     1      14.629  50.724  44.933  1.00  0.00    -0.360 N 
HETATM   19  C   UNL     1      14.757  49.677  43.914  1.00  0.00     0.125 C 
HETATM   20  C   UNL     1      13.402  49.008  43.688  1.00  0.00     0.020 C 
HETATM   21  C   UNL     1      12.328  50.033  43.334  1.00  0.00     0.003 C 
HETATM   22  C   UNL     1      12.286  51.154  44.369  1.00  0.00     0.020 C 
HETATM   23  C   UNL     1      13.668  51.775  44.576  1.00  0.00     0.125 C 
ENDBRANCH  14  18
ENDBRANCH  11  12
ENDBRANCH   8  11
ENDBRANCH   4   7
BRANCH   1  24
HETATM   24  C   UNL     1      25.255  47.675  49.940  1.00  0.00     0.256 C 
HETATM   25  N   UNL     1      25.090  46.917  51.085  1.00  0.00    -0.323 N 
HETATM   26  H   UNL     1      24.180  46.910  51.520  1.00  0.00     0.169 HD
HETATM   27  O   UNL     1      26.293  47.807  49.299  1.00  0.00    -0.267 OA
BRANCH  25  28
HETATM   28  C   UNL     1      26.041  46.056  51.676  1.00  0.00     0.035 A 
HETATM   29  C   UNL     1      26.650  44.991  51.013  1.00  0.00     0.030 A 
HETATM   30  C   UNL     1      27.534  44.140  51.689  1.00  0.00     0.010 A 
HETATM   31  C   UNL     1      27.845  44.346  53.037  1.00  0.00    -0.054 A 
HETATM   32  C   UNL     1      27.244  45.426  53.697  1.00  0.00     0.010 A 
HETATM   33  C   UNL     1      26.350  46.268  53.025  1.00  0.00     0.030 A 
BRANCH  31  34
HETATM   34  C   UNL     1      28.768  43.411  53.800  1.00  0.00     0.014 C 
HETATM   35  C   UNL     1      29.784  42.789  52.835  1.00  0.00     0.015 C 
BRANCH  34  36
HETATM   36  C   UNL     1      29.498  44.073  54.987  1.00  0.00     0.004 C 
HETATM   37  C   UNL     1      30.696  43.269  55.476  1.00  0.00     0.006 C 
ENDBRANCH  34  36
ENDBRANCH  31  34
ENDBRANCH  25  28
ENDBRANCH   1  24
TORSDOF 8
ENDMDL
MODEL 10
REMARK VINA RESULT:      -8.1     13.528     18.285
REMARK  8 active torsions:
REMARK  status: ('A' for Active; 'I' for Inactive)
REMARK    1  A    between atoms: C_2  and  C_3 
REMARK    2  A    between atoms: C_3  and  C_4 
REMARK    3  A    between atoms: C_7  and  N_8 
REMARK       I    between atoms: N_8  and  C_9 
REMARK    4  A    between atoms: C_9  and  C_10 
REMARK    5  A    between atoms: C_13  and  N_14 
REMARK       I    between atoms: N_14  and  C_15 
REMARK    6  A    between atoms: C_15  and  C_16 
REMARK    7  A    between atoms: C_16  and  C_17 
REMARK    8  A    between atoms: C_19  and  N_20 
ROOT
HETATM    1  C   UNL     1      35.194  51.693  42.911  1.00  0.00     0.032 A 
HETATM    2  C   UNL     1      33.938  51.572  43.518  1.00  0.00     0.019 A 
HETATM    3  C   UNL     1      32.935  50.790  42.923  1.00  0.00     0.030 A 
HETATM    4  C   UNL     1      33.168  50.138  41.712  1.00  0.00     0.034 A 
HETATM    5  C   UNL     1      34.412  50.291  41.090  1.00  0.00     0.030 A 
HETATM    6  C   UNL     1      35.415  51.060  41.683  1.00  0.00     0.019 A 
ENDROOT
BRANCH   4   7
HETATM    7  N   UNL     1      32.232  49.317  41.054  1.00  0.00    -0.327 N 
HETATM    8  C   UNL     1      32.265  47.946  40.897  1.00  0.00     0.223 C 
HETATM    9  O   UNL     1      33.112  47.181  41.344  1.00  0.00    -0.273 OA
HETATM   10  H   UNL     1      31.412  49.806  40.690  1.00  0.00     0.169 HD
BRANCH   8  11
HETATM   11  C   UNL     1      31.094  47.406  40.095  1.00  0.00     0.128 C 
BRANCH  11  12
HETATM   12  C   UNL     1      29.869  48.277  40.314  1.00  0.00     0.158 C 
HETATM   13  S   UNL     1      28.362  47.284  40.552  1.00  0.00    -0.077 SA
HETATM   14  C   UNL     1      27.452  48.398  39.541  1.00  0.00     0.168 C 
HETATM   15  N   UNL     1      28.167  49.244  38.873  1.00  0.00    -0.189 NA
HETATM   16  C   UNL     1      29.515  49.086  39.075  1.00  0.00     0.260 C 
HETATM   17  O   UNL     1      30.373  49.569  38.341  1.00  0.00    -0.270 OA
BRANCH  14  18
HETATM   18  N   UNL     1      26.076  48.361  39.550  1.00  0.00    -0.360 N 
HETATM   19  C   UNL     1      25.233  49.286  38.784  1.00  0.00     0.125 C 
HETATM   20  C   UNL     1      24.029  48.537  38.217  1.00  0.00     0.020 C 
HETATM   21  C   UNL     1      23.251  47.820  39.317  1.00  0.00     0.003 C 
HETATM   22  C   UNL     1      24.177  46.937  40.148  1.00  0.00     0.020 C 
HETATM   23  C   UNL     1      25.377  47.725  40.674  1.00  0.00     0.125 C 
ENDBRANCH  14  18
ENDBRANCH  11  12
ENDBRANCH   8  11
ENDBRANCH   4   7
BRANCH   1  24
HETATM   24  C   UNL     1      36.330  52.461  43.507  1.00  0.00     0.256 C 
HETATM   25  N   UNL     1      36.923  51.899  44.623  1.00  0.00    -0.323 N 
HETATM   26  H   UNL     1      36.529  51.045  44.989  1.00  0.00     0.169 HD
HETATM   27  O   UNL     1      36.671  53.499  42.949  1.00  0.00    -0.267 OA
BRANCH  25  28
HETATM   28  C   UNL     1      38.101  52.336  45.270  1.00  0.00     0.035 A 
HETATM   29  C   UNL     1      38.125  53.283  46.292  1.00  0.00     0.030 A 
HETATM   30  C   UNL     1      39.341  53.714  46.838  1.00  0.00     0.010 A 
HETATM   31  C   UNL     1      40.559  53.193  46.388  1.00  0.00    -0.054 A 
HETATM   32  C   UNL     1      40.531  52.230  45.372  1.00  0.00     0.010 A 
HETATM   33  C   UNL     1      39.316  51.809  44.818  1.00  0.00     0.030 A 
BRANCH  31  34
HETATM   34  C   UNL     1      41.891  53.678  46.937  1.00  0.00     0.014 C 
HETATM   35  C   UNL     1      41.707  54.174  48.376  1.00  0.00     0.015 C 
BRANCH  34  36
HETATM   36  C   UNL     1      43.019  52.627  46.877  1.00  0.00     0.004 C 
HETATM   37  C   UNL     1      44.412  53.240  46.937  1.00  0.00     0.006 C 
ENDBRANCH  34  36
ENDBRANCH  31  34
ENDBRANCH  25  28
ENDBRANCH   1  24
TORSDOF 8
ENDMDL
