MODEL 1
REMARK VINA RESULT:      -8.3      0.000      0.000
REMARK  6 active torsions:
REMARK  status: ('A' for Active; 'I' for Inactive)
REMARK    1  A    between atoms: C_2  and  N_3 
REMARK    2  A    between atoms: C_2  and  C_11 
REMARK       I    between atoms: N_3  and  C_4 
REMARK    3  A    between atoms: C_4  and  C_5 
REMARK    4  A    between atoms: C_14  and  O_15 
REMARK    5  A    between atoms: O_15  and  C_16 
REMARK    6  A    between atoms: C_16  and  C_17 
ROOT
HETATM    1  C   UNL     1      25.853  47.449  49.947  1.00  0.00    -0.036 A 
HETATM    2  C   UNL     1      26.686  46.366  49.620  1.00  0.00     0.012 A 
HETATM    3  C   UNL     1      26.909  45.322  50.524  1.00  0.00     0.037 A 
HETATM    4  C   UNL     1      26.300  45.342  51.777  1.00  0.00     0.069 A 
HETATM    5  C   UNL     1      25.436  46.390  52.095  1.00  0.00     0.037 A 
HETATM    6  C   UNL     1      25.210  47.434  51.191  1.00  0.00     0.012 A 
ENDROOT
BRANCH   1   7
HETATM    7  C   UNL     1      25.665  48.556  48.926  1.00  0.00     0.113 C 
HETATM    8  C   UNL     1      26.884  49.459  48.723  1.00  0.00     0.037 C 
BRANCH   7   9
HETATM    9  N   UNL     1      24.505  49.352  49.290  1.00  0.00    -0.352 N 
HETATM   10  C   UNL     1      23.841  50.118  48.368  1.00  0.00     0.225 C 
HETATM   11  O   UNL     1      24.085  50.136  47.171  1.00  0.00    -0.273 OA
HETATM   12  H   UNL     1      24.277  49.428  50.273  1.00  0.00     0.163 HD
BRANCH  10  13
HETATM   13  C   UNL     1      22.761  50.949  48.938  1.00  0.00     0.119 A 
HETATM   14  C   UNL     1      21.319  50.608  48.664  1.00  0.00     0.126 A 
HETATM   15 CL   UNL     1      20.206  51.954  48.418  1.00  0.00    -0.101 Cl
HETATM   16 CL   UNL     1      20.892  49.183  47.732  1.00  0.00    -0.101 Cl
HETATM   17  C   UNL     1      21.878  50.409  50.042  1.00  0.00     0.060 A 
ENDBRANCH  10  13
ENDBRANCH   7   9
ENDBRANCH   1   7
BRANCH   4  18
HETATM   18  O   UNL     1      26.460  44.405  52.760  1.00  0.00    -0.347 OA
BRANCH  18  19
HETATM   19  C   UNL     1      27.599  43.551  52.652  1.00  0.00     0.215 C 
BRANCH  19  20
HETATM   20  C   UNL     1      28.582  43.878  53.742  1.00  0.00    -0.017 A 
HETATM   21  C   UNL     1      28.421  44.996  54.555  1.00  0.00     0.125 A 
HETATM   22  N   UNL     1      29.249  45.321  55.575  1.00  0.00    -0.272 NA
HETATM   23  C   UNL     1      30.291  44.494  55.799  1.00  0.00     0.116 A 
HETATM   24  C   UNL     1      30.538  43.351  55.057  1.00  0.00     0.020 A 
HETATM   25  C   UNL     1      29.667  43.038  54.018  1.00  0.00     0.012 A 
ENDBRANCH  19  20
ENDBRANCH  18  19
ENDBRANCH   4  18
TORSDOF 6
ENDMDL
MODEL 2
REMARK VINA RESULT:      -8.3      1.518      1.713
REMARK  6 active torsions:
REMARK  status: ('A' for Active; 'I' for Inactive)
REMARK    1  A    between atoms: C_2  and  N_3 
REMARK    2  A    between atoms: C_2  and  C_11 
REMARK       I    between atoms: N_3  and  C_4 
REMARK    3  A    between atoms: C_4  and  C_5 
REMARK    4  A    between atoms: C_14  and  O_15 
REMARK    5  A    between atoms: O_15  and  C_16 
REMARK    6  A    between atoms: C_16  and  C_17 
ROOT
HETATM    1  C   UNL     1      25.065  46.647  50.750  1.00  0.00    -0.036 A 
HETATM    2  C   UNL     1      25.062  45.249  50.606  1.00  0.00     0.012 A 
HETATM    3  C   UNL     1      25.443  44.410  51.659  1.00  0.00     0.037 A 
HETATM    4  C   UNL     1      25.835  44.955  52.879  1.00  0.00     0.069 A 
HETATM    5  C   UNL     1      25.800  46.340  53.047  1.00  0.00     0.037 A 
HETATM    6  C   UNL     1      25.417  47.181  51.996  1.00  0.00     0.012 A 
ENDROOT
BRANCH   1   7
HETATM    7  C   UNL     1      24.655  47.500  49.564  1.00  0.00     0.113 C 
HETATM    8  C   UNL     1      25.608  48.654  49.240  1.00  0.00     0.037 C 
BRANCH   7   9
HETATM    9  N   UNL     1      23.309  48.006  49.780  1.00  0.00    -0.352 N 
HETATM   10  C   UNL     1      22.393  48.069  48.763  1.00  0.00     0.225 C 
HETATM   11  O   UNL     1      22.572  47.634  47.635  1.00  0.00    -0.273 OA
HETATM   12  H   UNL     1      23.106  48.433  50.675  1.00  0.00     0.163 HD
BRANCH  10  13
HETATM   13  C   UNL     1      21.119  48.716  49.137  1.00  0.00     0.119 A 
HETATM   14  C   UNL     1      20.985  50.215  49.079  1.00  0.00     0.126 A 
HETATM   15 CL   UNL     1      20.041  50.990  50.352  1.00  0.00    -0.101 Cl
HETATM   16 CL   UNL     1      22.305  51.215  48.496  1.00  0.00    -0.101 Cl
HETATM   17  C   UNL     1      20.250  49.367  48.084  1.00  0.00     0.060 A 
ENDBRANCH  10  13
ENDBRANCH   7   9
ENDBRANCH   1   7
BRANCH   4  18
HETATM   18  O   UNL     1      26.260  44.251  53.972  1.00  0.00    -0.347 OA
BRANCH  18  19
HETATM   19  C   UNL     1      27.331  43.330  53.763  1.00  0.00     0.215 C 
BRANCH  19  20
HETATM   20  C   UNL     1      28.542  43.779  54.534  1.00  0.00    -0.017 A 
HETATM   21  C   UNL     1      28.594  45.028  55.143  1.00  0.00     0.125 A 
HETATM   22  N   UNL     1      29.638  45.473  55.881  1.00  0.00    -0.272 NA
HETATM   23  C   UNL     1      30.685  44.633  56.021  1.00  0.00     0.116 A 
HETATM   24  C   UNL     1      30.731  43.365  55.465  1.00  0.00     0.020 A 
HETATM   25  C   UNL     1      29.641  42.932  54.717  1.00  0.00     0.012 A 
ENDBRANCH  19  20
ENDBRANCH  18  19
ENDBRANCH   4  18
TORSDOF 6
ENDMDL
MODEL 3
REMARK VINA RESULT:      -8.2      2.020      2.497
REMARK  6 active torsions:
REMARK  status: ('A' for Active; 'I' for Inactive)
REMARK    1  A    between atoms: C_2  and  N_3 
REMARK    2  A    between atoms: C_2  and  C_11 
REMARK       I    between atoms: N_3  and  C_4 
REMARK    3  A    between atoms: C_4  and  C_5 
REMARK    4  A    between atoms: C_14  and  O_15 
REMARK    5  A    between atoms: O_15  and  C_16 
REMARK    6  A    between atoms: C_16  and  C_17 
ROOT
HETATM    1  C   UNL     1      24.930  46.574  50.898  1.00  0.00    -0.036 A 
HETATM    2  C   UNL     1      25.584  47.156  51.997  1.00  0.00     0.012 A 
HETATM    3  C   UNL     1      25.848  46.421  53.158  1.00  0.00     0.037 A 
HETATM    4  C   UNL     1      25.463  45.085  53.240  1.00  0.00     0.069 A 
HETATM    5  C   UNL     1      24.853  44.484  52.138  1.00  0.00     0.037 A 
HETATM    6  C   UNL     1      24.590  45.218  50.975  1.00  0.00     0.012 A 
ENDROOT
BRANCH   1   7
HETATM    7  C   UNL     1      24.661  47.431  49.675  1.00  0.00     0.113 C 
HETATM    8  C   UNL     1      25.724  48.496  49.388  1.00  0.00     0.037 C 
BRANCH   7   9
HETATM    9  N   UNL     1      23.352  48.050  49.802  1.00  0.00    -0.352 N 
HETATM   10  C   UNL     1      22.448  48.038  48.772  1.00  0.00     0.225 C 
HETATM   11  O   UNL     1      22.604  47.445  47.715  1.00  0.00    -0.273 OA
HETATM   12  H   UNL     1      23.174  48.605  50.629  1.00  0.00     0.163 HD
BRANCH  10  13
HETATM   13  C   UNL     1      21.219  48.813  49.038  1.00  0.00     0.119 A 
HETATM   14  C   UNL     1      21.252  50.319  49.009  1.00  0.00     0.126 A 
HETATM   15 CL   UNL     1      20.273  51.169  50.205  1.00  0.00    -0.101 Cl
HETATM   16 CL   UNL     1      22.722  51.179  48.585  1.00  0.00    -0.101 Cl
HETATM   17  C   UNL     1      20.533  49.572  47.924  1.00  0.00     0.060 A 
ENDBRANCH  10  13
ENDBRANCH   7   9
ENDBRANCH   1   7
BRANCH   4  18
HETATM   18  O   UNL     1      25.632  44.267  54.323  1.00  0.00    -0.347 OA
BRANCH  18  19
HETATM   19  C   UNL     1      26.918  44.286  54.944  1.00  0.00     0.215 C 
BRANCH  19  20
HETATM   20  C   UNL     1      27.857  43.384  54.191  1.00  0.00    -0.017 A 
HETATM   21  C   UNL     1      27.513  42.072  53.881  1.00  0.00     0.125 A 
HETATM   22  N   UNL     1      28.297  41.226  53.174  1.00  0.00    -0.272 NA
HETATM   23  C   UNL     1      29.486  41.708  52.753  1.00  0.00     0.116 A 
HETATM   24  C   UNL     1      29.921  43.000  52.998  1.00  0.00     0.020 A 
HETATM   25  C   UNL     1      29.091  43.849  53.722  1.00  0.00     0.012 A 
ENDBRANCH  19  20
ENDBRANCH  18  19
ENDBRANCH   4  18
TORSDOF 6
ENDMDL
MODEL 4
REMARK VINA RESULT:      -7.9      1.786      2.178
REMARK  6 active torsions:
REMARK  status: ('A' for Active; 'I' for Inactive)
REMARK    1  A    between atoms: C_2  and  N_3 
REMARK    2  A    between atoms: C_2  and  C_11 
REMARK       I    between atoms: N_3  and  C_4 
REMARK    3  A    between atoms: C_4  and  C_5 
REMARK    4  A    between atoms: C_14  and  O_15 
REMARK    5  A    between atoms: O_15  and  C_16 
REMARK    6  A    between atoms: C_16  and  C_17 
ROOT
HETATM    1  C   UNL     1      25.035  46.953  50.146  1.00  0.00    -0.036 A 
HETATM    2  C   UNL     1      25.530  45.701  49.743  1.00  0.00     0.012 A 
HETATM    3  C   UNL     1      26.231  44.878  50.631  1.00  0.00     0.037 A 
HETATM    4  C   UNL     1      26.451  45.293  51.942  1.00  0.00     0.069 A 
HETATM    5  C   UNL     1      25.926  46.515  52.365  1.00  0.00     0.037 A 
HETATM    6  C   UNL     1      25.222  47.339  51.479  1.00  0.00     0.012 A 
ENDROOT
BRANCH   1   7
HETATM    7  C   UNL     1      24.295  47.804  49.130  1.00  0.00     0.113 C 
HETATM    8  C   UNL     1      24.843  49.223  48.956  1.00  0.00     0.037 C 
BRANCH   7   9
HETATM    9  N   UNL     1      22.885  47.849  49.478  1.00  0.00    -0.352 N 
HETATM   10  C   UNL     1      21.909  47.908  48.518  1.00  0.00     0.225 C 
HETATM   11  O   UNL     1      22.109  47.833  47.315  1.00  0.00    -0.273 OA
HETATM   12  H   UNL     1      22.646  47.968  50.454  1.00  0.00     0.163 HD
BRANCH  10  13
HETATM   13  C   UNL     1      20.542  48.065  49.055  1.00  0.00     0.119 A 
HETATM   14  C   UNL     1      20.060  49.417  49.515  1.00  0.00     0.126 A 
HETATM   15 CL   UNL     1      19.034  49.461  50.949  1.00  0.00    -0.101 Cl
HETATM   16 CL   UNL     1      21.076  50.839  49.350  1.00  0.00    -0.101 Cl
HETATM   17  C   UNL     1      19.488  48.810  48.267  1.00  0.00     0.060 A 
ENDBRANCH  10  13
ENDBRANCH   7   9
ENDBRANCH   1   7
BRANCH   4  18
HETATM   18  O   UNL     1      27.146  44.602  52.896  1.00  0.00    -0.347 OA
BRANCH  18  19
HETATM   19  C   UNL     1      27.202  45.188  54.197  1.00  0.00     0.215 C 
BRANCH  19  20
HETATM   20  C   UNL     1      28.516  44.852  54.848  1.00  0.00    -0.017 A 
HETATM   21  C   UNL     1      29.188  43.669  54.559  1.00  0.00     0.125 A 
HETATM   22  N   UNL     1      30.389  43.329  55.082  1.00  0.00    -0.272 NA
HETATM   23  C   UNL     1      30.951  44.210  55.936  1.00  0.00     0.116 A 
HETATM   24  C   UNL     1      30.373  45.419  56.284  1.00  0.00     0.020 A 
HETATM   25  C   UNL     1      29.140  45.745  55.726  1.00  0.00     0.012 A 
ENDBRANCH  19  20
ENDBRANCH  18  19
ENDBRANCH   4  18
TORSDOF 6
ENDMDL
MODEL 5
REMARK VINA RESULT:      -7.6     11.235     13.078
REMARK  6 active torsions:
REMARK  status: ('A' for Active; 'I' for Inactive)
REMARK    1  A    between atoms: C_2  and  N_3 
REMARK    2  A    between atoms: C_2  and  C_11 
REMARK       I    between atoms: N_3  and  C_4 
REMARK    3  A    between atoms: C_4  and  C_5 
REMARK    4  A    between atoms: C_14  and  O_15 
REMARK    5  A    between atoms: O_15  and  C_16 
REMARK    6  A    between atoms: C_16  and  C_17 
ROOT
HETATM    1  C   UNL     1      33.150  50.869  42.918  1.00  0.00    -0.036 A 
HETATM    2  C   UNL     1      33.440  51.765  43.961  1.00  0.00     0.012 A 
HETATM    3  C   UNL     1      34.742  52.234  44.173  1.00  0.00     0.037 A 
HETATM    4  C   UNL     1      35.779  51.813  43.344  1.00  0.00     0.069 A 
HETATM    5  C   UNL     1      35.493  50.958  42.279  1.00  0.00     0.037 A 
HETATM    6  C   UNL     1      34.192  50.490  42.064  1.00  0.00     0.012 A 
ENDROOT
BRANCH   1   7
HETATM    7  C   UNL     1      31.720  50.388  42.751  1.00  0.00     0.113 C 
HETATM    8  C   UNL     1      31.539  48.869  42.820  1.00  0.00     0.037 C 
BRANCH   7   9
HETATM    9  N   UNL     1      31.184  50.900  41.501  1.00  0.00    -0.352 N 
HETATM   10  C   UNL     1      30.592  52.134  41.426  1.00  0.00     0.225 C 
HETATM   11  O   UNL     1      30.541  52.941  42.343  1.00  0.00    -0.273 OA
HETATM   12  H   UNL     1      31.143  50.268  40.713  1.00  0.00     0.163 HD
BRANCH  10  13
HETATM   13  C   UNL     1      30.004  52.441  40.107  1.00  0.00     0.119 A 
HETATM   14  C   UNL     1      28.511  52.381  39.910  1.00  0.00     0.126 A 
HETATM   15 CL   UNL     1      27.926  51.748  38.371  1.00  0.00    -0.101 Cl
HETATM   16 CL   UNL     1      27.440  52.022  41.254  1.00  0.00    -0.101 Cl
HETATM   17  C   UNL     1      29.207  53.710  39.897  1.00  0.00     0.060 A 
ENDBRANCH  10  13
ENDBRANCH   7   9
ENDBRANCH   1   7
BRANCH   4  18
HETATM   18  O   UNL     1      37.094  52.168  43.463  1.00  0.00    -0.347 OA
BRANCH  18  19
HETATM   19  C   UNL     1      37.370  53.563  43.599  1.00  0.00     0.215 C 
BRANCH  19  20
HETATM   20  C   UNL     1      37.903  53.842  44.977  1.00  0.00    -0.017 A 
HETATM   21  C   UNL     1      37.810  55.106  45.551  1.00  0.00     0.125 A 
HETATM   22  N   UNL     1      38.237  55.409  46.799  1.00  0.00    -0.272 NA
HETATM   23  C   UNL     1      38.784  54.403  47.515  1.00  0.00     0.116 A 
HETATM   24  C   UNL     1      38.915  53.108  47.043  1.00  0.00     0.020 A 
HETATM   25  C   UNL     1      38.463  52.824  45.759  1.00  0.00     0.012 A 
ENDBRANCH  19  20
ENDBRANCH  18  19
ENDBRANCH   4  18
TORSDOF 6
ENDMDL
MODEL 6
REMARK VINA RESULT:      -7.6      5.035      8.359
REMARK  6 active torsions:
REMARK  status: ('A' for Active; 'I' for Inactive)
REMARK    1  A    between atoms: C_2  and  N_3 
REMARK    2  A    between atoms: C_2  and  C_11 
REMARK       I    between atoms: N_3  and  C_4 
REMARK    3  A    between atoms: C_4  and  C_5 
REMARK    4  A    between atoms: C_14  and  O_15 
REMARK    5  A    between atoms: O_15  and  C_16 
REMARK    6  A    between atoms: C_16  and  C_17 
ROOT
HETATM    1  C   UNL     1      18.749  51.140  47.757  1.00  0.00    -0.036 A 
HETATM    2  C   UNL     1      18.945  49.793  47.409  1.00  0.00     0.012 A 
HETATM    3  C   UNL     1      20.170  49.156  47.633  1.00  0.00     0.037 A 
HETATM    4  C   UNL     1      21.226  49.857  48.212  1.00  0.00     0.069 A 
HETATM    5  C   UNL     1      21.028  51.182  48.602  1.00  0.00     0.037 A 
HETATM    6  C   UNL     1      19.802  51.821  48.380  1.00  0.00     0.012 A 
ENDROOT
BRANCH   1   7
HETATM    7  C   UNL     1      17.400  51.776  47.473  1.00  0.00     0.113 C 
HETATM    8  C   UNL     1      17.280  52.447  46.102  1.00  0.00     0.037 C 
BRANCH   7   9
HETATM    9  N   UNL     1      17.087  52.726  48.527  1.00  0.00    -0.352 N 
HETATM   10  C   UNL     1      15.990  52.569  49.333  1.00  0.00     0.225 C 
HETATM   11  O   UNL     1      15.245  51.601  49.316  1.00  0.00    -0.273 OA
HETATM   12  H   UNL     1      17.629  53.580  48.566  1.00  0.00     0.163 HD
BRANCH  10  13
HETATM   13  C   UNL     1      15.764  53.689  50.270  1.00  0.00     0.119 A 
HETATM   14  C   UNL     1      14.902  54.855  49.862  1.00  0.00     0.126 A 
HETATM   15 CL   UNL     1      15.410  56.458  50.397  1.00  0.00    -0.101 Cl
HETATM   16 CL   UNL     1      14.090  54.873  48.306  1.00  0.00    -0.101 Cl
HETATM   17  C   UNL     1      14.407  53.897  50.905  1.00  0.00     0.060 A 
ENDBRANCH  10  13
ENDBRANCH   7   9
ENDBRANCH   1   7
BRANCH   4  18
HETATM   18  O   UNL     1      22.478  49.364  48.455  1.00  0.00    -0.347 OA
BRANCH  18  19
HETATM   19  C   UNL     1      23.575  50.128  47.952  1.00  0.00     0.215 C 
BRANCH  19  20
HETATM   20  C   UNL     1      24.864  49.589  48.508  1.00  0.00    -0.017 A 
HETATM   21  C   UNL     1      24.888  48.471  49.335  1.00  0.00     0.125 A 
HETATM   22  N   UNL     1      26.017  47.917  49.835  1.00  0.00    -0.272 NA
HETATM   23  C   UNL     1      27.184  48.505  49.495  1.00  0.00     0.116 A 
HETATM   24  C   UNL     1      27.273  49.614  48.671  1.00  0.00     0.020 A 
HETATM   25  C   UNL     1      26.096  50.159  48.167  1.00  0.00     0.012 A 
ENDBRANCH  19  20
ENDBRANCH  18  19
ENDBRANCH   4  18
TORSDOF 6
ENDMDL
MODEL 7
REMARK VINA RESULT:      -7.6      4.018      9.240
REMARK  6 active torsions:
REMARK  status: ('A' for Active; 'I' for Inactive)
REMARK    1  A    between atoms: C_2  and  N_3 
REMARK    2  A    between atoms: C_2  and  C_11 
REMARK       I    between atoms: N_3  and  C_4 
REMARK    3  A    between atoms: C_4  and  C_5 
REMARK    4  A    between atoms: C_14  and  O_15 
REMARK    5  A    between atoms: O_15  and  C_16 
REMARK    6  A    between atoms: C_16  and  C_17 
ROOT
HETATM    1  C   UNL     1      24.712  48.236  49.471  1.00  0.00    -0.036 A 
HETATM    2  C   UNL     1      23.790  47.180  49.382  1.00  0.00     0.012 A 
HETATM    3  C   UNL     1      22.572  47.335  48.709  1.00  0.00     0.037 A 
HETATM    4  C   UNL     1      22.254  48.553  48.113  1.00  0.00     0.069 A 
HETATM    5  C   UNL     1      23.182  49.594  48.157  1.00  0.00     0.037 A 
HETATM    6  C   UNL     1      24.402  49.440  48.827  1.00  0.00     0.012 A 
ENDROOT
BRANCH   1   7
HETATM    7  C   UNL     1      26.008  48.007  50.227  1.00  0.00     0.113 C 
HETATM    8  C   UNL     1      27.279  48.139  49.382  1.00  0.00     0.037 C 
BRANCH   7   9
HETATM    9  N   UNL     1      25.965  46.704  50.868  1.00  0.00    -0.352 N 
HETATM   10  C   UNL     1      25.932  46.575  52.232  1.00  0.00     0.225 C 
HETATM   11  O   UNL     1      25.840  47.506  53.019  1.00  0.00    -0.273 OA
HETATM   12  H   UNL     1      26.092  45.888  50.284  1.00  0.00     0.163 HD
BRANCH  10  13
HETATM   13  C   UNL     1      26.007  45.179  52.709  1.00  0.00     0.119 A 
HETATM   14  C   UNL     1      26.799  44.843  53.946  1.00  0.00     0.126 A 
HETATM   15 CL   UNL     1      27.702  43.328  53.938  1.00  0.00    -0.101 Cl
HETATM   16 CL   UNL     1      27.579  46.104  54.885  1.00  0.00    -0.101 Cl
HETATM   17  C   UNL     1      25.301  44.762  53.980  1.00  0.00     0.060 A 
ENDBRANCH  10  13
ENDBRANCH   7   9
ENDBRANCH   1   7
BRANCH   4  18
HETATM   18  O   UNL     1      21.090  48.844  47.457  1.00  0.00    -0.347 OA
BRANCH  18  19
HETATM   19  C   UNL     1      19.876  48.603  48.170  1.00  0.00     0.215 C 
BRANCH  19  20
HETATM   20  C   UNL     1      19.305  49.908  48.652  1.00  0.00    -0.017 A 
HETATM   21  C   UNL     1      18.381  49.958  49.691  1.00  0.00     0.125 A 
HETATM   22  N   UNL     1      17.861  51.102  50.193  1.00  0.00    -0.272 NA
HETATM   23  C   UNL     1      18.281  52.257  49.635  1.00  0.00     0.116 A 
HETATM   24  C   UNL     1      19.204  52.320  48.604  1.00  0.00     0.020 A 
HETATM   25  C   UNL     1      19.726  51.129  48.112  1.00  0.00     0.012 A 
ENDBRANCH  19  20
ENDBRANCH  18  19
ENDBRANCH   4  18
TORSDOF 6
ENDMDL
MODEL 8
REMARK VINA RESULT:      -7.4      4.312      5.489
REMARK  6 active torsions:
REMARK  status: ('A' for Active; 'I' for Inactive)
REMARK    1  A    between atoms: C_2  and  N_3 
REMARK    2  A    between atoms: C_2  and  C_11 
REMARK       I    between atoms: N_3  and  C_4 
REMARK    3  A    between atoms: C_4  and  C_5 
REMARK    4  A    between atoms: C_14  and  O_15 
REMARK    5  A    between atoms: O_15  and  C_16 
REMARK    6  A    between atoms: C_16  and  C_17 
ROOT
HETATM    1  C   UNL     1      26.678  45.165  51.222  1.00  0.00    -0.036 A 
HETATM    2  C   UNL     1      27.564  44.115  50.927  1.00  0.00     0.012 A 
HETATM    3  C   UNL     1      28.249  43.436  51.942  1.00  0.00     0.037 A 
HETATM    4  C   UNL     1      28.059  43.797  53.273  1.00  0.00     0.069 A 
HETATM    5  C   UNL     1      27.148  44.808  53.581  1.00  0.00     0.037 A 
HETATM    6  C   UNL     1      26.460  45.487  52.567  1.00  0.00     0.012 A 
ENDROOT
BRANCH   1   7
HETATM    7  C   UNL     1      25.978  45.869  50.074  1.00  0.00     0.113 C 
HETATM    8  C   UNL     1      24.867  46.836  50.493  1.00  0.00     0.037 C 
BRANCH   7   9
HETATM    9  N   UNL     1      25.456  44.876  49.149  1.00  0.00    -0.352 N 
HETATM   10  C   UNL     1      24.362  44.111  49.458  1.00  0.00     0.225 C 
HETATM   11  O   UNL     1      23.679  44.244  50.463  1.00  0.00    -0.273 OA
HETATM   12  H   UNL     1      26.001  44.674  48.322  1.00  0.00     0.163 HD
BRANCH  10  13
HETATM   13  C   UNL     1      24.045  43.078  48.452  1.00  0.00     0.119 A 
HETATM   14  C   UNL     1      24.585  41.680  48.606  1.00  0.00     0.126 A 
HETATM   15 CL   UNL     1      25.091  40.846  47.136  1.00  0.00    -0.101 Cl
HETATM   16 CL   UNL     1      25.532  41.230  50.013  1.00  0.00    -0.101 Cl
HETATM   17  C   UNL     1      23.118  41.932  48.793  1.00  0.00     0.060 A 
ENDBRANCH  10  13
ENDBRANCH   7   9
ENDBRANCH   1   7
BRANCH   4  18
HETATM   18  O   UNL     1      28.688  43.239  54.352  1.00  0.00    -0.347 OA
BRANCH  18  19
HETATM   19  C   UNL     1      30.098  43.448  54.449  1.00  0.00     0.215 C 
BRANCH  19  20
HETATM   20  C   UNL     1      30.432  44.026  55.797  1.00  0.00    -0.017 A 
HETATM   21  C   UNL     1      31.335  43.401  56.651  1.00  0.00     0.125 A 
HETATM   22  N   UNL     1      31.705  43.891  57.858  1.00  0.00    -0.272 NA
HETATM   23  C   UNL     1      31.148  45.061  58.235  1.00  0.00     0.116 A 
HETATM   24  C   UNL     1      30.247  45.769  57.458  1.00  0.00     0.020 A 
HETATM   25  C   UNL     1      29.890  45.245  56.219  1.00  0.00     0.012 A 
ENDBRANCH  19  20
ENDBRANCH  18  19
ENDBRANCH   4  18
TORSDOF 6
ENDMDL
MODEL 9
REMARK VINA RESULT:      -7.4     18.741     21.100
REMARK  6 active torsions:
REMARK  status: ('A' for Active; 'I' for Inactive)
REMARK    1  A    between atoms: C_2  and  N_3 
REMARK    2  A    between atoms: C_2  and  C_11 
REMARK       I    between atoms: N_3  and  C_4 
REMARK    3  A    between atoms: C_4  and  C_5 
REMARK    4  A    between atoms: C_14  and  O_15 
REMARK    5  A    between atoms: O_15  and  C_16 
REMARK    6  A    between atoms: C_16  and  C_17 
ROOT
HETATM    1  C   UNL     1      38.908  41.785  63.192  1.00  0.00    -0.036 A 
HETATM    2  C   UNL     1      39.443  42.946  62.609  1.00  0.00     0.012 A 
HETATM    3  C   UNL     1      38.762  44.167  62.664  1.00  0.00     0.037 A 
HETATM    4  C   UNL     1      37.529  44.249  63.306  1.00  0.00     0.069 A 
HETATM    5  C   UNL     1      37.009  43.113  63.927  1.00  0.00     0.037 A 
HETATM    6  C   UNL     1      37.690  41.891  63.875  1.00  0.00     0.012 A 
ENDROOT
BRANCH   1   7
HETATM    7  C   UNL     1      39.692  40.490  63.084  1.00  0.00     0.113 C 
HETATM    8  C   UNL     1      39.386  39.654  61.838  1.00  0.00     0.037 C 
BRANCH   7   9
HETATM    9  N   UNL     1      39.478  39.699  64.284  1.00  0.00    -0.352 N 
HETATM   10  C   UNL     1      40.526  39.170  64.992  1.00  0.00     0.225 C 
HETATM   11  O   UNL     1      41.706  39.380  64.753  1.00  0.00    -0.273 OA
HETATM   12  H   UNL     1      38.528  39.439  64.512  1.00  0.00     0.163 HD
BRANCH  10  13
HETATM   13  C   UNL     1      40.119  38.300  66.114  1.00  0.00     0.119 A 
HETATM   14  C   UNL     1      40.663  36.900  66.223  1.00  0.00     0.126 A 
HETATM   15 CL   UNL     1      39.560  35.648  66.795  1.00  0.00    -0.101 Cl
HETATM   16 CL   UNL     1      41.845  36.301  65.071  1.00  0.00    -0.101 Cl
HETATM   17  C   UNL     1      41.103  37.944  67.206  1.00  0.00     0.060 A 
ENDBRANCH  10  13
ENDBRANCH   7   9
ENDBRANCH   1   7
BRANCH   4  18
HETATM   18  O   UNL     1      36.748  45.368  63.403  1.00  0.00    -0.347 OA
BRANCH  18  19
HETATM   19  C   UNL     1      36.098  45.588  64.656  1.00  0.00     0.215 C 
BRANCH  19  20
HETATM   20  C   UNL     1      36.540  46.906  65.231  1.00  0.00    -0.017 A 
HETATM   21  C   UNL     1      36.467  47.164  66.596  1.00  0.00     0.125 A 
HETATM   22  N   UNL     1      36.884  48.314  67.176  1.00  0.00    -0.272 NA
HETATM   23  C   UNL     1      37.399  49.255  66.358  1.00  0.00     0.116 A 
HETATM   24  C   UNL     1      37.527  49.097  64.988  1.00  0.00     0.020 A 
HETATM   25  C   UNL     1      37.096  47.902  64.420  1.00  0.00     0.012 A 
ENDBRANCH  19  20
ENDBRANCH  18  19
ENDBRANCH   4  18
TORSDOF 6
ENDMDL
MODEL 10
REMARK VINA RESULT:      -7.3      5.182     11.142
REMARK  6 active torsions:
REMARK  status: ('A' for Active; 'I' for Inactive)
REMARK    1  A    between atoms: C_2  and  N_3 
REMARK    2  A    between atoms: C_2  and  C_11 
REMARK       I    between atoms: N_3  and  C_4 
REMARK    3  A    between atoms: C_4  and  C_5 
REMARK    4  A    between atoms: C_14  and  O_15 
REMARK    5  A    between atoms: O_15  and  C_16 
REMARK    6  A    between atoms: C_16  and  C_17 
ROOT
HETATM    1  C   UNL     1      21.010  50.224  49.367  1.00  0.00    -0.036 A 
HETATM    2  C   UNL     1      20.115  49.289  49.913  1.00  0.00     0.012 A 
HETATM    3  C   UNL     1      18.786  49.630  50.189  1.00  0.00     0.037 A 
HETATM    4  C   UNL     1      18.327  50.918  49.922  1.00  0.00     0.069 A 
HETATM    5  C   UNL     1      19.195  51.841  49.339  1.00  0.00     0.037 A 
HETATM    6  C   UNL     1      20.524  51.501  49.060  1.00  0.00     0.012 A 
ENDROOT
BRANCH   1   7
HETATM    7  C   UNL     1      22.442  49.794  49.105  1.00  0.00     0.113 C 
HETATM    8  C   UNL     1      22.931  50.021  47.672  1.00  0.00     0.037 C 
BRANCH   7   9
HETATM    9  N   UNL     1      22.597  48.397  49.473  1.00  0.00    -0.352 N 
HETATM   10  C   UNL     1      23.831  47.850  49.712  1.00  0.00     0.225 C 
HETATM   11  O   UNL     1      24.880  48.477  49.735  1.00  0.00    -0.273 OA
HETATM   12  H   UNL     1      21.779  47.804  49.422  1.00  0.00     0.163 HD
BRANCH  10  13
HETATM   13  C   UNL     1      23.808  46.394  49.959  1.00  0.00     0.119 A 
HETATM   14  C   UNL     1      23.132  45.470  48.980  1.00  0.00     0.126 A 
HETATM   15 CL   UNL     1      22.244  44.099  49.646  1.00  0.00    -0.101 Cl
HETATM   16 CL   UNL     1      22.430  46.089  47.495  1.00  0.00    -0.101 Cl
HETATM   17  C   UNL     1      24.628  45.455  49.101  1.00  0.00     0.060 A 
ENDBRANCH  10  13
ENDBRANCH   7   9
ENDBRANCH   1   7
BRANCH   4  18
HETATM   18  O   UNL     1      17.068  51.387  50.173  1.00  0.00    -0.347 OA
BRANCH  18  19
HETATM   19  C   UNL     1      16.546  52.345  49.251  1.00  0.00     0.215 C 
BRANCH  19  20
HETATM   20  C   UNL     1      15.579  53.254  49.959  1.00  0.00    -0.017 A 
HETATM   21  C   UNL     1      14.355  52.788  50.428  1.00  0.00     0.125 A 
HETATM   22  N   UNL     1      13.460  53.546  51.104  1.00  0.00    -0.272 NA
HETATM   23  C   UNL     1      13.799  54.833  51.325  1.00  0.00     0.116 A 
HETATM   24  C   UNL     1      14.995  55.395  50.911  1.00  0.00     0.020 A 
HETATM   25  C   UNL     1      15.898  54.591  50.223  1.00  0.00     0.012 A 
ENDBRANCH  19  20
ENDBRANCH  18  19
ENDBRANCH   4  18
TORSDOF 6
ENDMDL
