MODEL 1
REMARK VINA RESULT:      -8.6      0.000      0.000
REMARK  8 active torsions:
REMARK  status: ('A' for Active; 'I' for Inactive)
REMARK    1  A    between atoms: C_3  and  N_4 
REMARK       I    between atoms: N_4  and  C_5 
REMARK       I    between atoms: C_5  and  N_6 
REMARK       I    between atoms: N_6  and  C_7 
REMARK    2  A    between atoms: C_7  and  C_8 
REMARK    3  A    between atoms: C_8  and  N_9 
REMARK    4  A    between atoms: N_9  and  C_11 
REMARK    5  A    between atoms: N_9  and  C_17 
REMARK    6  A    between atoms: C_11  and  C_12 
REMARK    7  A    between atoms: C_17  and  C_18 
REMARK    8  A    between atoms: C_19  and  O_20 
ROOT
HETATM    1  N   UNL     1      22.846  47.247  49.052  1.00  0.00    -0.053 N 
HETATM    2  H   UNL     1      22.094  46.903  49.666  1.00  0.00     0.281 HD
ENDROOT
BRANCH   1   3
HETATM    3  C   UNL     1      23.423  45.974  48.437  1.00  0.00     0.338 C 
BRANCH   3   4
HETATM    4  C   UNL     1      24.177  45.107  49.444  1.00  0.00     0.251 C 
HETATM    5  N   UNL     1      25.532  45.005  49.209  1.00  0.00    -0.278 N 
HETATM    6  C   UNL     1      26.514  44.624  50.086  1.00  0.00     0.323 C 
HETATM    7  H   UNL     1      25.950  45.524  48.446  1.00  0.00     0.173 HD
HETATM    8  N   UNL     1      26.106  44.002  51.223  1.00  0.00    -0.338 N 
HETATM    9  O   UNL     1      27.675  44.908  49.811  1.00  0.00    -0.247 OA
HETATM   10  H   UNL     1      25.126  43.742  51.285  1.00  0.00     0.164 HD
HETATM   11  O   UNL     1      23.567  44.537  50.350  1.00  0.00    -0.271 OA
BRANCH   8  12
HETATM   12  C   UNL     1      27.000  43.488  52.260  1.00  0.00     0.089 C 
HETATM   13  C   UNL     1      27.692  44.599  53.088  1.00  0.00     0.004 C 
HETATM   14  C   UNL     1      26.674  45.530  53.756  1.00  0.00     0.012 C 
HETATM   15  C   UNL     1      28.610  43.984  54.158  1.00  0.00     0.006 C 
HETATM   16  C   UNL     1      29.617  43.008  53.554  1.00  0.00     0.001 C 
HETATM   17  C   UNL     1      28.922  41.911  52.755  1.00  0.00     0.002 C 
HETATM   18  C   UNL     1      28.018  42.498  51.676  1.00  0.00     0.026 C 
ENDBRANCH   8  12
ENDBRANCH   3   4
ENDBRANCH   1   3
BRANCH   1  19
HETATM   19  C   UNL     1      23.786  47.991  49.976  1.00  0.00     0.300 C 
BRANCH  19  20
HETATM   20  C   UNL     1      24.950  48.629  49.309  1.00  0.00     0.078 A 
HETATM   21  O   UNL     1      26.170  48.057  49.528  1.00  0.00    -0.325 OA
HETATM   22  C   UNL     1      27.086  48.796  48.851  1.00  0.00     0.142 A 
HETATM   23  C   UNL     1      26.471  49.834  48.194  1.00  0.00     0.027 A 
HETATM   24  C   UNL     1      25.090  49.731  48.490  1.00  0.00     0.036 A 
ENDBRANCH  19  20
ENDBRANCH   1  19
BRANCH   1  25
HETATM   25  C   UNL     1      22.196  48.131  48.018  1.00  0.00     0.277 C 
BRANCH  25  26
HETATM   26  C   UNL     1      21.279  49.153  48.628  1.00  0.00     0.001 A 
HETATM   27  C   UNL     1      20.195  48.765  49.423  1.00  0.00     0.073 A 
HETATM   28  C   UNL     1      19.336  49.707  49.985  1.00  0.00     0.037 A 
HETATM   29  C   UNL     1      19.562  51.063  49.759  1.00  0.00     0.003 A 
HETATM   30  C   UNL     1      20.643  51.471  48.979  1.00  0.00     0.001 A 
HETATM   31  C   UNL     1      21.501  50.522  48.418  1.00  0.00     0.011 A 
BRANCH  27  32
HETATM   32  O   UNL     1      19.993  47.432  49.646  1.00  0.00    -0.360 OA
HETATM   33  H   UNL     1      20.459  47.188  50.470  1.00  0.00     0.217 HD
ENDBRANCH  27  32
ENDBRANCH  25  26
ENDBRANCH   1  25
TORSDOF 8
ENDMDL
MODEL 2
REMARK VINA RESULT:      -8.6      2.807      9.268
REMARK  8 active torsions:
REMARK  status: ('A' for Active; 'I' for Inactive)
REMARK    1  A    between atoms: C_3  and  N_4 
REMARK       I    between atoms: N_4  and  C_5 
REMARK       I    between atoms: C_5  and  N_6 
REMARK       I    between atoms: N_6  and  C_7 
REMARK    2  A    between atoms: C_7  and  C_8 
REMARK    3  A    between atoms: C_8  and  N_9 
REMARK    4  A    between atoms: N_9  and  C_11 
REMARK    5  A    between atoms: N_9  and  C_17 
REMARK    6  A    between atoms: C_11  and  C_12 
REMARK    7  A    between atoms: C_17  and  C_18 
REMARK    8  A    between atoms: C_19  and  O_20 
ROOT
HETATM    1  N   UNL     1      27.656  45.054  54.408  1.00  0.00    -0.053 N 
HETATM    2  H   UNL     1      27.574  44.248  55.044  1.00  0.00     0.281 HD
ENDROOT
BRANCH   1   3
HETATM    3  C   UNL     1      26.209  45.491  54.187  1.00  0.00     0.338 C 
BRANCH   3   4
HETATM    4  C   UNL     1      26.026  46.358  52.942  1.00  0.00     0.251 C 
HETATM    5  N   UNL     1      25.695  45.657  51.802  1.00  0.00    -0.278 N 
HETATM    6  C   UNL     1      25.127  46.139  50.651  1.00  0.00     0.323 C 
HETATM    7  H   UNL     1      25.549  44.657  51.852  1.00  0.00     0.173 HD
HETATM    8  N   UNL     1      25.148  47.487  50.481  1.00  0.00    -0.338 N 
HETATM    9  O   UNL     1      24.605  45.336  49.886  1.00  0.00    -0.247 OA
HETATM   10  H   UNL     1      25.695  48.031  51.141  1.00  0.00     0.164 HD
HETATM   11  O   UNL     1      26.210  47.575  53.002  1.00  0.00    -0.271 OA
BRANCH   8  12
HETATM   12  C   UNL     1      24.629  48.188  49.307  1.00  0.00     0.089 C 
HETATM   13  C   UNL     1      25.408  49.480  48.962  1.00  0.00     0.004 C 
HETATM   14  C   UNL     1      26.897  49.203  48.730  1.00  0.00     0.012 C 
HETATM   15  C   UNL     1      24.808  50.158  47.718  1.00  0.00     0.006 C 
HETATM   16  C   UNL     1      23.311  50.416  47.873  1.00  0.00     0.001 C 
HETATM   17  C   UNL     1      22.554  49.133  48.198  1.00  0.00     0.002 C 
HETATM   18  C   UNL     1      23.121  48.451  49.439  1.00  0.00     0.026 C 
ENDBRANCH   8  12
ENDBRANCH   3   4
ENDBRANCH   1   3
BRANCH   1  19
HETATM   19  C   UNL     1      28.350  44.505  53.179  1.00  0.00     0.300 C 
BRANCH  19  20
HETATM   20  C   UNL     1      28.325  43.025  53.051  1.00  0.00     0.078 A 
HETATM   21  O   UNL     1      27.750  42.520  51.921  1.00  0.00    -0.325 OA
HETATM   22  C   UNL     1      27.813  41.166  52.011  1.00  0.00     0.142 A 
HETATM   23  C   UNL     1      28.427  40.794  53.183  1.00  0.00     0.027 A 
HETATM   24  C   UNL     1      28.756  41.994  53.860  1.00  0.00     0.036 A 
ENDBRANCH  19  20
ENDBRANCH   1  19
BRANCH   1  25
HETATM   25  C   UNL     1      28.460  46.104  55.132  1.00  0.00     0.277 C 
BRANCH  25  26
HETATM   26  C   UNL     1      29.420  45.512  56.124  1.00  0.00     0.001 A 
HETATM   27  C   UNL     1      29.355  45.849  57.481  1.00  0.00     0.073 A 
HETATM   28  C   UNL     1      30.247  45.309  58.405  1.00  0.00     0.037 A 
HETATM   29  C   UNL     1      31.220  44.411  57.974  1.00  0.00     0.003 A 
HETATM   30  C   UNL     1      31.296  44.053  56.629  1.00  0.00     0.001 A 
HETATM   31  C   UNL     1      30.399  44.597  55.708  1.00  0.00     0.011 A 
BRANCH  27  32
HETATM   32  O   UNL     1      28.387  46.723  57.891  1.00  0.00    -0.360 OA
HETATM   33  H   UNL     1      27.544  46.231  57.959  1.00  0.00     0.217 HD
ENDBRANCH  27  32
ENDBRANCH  25  26
ENDBRANCH   1  25
TORSDOF 8
ENDMDL
MODEL 3
REMARK VINA RESULT:      -8.5      2.491      4.545
REMARK  8 active torsions:
REMARK  status: ('A' for Active; 'I' for Inactive)
REMARK    1  A    between atoms: C_3  and  N_4 
REMARK       I    between atoms: N_4  and  C_5 
REMARK       I    between atoms: C_5  and  N_6 
REMARK       I    between atoms: N_6  and  C_7 
REMARK    2  A    between atoms: C_7  and  C_8 
REMARK    3  A    between atoms: C_8  and  N_9 
REMARK    4  A    between atoms: N_9  and  C_11 
REMARK    5  A    between atoms: N_9  and  C_17 
REMARK    6  A    between atoms: C_11  and  C_12 
REMARK    7  A    between atoms: C_17  and  C_18 
REMARK    8  A    between atoms: C_19  and  O_20 
ROOT
HETATM    1  N   UNL     1      24.628  45.475  49.467  1.00  0.00    -0.053 N 
HETATM    2  H   UNL     1      25.621  45.535  49.199  1.00  0.00     0.281 HD
ENDROOT
BRANCH   1   3
HETATM    3  C   UNL     1      24.617  44.441  50.591  1.00  0.00     0.338 C 
BRANCH   3   4
HETATM    4  C   UNL     1      25.746  44.638  51.601  1.00  0.00     0.251 C 
HETATM    5  N   UNL     1      25.363  44.503  52.919  1.00  0.00    -0.278 N 
HETATM    6  C   UNL     1      26.160  44.265  54.009  1.00  0.00     0.323 C 
HETATM    7  H   UNL     1      24.410  44.242  53.141  1.00  0.00     0.173 HD
HETATM    8  N   UNL     1      27.493  44.468  53.842  1.00  0.00    -0.338 N 
HETATM    9  O   UNL     1      25.629  43.848  55.032  1.00  0.00    -0.247 OA
HETATM   10  H   UNL     1      27.793  44.905  52.977  1.00  0.00     0.164 HD
HETATM   11  O   UNL     1      26.878  44.933  51.216  1.00  0.00    -0.271 OA
BRANCH   8  12
HETATM   12  C   UNL     1      28.499  44.307  54.892  1.00  0.00     0.089 C 
HETATM   13  C   UNL     1      29.132  45.641  55.353  1.00  0.00     0.004 C 
HETATM   14  C   UNL     1      28.075  46.630  55.857  1.00  0.00     0.012 C 
HETATM   15  C   UNL     1      30.175  45.393  56.457  1.00  0.00     0.006 C 
HETATM   16  C   UNL     1      31.230  44.377  56.028  1.00  0.00     0.001 C 
HETATM   17  C   UNL     1      30.595  43.062  55.590  1.00  0.00     0.002 C 
HETATM   18  C   UNL     1      29.568  43.282  54.484  1.00  0.00     0.026 C 
ENDBRANCH   8  12
ENDBRANCH   3   4
ENDBRANCH   1   3
BRANCH   1  19
HETATM   19  C   UNL     1      23.913  45.049  48.202  1.00  0.00     0.300 C 
BRANCH  19  20
HETATM   20  C   UNL     1      22.514  45.532  48.079  1.00  0.00     0.078 A 
HETATM   21  O   UNL     1      22.294  46.549  47.195  1.00  0.00    -0.325 OA
HETATM   22  C   UNL     1      20.970  46.848  47.249  1.00  0.00     0.142 A 
HETATM   23  C   UNL     1      20.333  46.031  48.153  1.00  0.00     0.027 A 
HETATM   24  C   UNL     1      21.329  45.182  48.693  1.00  0.00     0.036 A 
ENDBRANCH  19  20
ENDBRANCH   1  19
BRANCH   1  25
HETATM   25  C   UNL     1      24.223  46.844  49.954  1.00  0.00     0.277 C 
BRANCH  25  26
HETATM   26  C   UNL     1      25.123  47.929  49.435  1.00  0.00     0.001 A 
HETATM   27  C   UNL     1      24.608  48.997  48.690  1.00  0.00     0.073 A 
HETATM   28  C   UNL     1      25.438  50.003  48.199  1.00  0.00     0.037 A 
HETATM   29  C   UNL     1      26.806  49.951  48.458  1.00  0.00     0.003 A 
HETATM   30  C   UNL     1      27.337  48.902  49.207  1.00  0.00     0.001 A 
HETATM   31  C   UNL     1      26.501  47.897  49.697  1.00  0.00     0.011 A 
BRANCH  27  32
HETATM   32  O   UNL     1      23.263  49.041  48.454  1.00  0.00    -0.360 OA
HETATM   33  H   UNL     1      22.826  49.388  49.257  1.00  0.00     0.217 HD
ENDBRANCH  27  32
ENDBRANCH  25  26
ENDBRANCH   1  25
TORSDOF 8
ENDMDL
MODEL 4
REMARK VINA RESULT:      -8.5      2.382      8.177
REMARK  8 active torsions:
REMARK  status: ('A' for Active; 'I' for Inactive)
REMARK    1  A    between atoms: C_3  and  N_4 
REMARK       I    between atoms: N_4  and  C_5 
REMARK       I    between atoms: C_5  and  N_6 
REMARK       I    between atoms: N_6  and  C_7 
REMARK    2  A    between atoms: C_7  and  C_8 
REMARK    3  A    between atoms: C_8  and  N_9 
REMARK    4  A    between atoms: N_9  and  C_11 
REMARK    5  A    between atoms: N_9  and  C_17 
REMARK    6  A    between atoms: C_11  and  C_12 
REMARK    7  A    between atoms: C_17  and  C_18 
REMARK    8  A    between atoms: C_19  and  O_20 
ROOT
HETATM    1  N   UNL     1      26.176  42.115  51.651  1.00  0.00    -0.053 N 
HETATM    2  H   UNL     1      26.132  41.973  52.670  1.00  0.00     0.281 HD
ENDROOT
BRANCH   1   3
HETATM    3  C   UNL     1      24.779  42.617  51.293  1.00  0.00     0.338 C 
BRANCH   3   4
HETATM    4  C   UNL     1      24.781  44.017  50.682  1.00  0.00     0.251 C 
HETATM    5  N   UNL     1      24.710  45.042  51.603  1.00  0.00    -0.278 N 
HETATM    6  C   UNL     1      25.045  46.360  51.425  1.00  0.00     0.323 C 
HETATM    7  H   UNL     1      24.709  44.829  52.592  1.00  0.00     0.173 HD
HETATM    8  N   UNL     1      25.189  46.783  50.142  1.00  0.00    -0.338 N 
HETATM    9  O   UNL     1      25.233  47.045  52.424  1.00  0.00    -0.247 OA
HETATM   10  H   UNL     1      24.911  46.141  49.406  1.00  0.00     0.164 HD
HETATM   11  O   UNL     1      24.805  44.160  49.459  1.00  0.00    -0.271 OA
BRANCH   8  12
HETATM   12  C   UNL     1      25.504  48.155  49.747  1.00  0.00     0.089 C 
HETATM   13  C   UNL     1      24.495  48.757  48.740  1.00  0.00     0.004 C 
HETATM   14  C   UNL     1      23.063  48.737  49.287  1.00  0.00     0.012 C 
HETATM   15  C   UNL     1      24.889  50.198  48.374  1.00  0.00     0.006 C 
HETATM   16  C   UNL     1      26.326  50.287  47.867  1.00  0.00     0.001 C 
HETATM   17  C   UNL     1      27.311  49.704  48.873  1.00  0.00     0.002 C 
HETATM   18  C   UNL     1      26.950  48.268  49.239  1.00  0.00     0.026 C 
ENDBRANCH   8  12
ENDBRANCH   3   4
ENDBRANCH   1   3
BRANCH   1  19
HETATM   19  C   UNL     1      26.528  40.754  51.088  1.00  0.00     0.300 C 
BRANCH  19  20
HETATM   20  C   UNL     1      27.142  40.772  49.736  1.00  0.00     0.078 A 
HETATM   21  O   UNL     1      26.359  41.231  48.716  1.00  0.00    -0.325 OA
HETATM   22  C   UNL     1      27.095  41.147  47.577  1.00  0.00     0.142 A 
HETATM   23  C   UNL     1      28.345  40.646  47.853  1.00  0.00     0.027 A 
HETATM   24  C   UNL     1      28.377  40.399  49.247  1.00  0.00     0.036 A 
ENDBRANCH  19  20
ENDBRANCH   1  19
BRANCH   1  25
HETATM   25  C   UNL     1      27.235  43.160  51.400  1.00  0.00     0.277 C 
BRANCH  25  26
HETATM   26  C   UNL     1      28.181  43.310  52.556  1.00  0.00     0.001 A 
HETATM   27  C   UNL     1      27.796  43.988  53.719  1.00  0.00     0.073 A 
HETATM   28  C   UNL     1      28.671  44.138  54.792  1.00  0.00     0.037 A 
HETATM   29  C   UNL     1      29.953  43.598  54.713  1.00  0.00     0.003 A 
HETATM   30  C   UNL     1      30.353  42.910  53.568  1.00  0.00     0.001 A 
HETATM   31  C   UNL     1      29.471  42.763  52.496  1.00  0.00     0.011 A 
BRANCH  27  32
HETATM   32  O   UNL     1      26.531  44.501  53.788  1.00  0.00    -0.360 OA
HETATM   33  H   UNL     1      25.899  43.761  53.694  1.00  0.00     0.217 HD
ENDBRANCH  27  32
ENDBRANCH  25  26
ENDBRANCH   1  25
TORSDOF 8
ENDMDL
MODEL 5
REMARK VINA RESULT:      -8.4      1.968      8.642
REMARK  8 active torsions:
REMARK  status: ('A' for Active; 'I' for Inactive)
REMARK    1  A    between atoms: C_3  and  N_4 
REMARK       I    between atoms: N_4  and  C_5 
REMARK       I    between atoms: C_5  and  N_6 
REMARK       I    between atoms: N_6  and  C_7 
REMARK    2  A    between atoms: C_7  and  C_8 
REMARK    3  A    between atoms: C_8  and  N_9 
REMARK    4  A    between atoms: N_9  and  C_11 
REMARK    5  A    between atoms: N_9  and  C_17 
REMARK    6  A    between atoms: C_11  and  C_12 
REMARK    7  A    between atoms: C_17  and  C_18 
REMARK    8  A    between atoms: C_19  and  O_20 
ROOT
HETATM    1  N   UNL     1      26.163  43.288  51.394  1.00  0.00    -0.053 N 
HETATM    2  H   UNL     1      26.326  42.559  52.102  1.00  0.00     0.281 HD
ENDROOT
BRANCH   1   3
HETATM    3  C   UNL     1      24.961  44.060  51.936  1.00  0.00     0.338 C 
BRANCH   3   4
HETATM    4  C   UNL     1      24.685  45.356  51.175  1.00  0.00     0.251 C 
HETATM    5  N   UNL     1      24.174  45.175  49.907  1.00  0.00    -0.278 N 
HETATM    6  C   UNL     1      23.502  46.085  49.131  1.00  0.00     0.323 C 
HETATM    7  H   UNL     1      23.969  44.240  49.576  1.00  0.00     0.173 HD
HETATM    8  N   UNL     1      23.591  47.387  49.508  1.00  0.00    -0.338 N 
HETATM    9  O   UNL     1      22.840  45.662  48.190  1.00  0.00    -0.247 OA
HETATM   10  H   UNL     1      24.248  47.615  50.248  1.00  0.00     0.164 HD
HETATM   11  O   UNL     1      24.955  46.444  51.685  1.00  0.00    -0.271 OA
BRANCH   8  12
HETATM   12  C   UNL     1      22.980  48.506  48.791  1.00  0.00     0.089 C 
HETATM   13  C   UNL     1      23.755  49.837  48.945  1.00  0.00     0.004 C 
HETATM   14  C   UNL     1      25.208  49.709  48.475  1.00  0.00     0.012 C 
HETATM   15  C   UNL     1      23.056  50.964  48.163  1.00  0.00     0.006 C 
HETATM   16  C   UNL     1      21.588  51.107  48.556  1.00  0.00     0.001 C 
HETATM   17  C   UNL     1      20.833  49.793  48.387  1.00  0.00     0.002 C 
HETATM   18  C   UNL     1      21.499  48.664  49.167  1.00  0.00     0.026 C 
ENDBRANCH   8  12
ENDBRANCH   3   4
ENDBRANCH   1   3
BRANCH   1  19
HETATM   19  C   UNL     1      25.905  42.526  50.111  1.00  0.00     0.300 C 
BRANCH  19  20
HETATM   20  C   UNL     1      26.961  41.551  49.736  1.00  0.00     0.078 A 
HETATM   21  O   UNL     1      27.527  41.708  48.503  1.00  0.00    -0.325 OA
HETATM   22  C   UNL     1      28.442  40.716  48.353  1.00  0.00     0.142 A 
HETATM   23  C   UNL     1      28.477  39.925  49.477  1.00  0.00     0.027 A 
HETATM   24  C   UNL     1      27.518  40.460  50.371  1.00  0.00     0.036 A 
ENDBRANCH  19  20
ENDBRANCH   1  19
BRANCH   1  25
HETATM   25  C   UNL     1      27.407  44.139  51.346  1.00  0.00     0.277 C 
BRANCH  25  26
HETATM   26  C   UNL     1      28.322  43.888  52.511  1.00  0.00     0.001 A 
HETATM   27  C   UNL     1      28.156  44.575  53.719  1.00  0.00     0.073 A 
HETATM   28  C   UNL     1      29.005  44.352  54.801  1.00  0.00     0.037 A 
HETATM   29  C   UNL     1      30.037  43.423  54.684  1.00  0.00     0.003 A 
HETATM   30  C   UNL     1      30.212  42.720  53.492  1.00  0.00     0.001 A 
HETATM   31  C   UNL     1      29.358  42.948  52.412  1.00  0.00     0.011 A 
BRANCH  27  32
HETATM   32  O   UNL     1      27.132  45.474  53.824  1.00  0.00    -0.360 OA
HETATM   33  H   UNL     1      26.308  45.030  53.542  1.00  0.00     0.217 HD
ENDBRANCH  27  32
ENDBRANCH  25  26
ENDBRANCH   1  25
TORSDOF 8
ENDMDL
MODEL 6
REMARK VINA RESULT:      -8.3      1.489      4.223
REMARK  8 active torsions:
REMARK  status: ('A' for Active; 'I' for Inactive)
REMARK    1  A    between atoms: C_3  and  N_4 
REMARK       I    between atoms: N_4  and  C_5 
REMARK       I    between atoms: C_5  and  N_6 
REMARK       I    between atoms: N_6  and  C_7 
REMARK    2  A    between atoms: C_7  and  C_8 
REMARK    3  A    between atoms: C_8  and  N_9 
REMARK    4  A    between atoms: N_9  and  C_11 
REMARK    5  A    between atoms: N_9  and  C_17 
REMARK    6  A    between atoms: C_11  and  C_12 
REMARK    7  A    between atoms: C_17  and  C_18 
REMARK    8  A    between atoms: C_19  and  O_20 
ROOT
HETATM    1  N   UNL     1      23.199  46.674  48.576  1.00  0.00    -0.053 N 
HETATM    2  H   UNL     1      23.987  46.601  47.916  1.00  0.00     0.281 HD
ENDROOT
BRANCH   1   3
HETATM    3  C   UNL     1      23.152  45.299  49.240  1.00  0.00     0.338 C 
BRANCH   3   4
HETATM    4  C   UNL     1      24.425  44.962  50.015  1.00  0.00     0.251 C 
HETATM    5  N   UNL     1      24.264  44.915  51.384  1.00  0.00    -0.278 N 
HETATM    6  C   UNL     1      25.077  44.311  52.308  1.00  0.00     0.323 C 
HETATM    7  H   UNL     1      23.345  45.051  51.787  1.00  0.00     0.173 HD
HETATM    8  N   UNL     1      26.322  43.966  51.889  1.00  0.00    -0.338 N 
HETATM    9  O   UNL     1      24.615  44.085  53.421  1.00  0.00    -0.247 OA
HETATM   10  H   UNL     1      26.614  44.295  50.974  1.00  0.00     0.164 HD
HETATM   11  O   UNL     1      25.489  44.796  49.417  1.00  0.00    -0.271 OA
BRANCH   8  12
HETATM   12  C   UNL     1      27.345  43.349  52.733  1.00  0.00     0.089 C 
HETATM   13  C   UNL     1      28.344  44.365  53.339  1.00  0.00     0.004 C 
HETATM   14  C   UNL     1      27.631  45.440  54.166  1.00  0.00     0.012 C 
HETATM   15  C   UNL     1      29.384  43.645  54.214  1.00  0.00     0.006 C 
HETATM   16  C   UNL     1      30.095  42.527  53.455  1.00  0.00     0.001 C 
HETATM   17  C   UNL     1      29.102  41.526  52.875  1.00  0.00     0.002 C 
HETATM   18  C   UNL     1      28.069  42.216  51.990  1.00  0.00     0.026 C 
ENDBRANCH   8  12
ENDBRANCH   3   4
ENDBRANCH   1   3
BRANCH   1  19
HETATM   19  C   UNL     1      22.002  47.004  47.709  1.00  0.00     0.300 C 
BRANCH  19  20
HETATM   20  C   UNL     1      20.828  47.548  48.439  1.00  0.00     0.078 A 
HETATM   21  O   UNL     1      20.859  48.880  48.738  1.00  0.00    -0.325 OA
HETATM   22  C   UNL     1      19.716  49.165  49.414  1.00  0.00     0.142 A 
HETATM   23  C   UNL     1      18.946  48.034  49.548  1.00  0.00     0.027 A 
HETATM   24  C   UNL     1      19.665  46.986  48.923  1.00  0.00     0.036 A 
ENDBRANCH  19  20
ENDBRANCH   1  19
BRANCH   1  25
HETATM   25  C   UNL     1      23.549  47.764  49.557  1.00  0.00     0.277 C 
BRANCH  25  26
HETATM   26  C   UNL     1      24.846  48.445  49.223  1.00  0.00     0.001 A 
HETATM   27  C   UNL     1      24.902  49.451  48.252  1.00  0.00     0.073 A 
HETATM   28  C   UNL     1      26.103  50.081  47.932  1.00  0.00     0.037 A 
HETATM   29  C   UNL     1      27.271  49.710  48.594  1.00  0.00     0.003 A 
HETATM   30  C   UNL     1      27.234  48.718  49.573  1.00  0.00     0.001 A 
HETATM   31  C   UNL     1      26.028  48.090  49.889  1.00  0.00     0.011 A 
BRANCH  27  32
HETATM   32  O   UNL     1      23.747  49.814  47.618  1.00  0.00    -0.360 OA
HETATM   33  H   UNL     1      23.549  50.741  47.857  1.00  0.00     0.217 HD
ENDBRANCH  27  32
ENDBRANCH  25  26
ENDBRANCH   1  25
TORSDOF 8
ENDMDL
MODEL 7
REMARK VINA RESULT:      -8.3      2.110      8.258
REMARK  8 active torsions:
REMARK  status: ('A' for Active; 'I' for Inactive)
REMARK    1  A    between atoms: C_3  and  N_4 
REMARK       I    between atoms: N_4  and  C_5 
REMARK       I    between atoms: C_5  and  N_6 
REMARK       I    between atoms: N_6  and  C_7 
REMARK    2  A    between atoms: C_7  and  C_8 
REMARK    3  A    between atoms: C_8  and  N_9 
REMARK    4  A    between atoms: N_9  and  C_11 
REMARK    5  A    between atoms: N_9  and  C_17 
REMARK    6  A    between atoms: C_11  and  C_12 
REMARK    7  A    between atoms: C_17  and  C_18 
REMARK    8  A    between atoms: C_19  and  O_20 
ROOT
HETATM    1  N   UNL     1      25.064  44.675  52.376  1.00  0.00    -0.053 N 
HETATM    2  H   UNL     1      24.092  44.864  52.095  1.00  0.00     0.281 HD
ENDROOT
BRANCH   1   3
HETATM    3  C   UNL     1      25.871  45.734  51.627  1.00  0.00     0.338 C 
BRANCH   3   4
HETATM    4  C   UNL     1      24.998  46.789  50.951  1.00  0.00     0.251 C 
HETATM    5  N   UNL     1      24.430  46.383  49.761  1.00  0.00    -0.278 N 
HETATM    6  C   UNL     1      23.350  46.926  49.113  1.00  0.00     0.323 C 
HETATM    7  H   UNL     1      24.572  45.436  49.434  1.00  0.00     0.173 HD
HETATM    8  N   UNL     1      22.962  48.166  49.513  1.00  0.00    -0.338 N 
HETATM    9  O   UNL     1      22.789  46.247  48.261  1.00  0.00    -0.247 OA
HETATM   10  H   UNL     1      23.570  48.658  50.161  1.00  0.00     0.164 HD
HETATM   11  O   UNL     1      24.878  47.909  51.451  1.00  0.00    -0.271 OA
BRANCH   8  12
HETATM   12  C   UNL     1      21.862  48.926  48.921  1.00  0.00     0.089 C 
HETATM   13  C   UNL     1      22.015  50.459  49.076  1.00  0.00     0.004 C 
HETATM   14  C   UNL     1      23.326  50.966  48.465  1.00  0.00     0.012 C 
HETATM   15  C   UNL     1      20.826  51.190  48.429  1.00  0.00     0.006 C 
HETATM   16  C   UNL     1      19.487  50.691  48.966  1.00  0.00     0.001 C 
HETATM   17  C   UNL     1      19.343  49.183  48.795  1.00  0.00     0.002 C 
HETATM   18  C   UNL     1      20.503  48.435  49.443  1.00  0.00     0.026 C 
ENDBRANCH   8  12
ENDBRANCH   3   4
ENDBRANCH   1   3
BRANCH   1  19
HETATM   19  C   UNL     1      25.321  43.250  51.935  1.00  0.00     0.300 C 
BRANCH  19  20
HETATM   20  C   UNL     1      24.551  42.811  50.743  1.00  0.00     0.078 A 
HETATM   21  O   UNL     1      23.350  43.425  50.533  1.00  0.00    -0.325 OA
HETATM   22  C   UNL     1      22.807  42.872  49.417  1.00  0.00     0.142 A 
HETATM   23  C   UNL     1      23.647  41.913  48.903  1.00  0.00     0.027 A 
HETATM   24  C   UNL     1      24.774  41.869  49.760  1.00  0.00     0.036 A 
ENDBRANCH  19  20
ENDBRANCH   1  19
BRANCH   1  25
HETATM   25  C   UNL     1      25.133  44.863  53.870  1.00  0.00     0.277 C 
BRANCH  25  26
HETATM   26  C   UNL     1      26.470  45.375  54.326  1.00  0.00     0.001 A 
HETATM   27  C   UNL     1      26.667  46.734  54.597  1.00  0.00     0.073 A 
HETATM   28  C   UNL     1      27.907  47.215  55.013  1.00  0.00     0.037 A 
HETATM   29  C   UNL     1      28.970  46.330  55.169  1.00  0.00     0.003 A 
HETATM   30  C   UNL     1      28.791  44.970  54.916  1.00  0.00     0.001 A 
HETATM   31  C   UNL     1      27.547  44.493  54.499  1.00  0.00     0.011 A 
BRANCH  27  32
HETATM   32  O   UNL     1      25.612  47.589  54.451  1.00  0.00    -0.360 OA
HETATM   33  H   UNL     1      24.795  47.105  54.681  1.00  0.00     0.217 HD
ENDBRANCH  27  32
ENDBRANCH  25  26
ENDBRANCH   1  25
TORSDOF 8
ENDMDL
MODEL 8
REMARK VINA RESULT:      -8.2      2.069      2.960
REMARK  8 active torsions:
REMARK  status: ('A' for Active; 'I' for Inactive)
REMARK    1  A    between atoms: C_3  and  N_4 
REMARK       I    between atoms: N_4  and  C_5 
REMARK       I    between atoms: C_5  and  N_6 
REMARK       I    between atoms: N_6  and  C_7 
REMARK    2  A    between atoms: C_7  and  C_8 
REMARK    3  A    between atoms: C_8  and  N_9 
REMARK    4  A    between atoms: N_9  and  C_11 
REMARK    5  A    between atoms: N_9  and  C_17 
REMARK    6  A    between atoms: C_11  and  C_12 
REMARK    7  A    between atoms: C_17  and  C_18 
REMARK    8  A    between atoms: C_19  and  O_20 
ROOT
HETATM    1  N   UNL     1      23.118  46.628  49.347  1.00  0.00    -0.053 N 
HETATM    2  H   UNL     1      22.377  46.738  50.054  1.00  0.00     0.281 HD
ENDROOT
BRANCH   1   3
HETATM    3  C   UNL     1      23.602  45.194  49.548  1.00  0.00     0.338 C 
BRANCH   3   4
HETATM    4  C   UNL     1      24.781  45.086  50.514  1.00  0.00     0.251 C 
HETATM    5  N   UNL     1      24.424  45.014  51.844  1.00  0.00    -0.278 N 
HETATM    6  C   UNL     1      25.178  44.562  52.897  1.00  0.00     0.323 C 
HETATM    7  H   UNL     1      23.445  44.986  52.101  1.00  0.00     0.173 HD
HETATM    8  N   UNL     1      26.514  44.440  52.679  1.00  0.00    -0.338 N 
HETATM    9  O   UNL     1      24.598  44.260  53.933  1.00  0.00    -0.247 OA
HETATM   10  H   UNL     1      26.880  44.814  51.809  1.00  0.00     0.164 HD
HETATM   11  O   UNL     1      25.936  45.108  50.087  1.00  0.00    -0.271 OA
BRANCH   8  12
HETATM   12  C   UNL     1      27.487  44.014  53.683  1.00  0.00     0.089 C 
HETATM   13  C   UNL     1      28.360  45.169  54.230  1.00  0.00     0.004 C 
HETATM   14  C   UNL     1      27.508  46.288  54.840  1.00  0.00     0.012 C 
HETATM   15  C   UNL     1      29.354  44.646  55.281  1.00  0.00     0.006 C 
HETATM   16  C   UNL     1      30.200  43.494  54.744  1.00  0.00     0.001 C 
HETATM   17  C   UNL     1      29.329  42.357  54.222  1.00  0.00     0.002 C 
HETATM   18  C   UNL     1      28.346  42.850  53.166  1.00  0.00     0.026 C 
ENDBRANCH   8  12
ENDBRANCH   3   4
ENDBRANCH   1   3
BRANCH   1  19
HETATM   19  C   UNL     1      24.135  47.697  49.687  1.00  0.00     0.300 C 
BRANCH  19  20
HETATM   20  C   UNL     1      23.835  49.046  49.141  1.00  0.00     0.078 A 
HETATM   21  O   UNL     1      22.888  49.775  49.801  1.00  0.00    -0.325 OA
HETATM   22  C   UNL     1      22.754  50.952  49.136  1.00  0.00     0.142 A 
HETATM   23  C   UNL     1      23.608  50.992  48.060  1.00  0.00     0.027 A 
HETATM   24  C   UNL     1      24.306  49.760  48.058  1.00  0.00     0.036 A 
ENDBRANCH  19  20
ENDBRANCH   1  19
BRANCH   1  25
HETATM   25  C   UNL     1      22.470  46.823  48.000  1.00  0.00     0.277 C 
BRANCH  25  26
HETATM   26  C   UNL     1      21.014  46.453  48.002  1.00  0.00     0.001 A 
HETATM   27  C   UNL     1      20.096  47.145  48.802  1.00  0.00     0.073 A 
HETATM   28  C   UNL     1      18.746  46.802  48.815  1.00  0.00     0.037 A 
HETATM   29  C   UNL     1      18.295  45.756  48.012  1.00  0.00     0.003 A 
HETATM   30  C   UNL     1      19.191  45.062  47.200  1.00  0.00     0.001 A 
HETATM   31  C   UNL     1      20.543  45.410  47.191  1.00  0.00     0.011 A 
BRANCH  27  32
HETATM   32  O   UNL     1      20.550  48.176  49.574  1.00  0.00    -0.360 OA
HETATM   33  H   UNL     1      21.383  47.893  50.000  1.00  0.00     0.217 HD
ENDBRANCH  27  32
ENDBRANCH  25  26
ENDBRANCH   1  25
TORSDOF 8
ENDMDL
MODEL 9
REMARK VINA RESULT:      -8.0      3.855      7.154
REMARK  8 active torsions:
REMARK  status: ('A' for Active; 'I' for Inactive)
REMARK    1  A    between atoms: C_3  and  N_4 
REMARK       I    between atoms: N_4  and  C_5 
REMARK       I    between atoms: C_5  and  N_6 
REMARK       I    between atoms: N_6  and  C_7 
REMARK    2  A    between atoms: C_7  and  C_8 
REMARK    3  A    between atoms: C_8  and  N_9 
REMARK    4  A    between atoms: N_9  and  C_11 
REMARK    5  A    between atoms: N_9  and  C_17 
REMARK    6  A    between atoms: C_11  and  C_12 
REMARK    7  A    between atoms: C_17  and  C_18 
REMARK    8  A    between atoms: C_19  and  O_20 
ROOT
HETATM    1  N   UNL     1      24.791  42.517  50.114  1.00  0.00    -0.053 N 
HETATM    2  H   UNL     1      25.066  42.062  50.996  1.00  0.00     0.281 HD
ENDROOT
BRANCH   1   3
HETATM    3  C   UNL     1      25.777  43.675  49.979  1.00  0.00     0.338 C 
BRANCH   3   4
HETATM    4  C   UNL     1      26.458  44.042  51.297  1.00  0.00     0.251 C 
HETATM    5  N   UNL     1      26.467  43.032  52.236  1.00  0.00    -0.278 N 
HETATM    6  C   UNL     1      27.278  42.909  53.334  1.00  0.00     0.323 C 
HETATM    7  H   UNL     1      26.084  42.125  52.001  1.00  0.00     0.173 HD
HETATM    8  N   UNL     1      27.952  44.023  53.720  1.00  0.00    -0.338 N 
HETATM    9  O   UNL     1      27.374  41.805  53.858  1.00  0.00    -0.247 OA
HETATM   10  H   UNL     1      27.711  44.896  53.260  1.00  0.00     0.164 HD
HETATM   11  O   UNL     1      26.910  45.176  51.467  1.00  0.00    -0.271 OA
BRANCH   8  12
HETATM   12  C   UNL     1      28.833  44.104  54.885  1.00  0.00     0.089 C 
HETATM   13  C   UNL     1      29.194  45.554  55.289  1.00  0.00     0.004 C 
HETATM   14  C   UNL     1      27.945  46.393  55.579  1.00  0.00     0.012 C 
HETATM   15  C   UNL     1      30.118  45.559  56.519  1.00  0.00     0.006 C 
HETATM   16  C   UNL     1      31.360  44.697  56.305  1.00  0.00     0.001 C 
HETATM   17  C   UNL     1      30.990  43.269  55.922  1.00  0.00     0.002 C 
HETATM   18  C   UNL     1      30.087  43.238  54.694  1.00  0.00     0.026 C 
ENDBRANCH   8  12
ENDBRANCH   3   4
ENDBRANCH   1   3
BRANCH   1  19
HETATM   19  C   UNL     1      23.350  42.929  50.327  1.00  0.00     0.300 C 
BRANCH  19  20
HETATM   20  C   UNL     1      22.750  43.716  49.219  1.00  0.00     0.078 A 
HETATM   21  O   UNL     1      22.099  43.007  48.250  1.00  0.00    -0.325 OA
HETATM   22  C   UNL     1      21.649  43.903  47.334  1.00  0.00     0.142 A 
HETATM   23  C   UNL     1      21.997  45.180  47.704  1.00  0.00     0.027 A 
HETATM   24  C   UNL     1      22.712  45.062  48.920  1.00  0.00     0.036 A 
ENDBRANCH  19  20
ENDBRANCH   1  19
BRANCH   1  25
HETATM   25  C   UNL     1      24.967  41.493  49.020  1.00  0.00     0.277 C 
BRANCH  25  26
HETATM   26  C   UNL     1      26.351  40.909  48.996  1.00  0.00     0.001 A 
HETATM   27  C   UNL     1      26.894  40.296  50.132  1.00  0.00     0.073 A 
HETATM   28  C   UNL     1      28.179  39.758  50.119  1.00  0.00     0.037 A 
HETATM   29  C   UNL     1      28.939  39.824  48.953  1.00  0.00     0.003 A 
HETATM   30  C   UNL     1      28.412  40.420  47.808  1.00  0.00     0.001 A 
HETATM   31  C   UNL     1      27.124  40.957  47.827  1.00  0.00     0.011 A 
BRANCH  27  32
HETATM   32  O   UNL     1      26.133  40.228  51.265  1.00  0.00    -0.360 OA
HETATM   33  H   UNL     1      26.441  39.464  51.791  1.00  0.00     0.217 HD
ENDBRANCH  27  32
ENDBRANCH  25  26
ENDBRANCH   1  25
TORSDOF 8
ENDMDL
MODEL 10
REMARK VINA RESULT:      -7.9      1.844      3.175
REMARK  8 active torsions:
REMARK  status: ('A' for Active; 'I' for Inactive)
REMARK    1  A    between atoms: C_3  and  N_4 
REMARK       I    between atoms: N_4  and  C_5 
REMARK       I    between atoms: C_5  and  N_6 
REMARK       I    between atoms: N_6  and  C_7 
REMARK    2  A    between atoms: C_7  and  C_8 
REMARK    3  A    between atoms: C_8  and  N_9 
REMARK    4  A    between atoms: N_9  and  C_11 
REMARK    5  A    between atoms: N_9  and  C_17 
REMARK    6  A    between atoms: C_11  and  C_12 
REMARK    7  A    between atoms: C_17  and  C_18 
REMARK    8  A    between atoms: C_19  and  O_20 
ROOT
HETATM    1  N   UNL     1      20.954  47.210  48.589  1.00  0.00    -0.053 N 
HETATM    2  H   UNL     1      21.433  47.592  49.417  1.00  0.00     0.281 HD
ENDROOT
BRANCH   1   3
HETATM    3  C   UNL     1      21.719  45.924  48.285  1.00  0.00     0.338 C 
BRANCH   3   4
HETATM    4  C   UNL     1      22.930  45.716  49.194  1.00  0.00     0.251 C 
HETATM    5  N   UNL     1      23.816  46.773  49.216  1.00  0.00    -0.278 N 
HETATM    6  C   UNL     1      24.770  47.053  50.160  1.00  0.00     0.323 C 
HETATM    7  H   UNL     1      23.607  47.615  48.694  1.00  0.00     0.173 HD
HETATM    8  N   UNL     1      25.091  46.049  51.017  1.00  0.00    -0.338 N 
HETATM    9  O   UNL     1      25.230  48.189  50.195  1.00  0.00    -0.247 OA
HETATM   10  H   UNL     1      24.709  45.129  50.820  1.00  0.00     0.164 HD
HETATM   11  O   UNL     1      23.072  44.655  49.802  1.00  0.00    -0.271 OA
BRANCH   8  12
HETATM   12  C   UNL     1      26.108  46.139  52.064  1.00  0.00     0.089 C 
HETATM   13  C   UNL     1      26.649  44.762  52.522  1.00  0.00     0.004 C 
HETATM   14  C   UNL     1      27.239  43.964  51.354  1.00  0.00     0.012 C 
HETATM   15  C   UNL     1      27.714  44.937  53.618  1.00  0.00     0.006 C 
HETATM   16  C   UNL     1      27.197  45.768  54.790  1.00  0.00     0.001 C 
HETATM   17  C   UNL     1      26.681  47.126  54.328  1.00  0.00     0.002 C 
HETATM   18  C   UNL     1      25.611  46.977  53.251  1.00  0.00     0.026 C 
ENDBRANCH   8  12
ENDBRANCH   3   4
ENDBRANCH   1   3
BRANCH   1  19
HETATM   19  C   UNL     1      21.083  48.292  47.538  1.00  0.00     0.300 C 
BRANCH  19  20
HETATM   20  C   UNL     1      22.005  49.403  47.889  1.00  0.00     0.078 A 
HETATM   21  O   UNL     1      23.310  49.254  47.515  1.00  0.00    -0.325 OA
HETATM   22  C   UNL     1      23.977  50.357  47.942  1.00  0.00     0.142 A 
HETATM   23  C   UNL     1      23.117  51.217  48.582  1.00  0.00     0.027 A 
HETATM   24  C   UNL     1      21.842  50.601  48.552  1.00  0.00     0.036 A 
ENDBRANCH  19  20
ENDBRANCH   1  19
BRANCH   1  25
HETATM   25  C   UNL     1      19.528  46.937  48.997  1.00  0.00     0.277 C 
BRANCH  25  26
HETATM   26  C   UNL     1      18.665  48.165  48.933  1.00  0.00     0.001 A 
HETATM   27  C   UNL     1      18.772  49.172  49.899  1.00  0.00     0.073 A 
HETATM   28  C   UNL     1      17.970  50.310  49.851  1.00  0.00     0.037 A 
HETATM   29  C   UNL     1      17.047  50.455  48.818  1.00  0.00     0.003 A 
HETATM   30  C   UNL     1      16.931  49.469  47.840  1.00  0.00     0.001 A 
HETATM   31  C   UNL     1      17.738  48.331  47.893  1.00  0.00     0.011 A 
BRANCH  27  32
HETATM   32  O   UNL     1      19.692  49.022  50.900  1.00  0.00    -0.360 OA
HETATM   33  H   UNL     1      19.527  48.163  51.337  1.00  0.00     0.217 HD
ENDBRANCH  27  32
ENDBRANCH  25  26
ENDBRANCH   1  25
TORSDOF 8
ENDMDL
