MODEL 1
REMARK VINA RESULT:      -7.8      0.000      0.000
REMARK  2 active torsions:
REMARK  status: ('A' for Active; 'I' for Inactive)
REMARK    1  A    between atoms: C_2  and  C_3 
REMARK    2  A    between atoms: C_6  and  C_7 
ROOT
HETATM    1  C   UNL     1      20.913  48.940  47.778  1.00  0.00     0.119 C 
HETATM    2  S   UNL     1      20.047  50.426  48.355  1.00  0.00    -0.141 SA
HETATM    3  C   UNL     1      18.523  49.745  49.067  1.00  0.00     0.136 C 
HETATM    4  C   UNL     1      17.540  50.892  49.298  1.00  0.00     0.031 C 
HETATM    5  C   UNL     1      18.829  49.044  50.378  1.00  0.00     0.236 C 
HETATM    6  O   UNL     1      18.583  49.472  51.494  1.00  0.00    -0.272 OA
HETATM    7  N   UNL     1      19.357  47.716  50.358  1.00  0.00    -0.311 N 
HETATM    8  C   UNL     1      19.761  47.062  49.217  1.00  0.00     0.134 C 
HETATM    9  C   UNL     1      20.355  47.581  48.081  1.00  0.00     0.032 C 
HETATM   10  N   UNL     1      19.687  45.708  49.036  1.00  0.00    -0.262 N 
HETATM   11  H   UNL     1      19.353  45.002  49.682  1.00  0.00     0.191 HD
HETATM   12  N   UNL     1      20.012  45.320  47.801  1.00  0.00    -0.178 NA
HETATM   13  C   UNL     1      20.453  46.437  47.214  1.00  0.00     0.062 C 
HETATM   14  C   UNL     1      21.003  46.360  45.833  1.00  0.00     0.073 C 
HETATM   15  H   UNL     1      19.317  47.231  51.247  1.00  0.00     0.170 HD
ENDROOT
BRANCH   1  16
HETATM   16  C   UNL     1      22.352  48.884  48.279  1.00  0.00    -0.040 A 
HETATM   17  C   UNL     1      22.810  47.881  49.153  1.00  0.00     0.009 A 
HETATM   18  C   UNL     1      24.155  47.813  49.528  1.00  0.00     0.007 A 
HETATM   19  C   UNL     1      25.076  48.747  49.046  1.00  0.00    -0.059 A 
HETATM   20  C   UNL     1      24.627  49.766  48.200  1.00  0.00     0.007 A 
HETATM   21  C   UNL     1      23.281  49.837  47.827  1.00  0.00     0.009 A 
BRANCH  19  22
HETATM   22  C   UNL     1      26.538  48.629  49.394  1.00  0.00     0.034 C 
HETATM   23  C   UNL     1      27.341  49.781  48.807  1.00  0.00     0.010 C 
ENDBRANCH  19  22
ENDBRANCH   1  16
TORSDOF 2
ENDMDL
MODEL 2
REMARK VINA RESULT:      -7.8      6.839      8.799
REMARK  2 active torsions:
REMARK  status: ('A' for Active; 'I' for Inactive)
REMARK    1  A    between atoms: C_2  and  C_3 
REMARK    2  A    between atoms: C_6  and  C_7 
ROOT
HETATM    1  C   UNL     1      25.938  44.353  52.430  1.00  0.00     0.119 C 
HETATM    2  S   UNL     1      25.315  42.779  51.778  1.00  0.00    -0.141 SA
HETATM    3  C   UNL     1      24.946  43.183  50.048  1.00  0.00     0.136 C 
HETATM    4  C   UNL     1      24.107  42.053  49.454  1.00  0.00     0.031 C 
HETATM    5  C   UNL     1      26.237  43.347  49.265  1.00  0.00     0.236 C 
HETATM    6  O   UNL     1      26.699  42.544  48.471  1.00  0.00    -0.272 OA
HETATM    7  N   UNL     1      26.958  44.577  49.350  1.00  0.00    -0.311 N 
HETATM    8  C   UNL     1      26.650  45.596  50.222  1.00  0.00     0.134 C 
HETATM    9  C   UNL     1      26.145  45.517  51.506  1.00  0.00     0.032 C 
HETATM   10  N   UNL     1      26.860  46.922  49.964  1.00  0.00    -0.262 N 
HETATM   11  H   UNL     1      27.267  47.349  49.140  1.00  0.00     0.191 HD
HETATM   12  N   UNL     1      26.360  47.730  50.902  1.00  0.00    -0.178 NA
HETATM   13  C   UNL     1      25.951  46.897  51.864  1.00  0.00     0.062 C 
HETATM   14  C   UNL     1      25.418  47.464  53.133  1.00  0.00     0.073 C 
HETATM   15  H   UNL     1      27.667  44.703  48.636  1.00  0.00     0.170 HD
ENDROOT
BRANCH   1  16
HETATM   16  C   UNL     1      27.275  44.190  53.145  1.00  0.00    -0.040 A 
HETATM   17  C   UNL     1      27.557  44.814  54.374  1.00  0.00     0.009 A 
HETATM   18  C   UNL     1      28.762  44.577  55.041  1.00  0.00     0.007 A 
HETATM   19  C   UNL     1      29.719  43.717  54.496  1.00  0.00    -0.059 A 
HETATM   20  C   UNL     1      29.463  43.114  53.261  1.00  0.00     0.007 A 
HETATM   21  C   UNL     1      28.259  43.353  52.591  1.00  0.00     0.009 A 
BRANCH  19  22
HETATM   22  C   UNL     1      30.987  43.408  55.251  1.00  0.00     0.034 C 
HETATM   23  C   UNL     1      31.042  44.159  56.573  1.00  0.00     0.010 C 
ENDBRANCH  19  22
ENDBRANCH   1  16
TORSDOF 2
ENDMDL
MODEL 3
REMARK VINA RESULT:      -7.6      7.053      8.760
REMARK  2 active torsions:
REMARK  status: ('A' for Active; 'I' for Inactive)
REMARK    1  A    between atoms: C_2  and  C_3 
REMARK    2  A    between atoms: C_6  and  C_7 
ROOT
HETATM    1  C   UNL     1      27.703  43.406  50.569  1.00  0.00     0.119 C 
HETATM    2  S   UNL     1      26.853  44.981  50.270  1.00  0.00    -0.141 SA
HETATM    3  C   UNL     1      25.191  44.447  49.773  1.00  0.00     0.136 C 
HETATM    4  C   UNL     1      24.457  45.645  49.171  1.00  0.00     0.031 C 
HETATM    5  C   UNL     1      24.433  43.917  50.977  1.00  0.00     0.236 C 
HETATM    6  O   UNL     1      23.540  44.497  51.573  1.00  0.00    -0.272 OA
HETATM    7  N   UNL     1      24.675  42.584  51.428  1.00  0.00    -0.311 N 
HETATM    8  C   UNL     1      25.673  41.772  50.940  1.00  0.00     0.134 C 
HETATM    9  C   UNL     1      26.938  42.117  50.501  1.00  0.00     0.032 C 
HETATM   10  N   UNL     1      25.590  40.409  50.859  1.00  0.00    -0.262 N 
HETATM   11  H   UNL     1      24.827  39.805  51.143  1.00  0.00     0.191 HD
HETATM   12  N   UNL     1      26.626  39.851  50.230  1.00  0.00    -0.178 NA
HETATM   13  C   UNL     1      27.473  40.866  50.033  1.00  0.00     0.062 C 
HETATM   14  C   UNL     1      28.806  40.590  49.432  1.00  0.00     0.073 C 
HETATM   15  H   UNL     1      23.982  42.222  52.073  1.00  0.00     0.170 HD
ENDROOT
BRANCH   1  16
HETATM   16  C   UNL     1      28.387  43.373  51.931  1.00  0.00    -0.040 A 
HETATM   17  C   UNL     1      29.539  42.605  52.181  1.00  0.00     0.009 A 
HETATM   18  C   UNL     1      30.187  42.662  53.418  1.00  0.00     0.007 A 
HETATM   19  C   UNL     1      29.699  43.480  54.440  1.00  0.00    -0.059 A 
HETATM   20  C   UNL     1      28.538  44.226  54.213  1.00  0.00     0.007 A 
HETATM   21  C   UNL     1      27.887  44.167  52.978  1.00  0.00     0.009 A 
BRANCH  19  22
HETATM   22  C   UNL     1      30.439  43.594  55.748  1.00  0.00     0.034 C 
HETATM   23  C   UNL     1      30.398  45.017  56.286  1.00  0.00     0.010 C 
ENDBRANCH  19  22
ENDBRANCH   1  16
TORSDOF 2
ENDMDL
MODEL 4
REMARK VINA RESULT:      -7.5     11.669     12.744
REMARK  2 active torsions:
REMARK  status: ('A' for Active; 'I' for Inactive)
REMARK    1  A    between atoms: C_2  and  C_3 
REMARK    2  A    between atoms: C_6  and  C_7 
ROOT
HETATM    1  C   UNL     1      29.026  50.344  40.924  1.00  0.00     0.119 C 
HETATM    2  S   UNL     1      28.340  48.754  41.464  1.00  0.00    -0.141 SA
HETATM    3  C   UNL     1      28.398  47.760  39.947  1.00  0.00     0.136 C 
HETATM    4  C   UNL     1      27.552  46.505  40.156  1.00  0.00     0.031 C 
HETATM    5  C   UNL     1      29.833  47.380  39.628  1.00  0.00     0.236 C 
HETATM    6  O   UNL     1      30.335  46.279  39.790  1.00  0.00    -0.272 OA
HETATM    7  N   UNL     1      30.684  48.328  38.984  1.00  0.00    -0.311 N 
HETATM    8  C   UNL     1      30.346  49.643  38.758  1.00  0.00     0.134 C 
HETATM    9  C   UNL     1      29.579  50.489  39.537  1.00  0.00     0.032 C 
HETATM   10  N   UNL     1      30.786  50.381  37.694  1.00  0.00    -0.262 N 
HETATM   11  H   UNL     1      31.410  50.102  36.946  1.00  0.00     0.191 HD
HETATM   12  N   UNL     1      30.219  51.587  37.615  1.00  0.00    -0.178 NA
HETATM   13  C   UNL     1      29.507  51.687  38.742  1.00  0.00     0.062 C 
HETATM   14  C   UNL     1      28.806  52.965  39.045  1.00  0.00     0.073 C 
HETATM   15  H   UNL     1      31.536  47.939  38.596  1.00  0.00     0.170 HD
ENDROOT
BRANCH   1  16
HETATM   16  C   UNL     1      30.149  50.825  41.836  1.00  0.00    -0.040 A 
HETATM   17  C   UNL     1      30.271  52.166  42.244  1.00  0.00     0.009 A 
HETATM   18  C   UNL     1      31.265  52.555  43.146  1.00  0.00     0.007 A 
HETATM   19  C   UNL     1      32.167  51.619  43.658  1.00  0.00    -0.059 A 
HETATM   20  C   UNL     1      32.074  50.289  43.236  1.00  0.00     0.007 A 
HETATM   21  C   UNL     1      31.083  49.899  42.332  1.00  0.00     0.009 A 
BRANCH  19  22
HETATM   22  C   UNL     1      33.193  52.028  44.684  1.00  0.00     0.034 C 
HETATM   23  C   UNL     1      34.588  52.091  44.078  1.00  0.00     0.010 C 
ENDBRANCH  19  22
ENDBRANCH   1  16
TORSDOF 2
ENDMDL
MODEL 5
REMARK VINA RESULT:      -7.4      2.436      5.806
REMARK  2 active torsions:
REMARK  status: ('A' for Active; 'I' for Inactive)
REMARK    1  A    between atoms: C_2  and  C_3 
REMARK    2  A    between atoms: C_6  and  C_7 
ROOT
HETATM    1  C   UNL     1      20.059  49.197  46.974  1.00  0.00     0.119 C 
HETATM    2  S   UNL     1      19.005  48.055  46.039  1.00  0.00    -0.141 SA
HETATM    3  C   UNL     1      19.715  46.436  46.446  1.00  0.00     0.136 C 
HETATM    4  C   UNL     1      19.146  45.399  45.478  1.00  0.00     0.031 C 
HETATM    5  C   UNL     1      19.373  46.062  47.877  1.00  0.00     0.236 C 
HETATM    6  O   UNL     1      18.538  45.241  48.223  1.00  0.00    -0.272 OA
HETATM    7  N   UNL     1      20.137  46.615  48.949  1.00  0.00    -0.311 N 
HETATM    8  C   UNL     1      21.087  47.599  48.795  1.00  0.00     0.134 C 
HETATM    9  C   UNL     1      21.103  48.660  47.909  1.00  0.00     0.032 C 
HETATM   10  N   UNL     1      22.202  47.725  49.577  1.00  0.00    -0.262 N 
HETATM   11  H   UNL     1      22.490  47.155  50.364  1.00  0.00     0.191 HD
HETATM   12  N   UNL     1      23.041  48.673  49.154  1.00  0.00    -0.178 NA
HETATM   13  C   UNL     1      22.378  49.276  48.162  1.00  0.00     0.062 C 
HETATM   14  C   UNL     1      22.983  50.469  47.508  1.00  0.00     0.073 C 
HETATM   15  H   UNL     1      20.012  46.151  49.842  1.00  0.00     0.170 HD
ENDROOT
BRANCH   1  16
HETATM   16  C   UNL     1      19.244  50.164  47.827  1.00  0.00    -0.040 A 
HETATM   17  C   UNL     1      19.643  51.493  48.055  1.00  0.00     0.009 A 
HETATM   18  C   UNL     1      18.830  52.375  48.774  1.00  0.00     0.007 A 
HETATM   19  C   UNL     1      17.603  51.951  49.290  1.00  0.00    -0.059 A 
HETATM   20  C   UNL     1      17.209  50.623  49.094  1.00  0.00     0.007 A 
HETATM   21  C   UNL     1      18.022  49.740  48.378  1.00  0.00     0.009 A 
BRANCH  19  22
HETATM   22  C   UNL     1      16.697  52.921  50.003  1.00  0.00     0.034 C 
HETATM   23  C   UNL     1      15.240  52.491  49.908  1.00  0.00     0.010 C 
ENDBRANCH  19  22
ENDBRANCH   1  16
TORSDOF 2
ENDMDL
MODEL 6
REMARK VINA RESULT:      -7.3     11.423     13.050
REMARK  2 active torsions:
REMARK  status: ('A' for Active; 'I' for Inactive)
REMARK    1  A    between atoms: C_2  and  C_3 
REMARK    2  A    between atoms: C_6  and  C_7 
ROOT
HETATM    1  C   UNL     1      29.908  50.286  41.575  1.00  0.00     0.119 C 
HETATM    2  S   UNL     1      29.288  48.657  42.077  1.00  0.00    -0.141 SA
HETATM    3  C   UNL     1      28.543  48.026  40.548  1.00  0.00     0.136 C 
HETATM    4  C   UNL     1      27.690  46.806  40.891  1.00  0.00     0.031 C 
HETATM    5  C   UNL     1      29.630  47.646  39.558  1.00  0.00     0.236 C 
HETATM    6  O   UNL     1      29.981  46.510  39.281  1.00  0.00    -0.272 OA
HETATM    7  N   UNL     1      30.256  48.665  38.777  1.00  0.00    -0.311 N 
HETATM    8  C   UNL     1      30.056  50.014  38.961  1.00  0.00     0.134 C 
HETATM    9  C   UNL     1      29.831  50.706  40.137  1.00  0.00     0.032 C 
HETATM   10  N   UNL     1      30.105  50.946  37.961  1.00  0.00    -0.262 N 
HETATM   11  H   UNL     1      30.300  50.806  36.977  1.00  0.00     0.191 HD
HETATM   12  N   UNL     1      29.746  52.168  38.358  1.00  0.00    -0.178 NA
HETATM   13  C   UNL     1      29.608  52.054  39.683  1.00  0.00     0.062 C 
HETATM   14  C   UNL     1      29.304  53.269  40.487  1.00  0.00     0.073 C 
HETATM   15  H   UNL     1      30.792  48.324  37.987  1.00  0.00     0.170 HD
ENDROOT
BRANCH   1  16
HETATM   16  C   UNL     1      31.371  50.486  41.955  1.00  0.00    -0.040 A 
HETATM   17  C   UNL     1      32.417  49.778  41.336  1.00  0.00     0.009 A 
HETATM   18  C   UNL     1      33.752  50.046  41.651  1.00  0.00     0.007 A 
HETATM   19  C   UNL     1      34.078  51.022  42.597  1.00  0.00    -0.059 A 
HETATM   20  C   UNL     1      33.045  51.712  43.240  1.00  0.00     0.007 A 
HETATM   21  C   UNL     1      31.709  51.442  42.928  1.00  0.00     0.009 A 
BRANCH  19  22
HETATM   22  C   UNL     1      35.518  51.358  42.884  1.00  0.00     0.034 C 
HETATM   23  C   UNL     1      35.635  52.410  43.978  1.00  0.00     0.010 C 
ENDBRANCH  19  22
ENDBRANCH   1  16
TORSDOF 2
ENDMDL
MODEL 7
REMARK VINA RESULT:      -7.3     10.990     13.356
REMARK  2 active torsions:
REMARK  status: ('A' for Active; 'I' for Inactive)
REMARK    1  A    between atoms: C_2  and  C_3 
REMARK    2  A    between atoms: C_6  and  C_7 
ROOT
HETATM    1  C   UNL     1      31.827  50.055  40.140  1.00  0.00     0.119 C 
HETATM    2  S   UNL     1      33.238  49.806  41.253  1.00  0.00    -0.141 SA
HETATM    3  C   UNL     1      33.302  51.371  42.170  1.00  0.00     0.136 C 
HETATM    4  C   UNL     1      34.636  51.444  42.911  1.00  0.00     0.031 C 
HETATM    5  C   UNL     1      32.149  51.445  43.154  1.00  0.00     0.236 C 
HETATM    6  O   UNL     1      32.227  51.295  44.362  1.00  0.00    -0.272 OA
HETATM    7  N   UNL     1      30.852  51.824  42.689  1.00  0.00    -0.311 N 
HETATM    8  C   UNL     1      30.523  51.986  41.363  1.00  0.00     0.134 C 
HETATM    9  C   UNL     1      30.987  51.291  40.261  1.00  0.00     0.032 C 
HETATM   10  N   UNL     1      29.590  52.874  40.902  1.00  0.00    -0.262 N 
HETATM   11  H   UNL     1      29.008  53.512  41.432  1.00  0.00     0.191 HD
HETATM   12  N   UNL     1      29.539  52.945  39.570  1.00  0.00    -0.178 NA
HETATM   13  C   UNL     1      30.355  51.969  39.160  1.00  0.00     0.062 C 
HETATM   14  C   UNL     1      30.471  51.687  37.703  1.00  0.00     0.073 C 
HETATM   15  H   UNL     1      30.197  52.078  43.420  1.00  0.00     0.170 HD
ENDROOT
BRANCH   1  16
HETATM   16  C   UNL     1      30.828  48.905  40.213  1.00  0.00    -0.040 A 
HETATM   17  C   UNL     1      29.869  48.799  41.237  1.00  0.00     0.009 A 
HETATM   18  C   UNL     1      28.917  47.776  41.227  1.00  0.00     0.007 A 
HETATM   19  C   UNL     1      28.901  46.829  40.199  1.00  0.00    -0.059 A 
HETATM   20  C   UNL     1      29.868  46.907  39.192  1.00  0.00     0.007 A 
HETATM   21  C   UNL     1      30.823  47.927  39.203  1.00  0.00     0.009 A 
BRANCH  19  22
HETATM   22  C   UNL     1      27.830  45.769  40.153  1.00  0.00     0.034 C 
HETATM   23  C   UNL     1      26.784  45.991  41.236  1.00  0.00     0.010 C 
ENDBRANCH  19  22
ENDBRANCH   1  16
TORSDOF 2
ENDMDL
MODEL 8
REMARK VINA RESULT:      -7.2     23.159     24.745
REMARK  2 active torsions:
REMARK  status: ('A' for Active; 'I' for Inactive)
REMARK    1  A    between atoms: C_2  and  C_3 
REMARK    2  A    between atoms: C_6  and  C_7 
ROOT
HETATM    1  C   UNL     1      38.911  46.121  66.522  1.00  0.00     0.119 C 
HETATM    2  S   UNL     1      40.630  45.715  66.933  1.00  0.00    -0.141 SA
HETATM    3  C   UNL     1      41.092  44.558  65.614  1.00  0.00     0.136 C 
HETATM    4  C   UNL     1      42.400  43.873  66.005  1.00  0.00     0.031 C 
HETATM    5  C   UNL     1      41.261  45.305  64.303  1.00  0.00     0.236 C 
HETATM    6  O   UNL     1      42.323  45.580  63.767  1.00  0.00    -0.272 OA
HETATM    7  N   UNL     1      40.106  45.646  63.535  1.00  0.00    -0.311 N 
HETATM    8  C   UNL     1      38.811  45.482  63.971  1.00  0.00     0.134 C 
HETATM    9  C   UNL     1      38.303  45.607  65.251  1.00  0.00     0.032 C 
HETATM   10  N   UNL     1      37.750  45.209  63.153  1.00  0.00    -0.262 N 
HETATM   11  H   UNL     1      37.740  45.103  62.145  1.00  0.00     0.191 HD
HETATM   12  N   UNL     1      36.619  44.961  63.817  1.00  0.00    -0.178 NA
HETATM   13  C   UNL     1      36.923  45.229  65.090  1.00  0.00     0.062 C 
HETATM   14  C   UNL     1      35.852  45.155  66.121  1.00  0.00     0.073 C 
HETATM   15  H   UNL     1      40.299  45.927  62.580  1.00  0.00     0.170 HD
ENDROOT
BRANCH   1  16
HETATM   16  C   UNL     1      38.670  47.626  66.480  1.00  0.00    -0.040 A 
HETATM   17  C   UNL     1      39.459  48.497  65.707  1.00  0.00     0.009 A 
HETATM   18  C   UNL     1      39.158  49.860  65.628  1.00  0.00     0.007 A 
HETATM   19  C   UNL     1      38.069  50.390  66.324  1.00  0.00    -0.059 A 
HETATM   20  C   UNL     1      37.295  49.538  67.120  1.00  0.00     0.007 A 
HETATM   21  C   UNL     1      37.596  48.176  67.202  1.00  0.00     0.009 A 
BRANCH  19  22
HETATM   22  C   UNL     1      37.705  51.845  66.182  1.00  0.00     0.034 C 
HETATM   23  C   UNL     1      37.598  52.525  67.539  1.00  0.00     0.010 C 
ENDBRANCH  19  22
ENDBRANCH   1  16
TORSDOF 2
ENDMDL
MODEL 9
REMARK VINA RESULT:      -7.2      4.486      6.589
REMARK  2 active torsions:
REMARK  status: ('A' for Active; 'I' for Inactive)
REMARK    1  A    between atoms: C_2  and  C_3 
REMARK    2  A    between atoms: C_6  and  C_7 
ROOT
HETATM    1  C   UNL     1      16.230  50.397  48.463  1.00  0.00     0.119 C 
HETATM    2  S   UNL     1      15.888  48.846  47.588  1.00  0.00    -0.141 SA
HETATM    3  C   UNL     1      14.642  49.344  46.367  1.00  0.00     0.136 C 
HETATM    4  C   UNL     1      14.013  48.085  45.773  1.00  0.00     0.031 C 
HETATM    5  C   UNL     1      15.288  50.175  45.273  1.00  0.00     0.236 C 
HETATM    6  O   UNL     1      15.540  49.796  44.140  1.00  0.00    -0.272 OA
HETATM    7  N   UNL     1      15.548  51.560  45.504  1.00  0.00    -0.311 N 
HETATM    8  C   UNL     1      15.394  52.184  46.720  1.00  0.00     0.134 C 
HETATM    9  C   UNL     1      15.608  51.678  47.989  1.00  0.00     0.032 C 
HETATM   10  N   UNL     1      15.039  53.495  46.877  1.00  0.00    -0.262 N 
HETATM   11  H   UNL     1      14.855  54.189  46.162  1.00  0.00     0.191 HD
HETATM   12  N   UNL     1      14.823  53.838  48.149  1.00  0.00    -0.178 NA
HETATM   13  C   UNL     1      15.194  52.759  48.844  1.00  0.00     0.062 C 
HETATM   14  C   UNL     1      15.181  52.817  50.332  1.00  0.00     0.073 C 
HETATM   15  H   UNL     1      15.757  52.097  44.669  1.00  0.00     0.170 HD
ENDROOT
BRANCH   1  16
HETATM   16  C   UNL     1      17.723  50.700  48.534  1.00  0.00    -0.040 A 
HETATM   17  C   UNL     1      18.339  51.201  49.696  1.00  0.00     0.009 A 
HETATM   18  C   UNL     1      19.723  51.390  49.751  1.00  0.00     0.007 A 
HETATM   19  C   UNL     1      20.526  51.091  48.648  1.00  0.00    -0.059 A 
HETATM   20  C   UNL     1      19.921  50.621  47.478  1.00  0.00     0.007 A 
HETATM   21  C   UNL     1      18.537  50.435  47.420  1.00  0.00     0.009 A 
BRANCH  19  22
HETATM   22  C   UNL     1      22.024  51.229  48.733  1.00  0.00     0.034 C 
HETATM   23  C   UNL     1      22.721  50.354  47.701  1.00  0.00     0.010 C 
ENDBRANCH  19  22
ENDBRANCH   1  16
TORSDOF 2
ENDMDL
MODEL 10
REMARK VINA RESULT:      -6.9      9.423     11.134
REMARK  2 active torsions:
REMARK  status: ('A' for Active; 'I' for Inactive)
REMARK    1  A    between atoms: C_2  and  C_3 
REMARK    2  A    between atoms: C_6  and  C_7 
ROOT
HETATM    1  C   UNL     1      28.615  39.989  49.401  1.00  0.00     0.119 C 
HETATM    2  S   UNL     1      28.343  40.988  47.912  1.00  0.00    -0.141 SA
HETATM    3  C   UNL     1      27.358  39.881  46.865  1.00  0.00     0.136 C 
HETATM    4  C   UNL     1      27.328  40.452  45.448  1.00  0.00     0.031 C 
HETATM    5  C   UNL     1      25.947  39.763  47.413  1.00  0.00     0.236 C 
HETATM    6  O   UNL     1      24.951  40.294  46.949  1.00  0.00    -0.272 OA
HETATM    7  N   UNL     1      25.691  38.880  48.507  1.00  0.00    -0.311 N 
HETATM    8  C   UNL     1      26.670  38.225  49.218  1.00  0.00     0.134 C 
HETATM    9  C   UNL     1      27.944  38.654  49.541  1.00  0.00     0.032 C 
HETATM   10  N   UNL     1      26.511  36.998  49.801  1.00  0.00    -0.262 N 
HETATM   11  H   UNL     1      25.687  36.408  49.817  1.00  0.00     0.191 HD
HETATM   12  N   UNL     1      27.638  36.508  50.321  1.00  0.00    -0.178 NA
HETATM   13  C   UNL     1      28.514  37.511  50.204  1.00  0.00     0.062 C 
HETATM   14  C   UNL     1      29.878  37.352  50.780  1.00  0.00     0.073 C 
HETATM   15  H   UNL     1      24.711  38.676  48.666  1.00  0.00     0.170 HD
ENDROOT
BRANCH   1  16
HETATM   16  C   UNL     1      28.241  40.740  50.674  1.00  0.00    -0.040 A 
HETATM   17  C   UNL     1      28.871  40.500  51.908  1.00  0.00     0.009 A 
HETATM   18  C   UNL     1      28.559  41.264  53.036  1.00  0.00     0.007 A 
HETATM   19  C   UNL     1      27.606  42.283  52.963  1.00  0.00    -0.059 A 
HETATM   20  C   UNL     1      26.952  42.512  51.749  1.00  0.00     0.007 A 
HETATM   21  C   UNL     1      27.260  41.747  50.621  1.00  0.00     0.009 A 
BRANCH  19  22
HETATM   22  C   UNL     1      27.323  43.153  54.162  1.00  0.00     0.034 C 
HETATM   23  C   UNL     1      28.481  44.099  54.445  1.00  0.00     0.010 C 
ENDBRANCH  19  22
ENDBRANCH   1  16
TORSDOF 2
ENDMDL
