MODEL 1
REMARK VINA RESULT:      -9.6      0.000      0.000
REMARK  3 active torsions:
REMARK  status: ('A' for Active; 'I' for Inactive)
REMARK    1  A    between atoms: C_7  and  C_8 
REMARK    2  A    between atoms: N_11  and  C_13 
REMARK    3  A    between atoms: C_13  and  C_14 
ROOT
HETATM    1  C   UNL     1      27.063  47.908  49.228  1.00  0.00     0.080 A 
HETATM    2  O   UNL     1      25.816  48.176  48.740  1.00  0.00    -0.302 OA
HETATM    3  C   UNL     1      25.799  49.500  48.413  1.00  0.00     0.155 A 
HETATM    4  C   UNL     1      24.598  50.026  47.870  1.00  0.00     0.125 C 
HETATM    5  N   UNL     1      23.615  50.438  47.413  1.00  0.00    -0.189 NA
HETATM    6  C   UNL     1      27.019  50.080  48.676  1.00  0.00     0.051 A 
HETATM    7  C   UNL     1      27.838  49.051  49.205  1.00  0.00     0.038 A 
ENDROOT
BRANCH   1   8
HETATM    8  C   UNL     1      27.324  46.511  49.651  1.00  0.00     0.299 C 
BRANCH   8   9
HETATM    9  N   UNL     1      26.409  46.004  50.757  1.00  0.00    -0.065 N 
HETATM   10  C   UNL     1      26.958  44.764  51.425  1.00  0.00     0.236 C 
HETATM   11  C   UNL     1      26.050  44.341  52.570  1.00  0.00     0.037 C 
HETATM   12  C   UNL     1      25.942  45.454  53.632  1.00  0.00     0.024 C 
HETATM   13  C   UNL     1      25.321  46.661  52.928  1.00  0.00     0.037 C 
HETATM   14  C   UNL     1      26.119  47.129  51.718  1.00  0.00     0.236 C 
HETATM   15  H   UNL     1      25.534  45.732  50.289  1.00  0.00     0.280 HD
BRANCH  12  16
HETATM   16  C   UNL     1      27.274  45.671  54.337  1.00  0.00    -0.026 A 
HETATM   17  C   UNL     1      28.371  44.773  54.627  1.00  0.00    -0.001 A 
HETATM   18  C   UNL     1      29.281  45.476  55.428  1.00  0.00     0.045 A 
HETATM   19  C   UNL     1      28.693  43.428  54.319  1.00  0.00     0.017 A 
HETATM   20  C   UNL     1      30.427  44.895  55.986  1.00  0.00     0.072 A 
HETATM   21  N   UNL     1      28.844  46.773  55.510  1.00  0.00    -0.365 N 
HETATM   22  C   UNL     1      30.672  43.557  55.700  1.00  0.00     0.118 A 
HETATM   23  C   UNL     1      29.835  42.830  54.870  1.00  0.00     0.043 A 
HETATM   24  F   UNL     1      31.747  42.962  56.230  1.00  0.00    -0.206 F 
HETATM   25  C   UNL     1      27.655  46.902  54.854  1.00  0.00     0.096 A 
HETATM   26  H   UNL     1      29.341  47.519  55.980  1.00  0.00     0.165 HD
ENDBRANCH  12  16
ENDBRANCH   8   9
ENDBRANCH   1   8
TORSDOF 3
ENDMDL
MODEL 2
REMARK VINA RESULT:      -9.3      1.863      2.810
REMARK  3 active torsions:
REMARK  status: ('A' for Active; 'I' for Inactive)
REMARK    1  A    between atoms: C_7  and  C_8 
REMARK    2  A    between atoms: N_11  and  C_13 
REMARK    3  A    between atoms: C_13  and  C_14 
ROOT
HETATM    1  C   UNL     1      26.297  48.052  50.129  1.00  0.00     0.080 A 
HETATM    2  O   UNL     1      25.112  48.485  49.607  1.00  0.00    -0.302 OA
HETATM    3  C   UNL     1      25.421  49.387  48.631  1.00  0.00     0.155 A 
HETATM    4  C   UNL     1      24.344  49.983  47.925  1.00  0.00     0.125 C 
HETATM    5  N   UNL     1      23.455  50.449  47.345  1.00  0.00    -0.189 NA
HETATM    6  C   UNL     1      26.785  49.531  48.517  1.00  0.00     0.051 A 
HETATM    7  C   UNL     1      27.353  48.667  49.488  1.00  0.00     0.038 A 
ENDROOT
BRANCH   1   8
HETATM    8  C   UNL     1      26.215  47.048  51.218  1.00  0.00     0.299 C 
BRANCH   8   9
HETATM    9  N   UNL     1      25.818  45.650  50.760  1.00  0.00    -0.065 N 
HETATM   10  C   UNL     1      26.935  44.958  50.014  1.00  0.00     0.236 C 
HETATM   11  C   UNL     1      26.518  43.541  49.646  1.00  0.00     0.037 C 
HETATM   12  C   UNL     1      26.192  42.714  50.906  1.00  0.00     0.024 C 
HETATM   13  C   UNL     1      25.016  43.414  51.588  1.00  0.00     0.037 C 
HETATM   14  C   UNL     1      25.303  44.867  51.941  1.00  0.00     0.236 C 
HETATM   15  H   UNL     1      25.048  45.788  50.091  1.00  0.00     0.280 HD
BRANCH  12  16
HETATM   16  C   UNL     1      27.441  42.477  51.746  1.00  0.00    -0.026 A 
HETATM   17  C   UNL     1      27.965  43.156  52.909  1.00  0.00    -0.001 A 
HETATM   18  C   UNL     1      29.224  42.603  53.180  1.00  0.00     0.045 A 
HETATM   19  C   UNL     1      27.527  44.199  53.763  1.00  0.00     0.017 A 
HETATM   20  C   UNL     1      30.077  43.079  54.184  1.00  0.00     0.072 A 
HETATM   21  N   UNL     1      29.405  41.549  52.322  1.00  0.00    -0.365 N 
HETATM   22  C   UNL     1      29.625  44.140  54.960  1.00  0.00     0.118 A 
HETATM   23  C   UNL     1      28.368  44.689  54.772  1.00  0.00     0.043 A 
HETATM   24  F   UNL     1      30.419  44.634  55.917  1.00  0.00    -0.206 F 
HETATM   25  C   UNL     1      28.343  41.458  51.471  1.00  0.00     0.096 A 
HETATM   26  H   UNL     1      30.206  40.929  52.333  1.00  0.00     0.165 HD
ENDBRANCH  12  16
ENDBRANCH   8   9
ENDBRANCH   1   8
TORSDOF 3
ENDMDL
MODEL 3
REMARK VINA RESULT:      -9.1      1.628      2.035
REMARK  3 active torsions:
REMARK  status: ('A' for Active; 'I' for Inactive)
REMARK    1  A    between atoms: C_7  and  C_8 
REMARK    2  A    between atoms: N_11  and  C_13 
REMARK    3  A    between atoms: C_13  and  C_14 
ROOT
HETATM    1  C   UNL     1      24.735  47.126  49.736  1.00  0.00     0.080 A 
HETATM    2  O   UNL     1      24.593  48.484  49.732  1.00  0.00    -0.302 OA
HETATM    3  C   UNL     1      23.368  48.748  49.192  1.00  0.00     0.155 A 
HETATM    4  C   UNL     1      22.979  50.108  49.085  1.00  0.00     0.125 C 
HETATM    5  N   UNL     1      22.667  51.223  49.018  1.00  0.00    -0.189 NA
HETATM    6  C   UNL     1      22.724  47.579  48.858  1.00  0.00     0.051 A 
HETATM    7  C   UNL     1      23.608  46.528  49.209  1.00  0.00     0.038 A 
ENDROOT
BRANCH   1   8
HETATM    8  C   UNL     1      26.003  46.593  50.290  1.00  0.00     0.299 C 
BRANCH   8   9
HETATM    9  N   UNL     1      25.848  45.323  51.116  1.00  0.00    -0.065 N 
HETATM   10  C   UNL     1      27.160  44.592  51.288  1.00  0.00     0.236 C 
HETATM   11  C   UNL     1      26.968  43.376  52.181  1.00  0.00     0.037 C 
HETATM   12  C   UNL     1      26.457  43.787  53.576  1.00  0.00     0.024 C 
HETATM   13  C   UNL     1      25.101  44.459  53.357  1.00  0.00     0.037 C 
HETATM   14  C   UNL     1      25.167  45.656  52.419  1.00  0.00     0.236 C 
HETATM   15  H   UNL     1      25.232  44.709  50.565  1.00  0.00     0.280 HD
BRANCH  12  16
HETATM   16  C   UNL     1      27.512  44.583  54.335  1.00  0.00    -0.026 A 
HETATM   17  C   UNL     1      28.807  44.213  54.859  1.00  0.00    -0.001 A 
HETATM   18  C   UNL     1      29.284  45.307  55.594  1.00  0.00     0.045 A 
HETATM   19  C   UNL     1      29.633  43.062  54.816  1.00  0.00     0.017 A 
HETATM   20  C   UNL     1      30.475  45.282  56.331  1.00  0.00     0.072 A 
HETATM   21  N   UNL     1      28.402  46.341  55.416  1.00  0.00    -0.365 N 
HETATM   22  C   UNL     1      31.223  44.111  56.302  1.00  0.00     0.118 A 
HETATM   23  C   UNL     1      30.827  43.019  55.549  1.00  0.00     0.043 A 
HETATM   24  F   UNL     1      32.358  44.042  57.009  1.00  0.00    -0.206 F 
HETATM   25  C   UNL     1      27.348  45.924  54.657  1.00  0.00     0.096 A 
HETATM   26  H   UNL     1      28.527  47.275  55.787  1.00  0.00     0.165 HD
ENDBRANCH  12  16
ENDBRANCH   8   9
ENDBRANCH   1   8
TORSDOF 3
ENDMDL
MODEL 4
REMARK VINA RESULT:      -8.6     11.728     13.153
REMARK  3 active torsions:
REMARK  status: ('A' for Active; 'I' for Inactive)
REMARK    1  A    between atoms: C_7  and  C_8 
REMARK    2  A    between atoms: N_11  and  C_13 
REMARK    3  A    between atoms: C_13  and  C_14 
ROOT
HETATM    1  C   UNL     1      29.663  52.575  39.789  1.00  0.00     0.080 A 
HETATM    2  O   UNL     1      30.859  52.113  39.318  1.00  0.00    -0.302 OA
HETATM    3  C   UNL     1      31.823  52.933  39.826  1.00  0.00     0.155 A 
HETATM    4  C   UNL     1      33.171  52.652  39.482  1.00  0.00     0.125 C 
HETATM    5  N   UNL     1      34.268  52.399  39.206  1.00  0.00    -0.189 NA
HETATM    6  C   UNL     1      31.263  53.907  40.620  1.00  0.00     0.051 A 
HETATM    7  C   UNL     1      29.864  53.677  40.596  1.00  0.00     0.038 A 
ENDROOT
BRANCH   1   8
HETATM    8  C   UNL     1      28.452  51.830  39.369  1.00  0.00     0.299 C 
BRANCH   8   9
HETATM    9  N   UNL     1      28.353  50.417  39.931  1.00  0.00    -0.065 N 
HETATM   10  C   UNL     1      29.232  49.444  39.180  1.00  0.00     0.236 C 
HETATM   11  C   UNL     1      29.157  48.067  39.824  1.00  0.00     0.037 C 
HETATM   12  C   UNL     1      29.631  48.116  41.291  1.00  0.00     0.024 C 
HETATM   13  C   UNL     1      28.673  49.057  42.022  1.00  0.00     0.037 C 
HETATM   14  C   UNL     1      28.619  50.452  41.414  1.00  0.00     0.236 C 
HETATM   15  H   UNL     1      27.378  50.126  39.774  1.00  0.00     0.280 HD
BRANCH  12  16
HETATM   16  C   UNL     1      31.118  48.434  41.377  1.00  0.00    -0.026 A 
HETATM   17  C   UNL     1      31.846  49.460  42.090  1.00  0.00    -0.001 A 
HETATM   18  C   UNL     1      33.186  49.370  41.691  1.00  0.00     0.045 A 
HETATM   19  C   UNL     1      31.521  50.478  43.020  1.00  0.00     0.017 A 
HETATM   20  C   UNL     1      34.176  50.271  42.104  1.00  0.00     0.072 A 
HETATM   21  N   UNL     1      33.306  48.265  40.889  1.00  0.00    -0.365 N 
HETATM   22  C   UNL     1      33.798  51.286  42.974  1.00  0.00     0.118 A 
HETATM   23  C   UNL     1      32.499  51.389  43.443  1.00  0.00     0.043 A 
HETATM   24  F   UNL     1      34.712  52.177  43.376  1.00  0.00    -0.206 F 
HETATM   25  C   UNL     1      32.081  47.692  40.706  1.00  0.00     0.096 A 
HETATM   26  H   UNL     1      34.179  47.924  40.504  1.00  0.00     0.165 HD
ENDBRANCH  12  16
ENDBRANCH   8   9
ENDBRANCH   1   8
TORSDOF 3
ENDMDL
MODEL 5
REMARK VINA RESULT:      -8.5     12.577     14.036
REMARK  3 active torsions:
REMARK  status: ('A' for Active; 'I' for Inactive)
REMARK    1  A    between atoms: C_7  and  C_8 
REMARK    2  A    between atoms: N_11  and  C_13 
REMARK    3  A    between atoms: C_13  and  C_14 
ROOT
HETATM    1  C   UNL     1      28.722  48.465  39.599  1.00  0.00     0.080 A 
HETATM    2  O   UNL     1      29.760  48.522  40.484  1.00  0.00    -0.302 OA
HETATM    3  C   UNL     1      30.791  47.826  39.925  1.00  0.00     0.155 A 
HETATM    4  C   UNL     1      32.002  47.744  40.659  1.00  0.00     0.125 C 
HETATM    5  N   UNL     1      32.991  47.700  41.264  1.00  0.00    -0.189 NA
HETATM    6  C   UNL     1      30.430  47.332  38.692  1.00  0.00     0.051 A 
HETATM    7  C   UNL     1      29.090  47.745  38.480  1.00  0.00     0.038 A 
ENDROOT
BRANCH   1   8
HETATM    8  C   UNL     1      27.475  49.164  39.992  1.00  0.00     0.299 C 
BRANCH   8   9
HETATM    9  N   UNL     1      27.565  50.684  39.959  1.00  0.00    -0.065 N 
HETATM   10  C   UNL     1      27.759  51.272  41.338  1.00  0.00     0.236 C 
HETATM   11  C   UNL     1      27.920  52.782  41.245  1.00  0.00     0.037 C 
HETATM   12  C   UNL     1      29.142  53.157  40.384  1.00  0.00     0.024 C 
HETATM   13  C   UNL     1      28.870  52.602  38.985  1.00  0.00     0.037 C 
HETATM   14  C   UNL     1      28.626  51.099  38.972  1.00  0.00     0.236 C 
HETATM   15  H   UNL     1      26.649  51.008  39.620  1.00  0.00     0.280 HD
BRANCH  12  16
HETATM   16  C   UNL     1      30.440  52.734  41.060  1.00  0.00    -0.026 A 
HETATM   17  C   UNL     1      31.704  52.278  40.523  1.00  0.00    -0.001 A 
HETATM   18  C   UNL     1      32.498  51.887  41.609  1.00  0.00     0.045 A 
HETATM   19  C   UNL     1      32.267  52.129  39.231  1.00  0.00     0.017 A 
HETATM   20  C   UNL     1      33.761  51.299  41.470  1.00  0.00     0.072 A 
HETATM   21  N   UNL     1      31.821  52.215  42.756  1.00  0.00    -0.365 N 
HETATM   22  C   UNL     1      34.248  51.124  40.180  1.00  0.00     0.118 A 
HETATM   23  C   UNL     1      33.529  51.541  39.073  1.00  0.00     0.043 A 
HETATM   24  F   UNL     1      35.444  50.549  40.005  1.00  0.00    -0.206 F 
HETATM   25  C   UNL     1      30.599  52.731  42.439  1.00  0.00     0.096 A 
HETATM   26  H   UNL     1      32.186  52.099  43.693  1.00  0.00     0.165 HD
ENDBRANCH  12  16
ENDBRANCH   8   9
ENDBRANCH   1   8
TORSDOF 3
ENDMDL
MODEL 6
REMARK VINA RESULT:      -8.3     11.968     13.669
REMARK  3 active torsions:
REMARK  status: ('A' for Active; 'I' for Inactive)
REMARK    1  A    between atoms: C_7  and  C_8 
REMARK    2  A    between atoms: N_11  and  C_13 
REMARK    3  A    between atoms: C_13  and  C_14 
ROOT
HETATM    1  C   UNL     1      28.059  48.517  39.207  1.00  0.00     0.080 A 
HETATM    2  O   UNL     1      29.180  48.725  39.958  1.00  0.00    -0.302 OA
HETATM    3  C   UNL     1      30.111  47.824  39.531  1.00  0.00     0.155 A 
HETATM    4  C   UNL     1      31.382  47.846  40.162  1.00  0.00     0.125 C 
HETATM    5  N   UNL     1      32.421  47.886  40.675  1.00  0.00    -0.189 NA
HETATM    6  C   UNL     1      29.604  47.049  38.513  1.00  0.00     0.051 A 
HETATM    7  C   UNL     1      28.275  47.496  38.303  1.00  0.00     0.038 A 
ENDROOT
BRANCH   1   8
HETATM    8  C   UNL     1      26.898  49.394  39.490  1.00  0.00     0.299 C 
BRANCH   8   9
HETATM    9  N   UNL     1      27.235  50.876  39.592  1.00  0.00    -0.065 N 
HETATM   10  C   UNL     1      27.762  51.247  40.959  1.00  0.00     0.236 C 
HETATM   11  C   UNL     1      28.155  52.717  40.987  1.00  0.00     0.037 C 
HETATM   12  C   UNL     1      29.254  53.016  39.947  1.00  0.00     0.024 C 
HETATM   13  C   UNL     1      28.652  52.691  38.579  1.00  0.00     0.037 C 
HETATM   14  C   UNL     1      28.161  51.255  38.464  1.00  0.00     0.236 C 
HETATM   15  H   UNL     1      26.341  51.371  39.469  1.00  0.00     0.280 HD
BRANCH  12  16
HETATM   16  C   UNL     1      30.560  52.324  40.314  1.00  0.00    -0.026 A 
HETATM   17  C   UNL     1      31.244  52.159  41.577  1.00  0.00    -0.001 A 
HETATM   18  C   UNL     1      32.482  51.562  41.303  1.00  0.00     0.045 A 
HETATM   19  C   UNL     1      30.967  52.467  42.932  1.00  0.00     0.017 A 
HETATM   20  C   UNL     1      33.461  51.334  42.278  1.00  0.00     0.072 A 
HETATM   21  N   UNL     1      32.503  51.247  39.969  1.00  0.00    -0.365 N 
HETATM   22  C   UNL     1      33.164  51.703  43.585  1.00  0.00     0.118 A 
HETATM   23  C   UNL     1      31.936  52.247  43.921  1.00  0.00     0.043 A 
HETATM   24  F   UNL     1      34.082  51.518  44.541  1.00  0.00    -0.206 F 
HETATM   25  C   UNL     1      31.357  51.686  39.373  1.00  0.00     0.096 A 
HETATM   26  H   UNL     1      33.255  50.752  39.506  1.00  0.00     0.165 HD
ENDBRANCH  12  16
ENDBRANCH   8   9
ENDBRANCH   1   8
TORSDOF 3
ENDMDL
MODEL 7
REMARK VINA RESULT:      -8.1     11.922     13.667
REMARK  3 active torsions:
REMARK  status: ('A' for Active; 'I' for Inactive)
REMARK    1  A    between atoms: C_7  and  C_8 
REMARK    2  A    between atoms: N_11  and  C_13 
REMARK    3  A    between atoms: C_13  and  C_14 
ROOT
HETATM    1  C   UNL     1      31.573  52.076  41.981  1.00  0.00     0.080 A 
HETATM    2  O   UNL     1      31.717  50.948  41.226  1.00  0.00    -0.302 OA
HETATM    3  C   UNL     1      32.241  49.992  42.045  1.00  0.00     0.155 A 
HETATM    4  C   UNL     1      32.479  48.710  41.487  1.00  0.00     0.125 C 
HETATM    5  N   UNL     1      32.654  47.662  41.021  1.00  0.00    -0.189 NA
HETATM    6  C   UNL     1      32.426  50.489  43.314  1.00  0.00     0.051 A 
HETATM    7  C   UNL     1      31.995  51.840  43.274  1.00  0.00     0.038 A 
ENDROOT
BRANCH   1   8
HETATM    8  C   UNL     1      31.009  53.266  41.298  1.00  0.00     0.299 C 
BRANCH   8   9
HETATM    9  N   UNL     1      29.669  53.025  40.614  1.00  0.00    -0.065 N 
HETATM   10  C   UNL     1      29.836  52.548  39.190  1.00  0.00     0.236 C 
HETATM   11  C   UNL     1      28.476  52.249  38.576  1.00  0.00     0.037 C 
HETATM   12  C   UNL     1      27.738  51.153  39.370  1.00  0.00     0.024 C 
HETATM   13  C   UNL     1      27.533  51.708  40.781  1.00  0.00     0.037 C 
HETATM   14  C   UNL     1      28.833  52.105  41.466  1.00  0.00     0.236 C 
HETATM   15  H   UNL     1      29.212  53.947  40.572  1.00  0.00     0.280 HD
BRANCH  12  16
HETATM   16  C   UNL     1      28.450  49.813  39.248  1.00  0.00    -0.026 A 
HETATM   17  C   UNL     1      28.057  48.473  39.623  1.00  0.00    -0.001 A 
HETATM   18  C   UNL     1      29.164  47.641  39.411  1.00  0.00     0.045 A 
HETATM   19  C   UNL     1      26.888  47.863  40.143  1.00  0.00     0.017 A 
HETATM   20  C   UNL     1      29.187  46.283  39.754  1.00  0.00     0.072 A 
HETATM   21  N   UNL     1      30.137  48.394  38.806  1.00  0.00    -0.365 N 
HETATM   22  C   UNL     1      28.035  45.743  40.312  1.00  0.00     0.118 A 
HETATM   23  C   UNL     1      26.893  46.506  40.494  1.00  0.00     0.043 A 
HETATM   24  F   UNL     1      28.024  44.453  40.671  1.00  0.00    -0.206 F 
HETATM   25  C   UNL     1      29.717  49.687  38.694  1.00  0.00     0.096 A 
HETATM   26  H   UNL     1      31.027  48.034  38.484  1.00  0.00     0.165 HD
ENDBRANCH  12  16
ENDBRANCH   8   9
ENDBRANCH   1   8
TORSDOF 3
ENDMDL
MODEL 8
REMARK VINA RESULT:      -7.9     11.976     13.873
REMARK  3 active torsions:
REMARK  status: ('A' for Active; 'I' for Inactive)
REMARK    1  A    between atoms: C_7  and  C_8 
REMARK    2  A    between atoms: N_11  and  C_13 
REMARK    3  A    between atoms: C_13  and  C_14 
ROOT
HETATM    1  C   UNL     1      32.152  48.786  41.762  1.00  0.00     0.080 A 
HETATM    2  O   UNL     1      33.331  49.469  41.680  1.00  0.00    -0.302 OA
HETATM    3  C   UNL     1      33.206  50.566  42.480  1.00  0.00     0.155 A 
HETATM    4  C   UNL     1      34.317  51.444  42.570  1.00  0.00     0.125 C 
HETATM    5  N   UNL     1      35.239  52.142  42.646  1.00  0.00    -0.189 NA
HETATM    6  C   UNL     1      31.967  50.590  43.079  1.00  0.00     0.051 A 
HETATM    7  C   UNL     1      31.283  49.438  42.614  1.00  0.00     0.038 A 
ENDROOT
BRANCH   1   8
HETATM    8  C   UNL     1      32.052  47.537  40.969  1.00  0.00     0.299 C 
BRANCH   8   9
HETATM    9  N   UNL     1      30.738  47.370  40.216  1.00  0.00    -0.065 N 
HETATM   10  C   UNL     1      29.539  47.556  41.117  1.00  0.00     0.236 C 
HETATM   11  C   UNL     1      28.255  47.456  40.306  1.00  0.00     0.037 C 
HETATM   12  C   UNL     1      28.208  48.537  39.208  1.00  0.00     0.024 C 
HETATM   13  C   UNL     1      29.398  48.267  38.286  1.00  0.00     0.037 C 
HETATM   14  C   UNL     1      30.736  48.277  39.012  1.00  0.00     0.236 C 
HETATM   15  H   UNL     1      30.726  46.392  39.897  1.00  0.00     0.280 HD
BRANCH  12  16
HETATM   16  C   UNL     1      28.101  49.931  39.813  1.00  0.00    -0.026 A 
HETATM   17  C   UNL     1      29.056  51.011  39.925  1.00  0.00    -0.001 A 
HETATM   18  C   UNL     1      28.462  52.011  40.705  1.00  0.00     0.045 A 
HETATM   19  C   UNL     1      30.376  51.254  39.470  1.00  0.00     0.017 A 
HETATM   20  C   UNL     1      29.128  53.175  41.108  1.00  0.00     0.072 A 
HETATM   21  N   UNL     1      27.165  51.634  40.943  1.00  0.00    -0.365 N 
HETATM   22  C   UNL     1      30.440  53.343  40.681  1.00  0.00     0.118 A 
HETATM   23  C   UNL     1      31.059  52.413  39.863  1.00  0.00     0.043 A 
HETATM   24  F   UNL     1      31.117  54.434  41.060  1.00  0.00    -0.206 F 
HETATM   25  C   UNL     1      26.936  50.401  40.405  1.00  0.00     0.096 A 
HETATM   26  H   UNL     1      26.482  52.198  41.434  1.00  0.00     0.165 HD
ENDBRANCH  12  16
ENDBRANCH   8   9
ENDBRANCH   1   8
TORSDOF 3
ENDMDL
MODEL 9
REMARK VINA RESULT:      -7.8      2.557      3.244
REMARK  3 active torsions:
REMARK  status: ('A' for Active; 'I' for Inactive)
REMARK    1  A    between atoms: C_7  and  C_8 
REMARK    2  A    between atoms: N_11  and  C_13 
REMARK    3  A    between atoms: C_13  and  C_14 
ROOT
HETATM    1  C   UNL     1      25.871  45.670  49.808  1.00  0.00     0.080 A 
HETATM    2  O   UNL     1      24.945  44.750  49.409  1.00  0.00    -0.302 OA
HETATM    3  C   UNL     1      23.760  45.414  49.286  1.00  0.00     0.155 A 
HETATM    4  C   UNL     1      22.629  44.666  48.870  1.00  0.00     0.125 C 
HETATM    5  N   UNL     1      21.717  44.045  48.513  1.00  0.00    -0.189 NA
HETATM    6  C   UNL     1      23.917  46.746  49.594  1.00  0.00     0.051 A 
HETATM    7  C   UNL     1      25.284  46.913  49.934  1.00  0.00     0.038 A 
ENDROOT
BRANCH   1   8
HETATM    8  C   UNL     1      27.256  45.176  50.005  1.00  0.00     0.299 C 
BRANCH   8   9
HETATM    9  N   UNL     1      27.368  43.952  50.905  1.00  0.00    -0.065 N 
HETATM   10  C   UNL     1      28.784  43.725  51.382  1.00  0.00     0.236 C 
HETATM   11  C   UNL     1      28.831  42.541  52.337  1.00  0.00     0.037 C 
HETATM   12  C   UNL     1      27.939  42.787  53.570  1.00  0.00     0.024 C 
HETATM   13  C   UNL     1      26.511  42.942  53.044  1.00  0.00     0.037 C 
HETATM   14  C   UNL     1      26.364  44.063  52.024  1.00  0.00     0.236 C 
HETATM   15  H   UNL     1      27.118  43.149  50.312  1.00  0.00     0.280 HD
BRANCH  12  16
HETATM   16  C   UNL     1      28.490  43.918  54.429  1.00  0.00    -0.026 A 
HETATM   17  C   UNL     1      29.571  43.962  55.389  1.00  0.00    -0.001 A 
HETATM   18  C   UNL     1      29.541  45.228  55.988  1.00  0.00     0.045 A 
HETATM   19  C   UNL     1      30.568  43.063  55.841  1.00  0.00     0.017 A 
HETATM   20  C   UNL     1      30.384  45.604  57.041  1.00  0.00     0.072 A 
HETATM   21  N   UNL     1      28.590  45.971  55.337  1.00  0.00    -0.365 N 
HETATM   22  C   UNL     1      31.310  44.669  57.487  1.00  0.00     0.118 A 
HETATM   23  C   UNL     1      31.420  43.422  56.895  1.00  0.00     0.043 A 
HETATM   24  F   UNL     1      32.121  44.985  58.504  1.00  0.00    -0.206 F 
HETATM   25  C   UNL     1      27.966  45.203  54.398  1.00  0.00     0.096 A 
HETATM   26  H   UNL     1      28.394  46.947  55.524  1.00  0.00     0.165 HD
ENDBRANCH  12  16
ENDBRANCH   8   9
ENDBRANCH   1   8
TORSDOF 3
ENDMDL
MODEL 10
REMARK VINA RESULT:      -7.8      3.937      4.875
REMARK  3 active torsions:
REMARK  status: ('A' for Active; 'I' for Inactive)
REMARK    1  A    between atoms: C_7  and  C_8 
REMARK    2  A    between atoms: N_11  and  C_13 
REMARK    3  A    between atoms: C_13  and  C_14 
ROOT
HETATM    1  C   UNL     1      24.799  43.369  50.514  1.00  0.00     0.080 A 
HETATM    2  O   UNL     1      24.023  42.298  50.175  1.00  0.00    -0.302 OA
HETATM    3  C   UNL     1      23.607  42.506  48.893  1.00  0.00     0.155 A 
HETATM    4  C   UNL     1      22.781  41.514  48.303  1.00  0.00     0.125 C 
HETATM    5  N   UNL     1      22.121  40.688  47.829  1.00  0.00    -0.189 NA
HETATM    6  C   UNL     1      24.112  43.689  48.406  1.00  0.00     0.051 A 
HETATM    7  C   UNL     1      24.884  44.250  49.455  1.00  0.00     0.038 A 
ENDROOT
BRANCH   1   8
HETATM    8  C   UNL     1      25.377  43.364  51.880  1.00  0.00     0.299 C 
BRANCH   8   9
HETATM    9  N   UNL     1      26.780  42.778  51.971  1.00  0.00    -0.065 N 
HETATM   10  C   UNL     1      27.848  43.817  51.715  1.00  0.00     0.236 C 
HETATM   11  C   UNL     1      29.229  43.202  51.892  1.00  0.00     0.037 C 
HETATM   12  C   UNL     1      29.415  42.660  53.323  1.00  0.00     0.024 C 
HETATM   13  C   UNL     1      28.360  41.569  53.511  1.00  0.00     0.037 C 
HETATM   14  C   UNL     1      26.937  42.063  53.289  1.00  0.00     0.236 C 
HETATM   15  H   UNL     1      26.841  42.089  51.209  1.00  0.00     0.280 HD
BRANCH  12  16
HETATM   16  C   UNL     1      29.431  43.793  54.342  1.00  0.00    -0.026 A 
HETATM   17  C   UNL     1      30.187  43.986  55.559  1.00  0.00    -0.001 A 
HETATM   18  C   UNL     1      29.693  45.143  56.175  1.00  0.00     0.045 A 
HETATM   19  C   UNL     1      31.229  43.298  56.230  1.00  0.00     0.017 A 
HETATM   20  C   UNL     1      30.121  45.592  57.431  1.00  0.00     0.072 A 
HETATM   21  N   UNL     1      28.783  45.710  55.320  1.00  0.00    -0.365 N 
HETATM   22  C   UNL     1      31.107  44.854  58.074  1.00  0.00     0.118 A 
HETATM   23  C   UNL     1      31.669  43.733  57.488  1.00  0.00     0.043 A 
HETATM   24  F   UNL     1      31.529  45.242  59.284  1.00  0.00    -0.206 F 
HETATM   25  C   UNL     1      28.629  44.920  54.219  1.00  0.00     0.096 A 
HETATM   26  H   UNL     1      28.311  46.591  55.484  1.00  0.00     0.165 HD
ENDBRANCH  12  16
ENDBRANCH   8   9
ENDBRANCH   1   8
TORSDOF 3
ENDMDL
