MODEL 1
REMARK VINA RESULT:      -8.5      0.000      0.000
REMARK  11 active torsions:
REMARK  status: ('A' for Active; 'I' for Inactive)
REMARK    1  A    between atoms: C_6  and  C_7 
REMARK    2  A    between atoms: C_7  and  C_8 
REMARK       I    between atoms: C_8  and  N_9 
REMARK    3  A    between atoms: N_9  and  C_10 
REMARK    4  A    between atoms: C_10  and  C_11 
REMARK    5  A    between atoms: C_11  and  N_12 
REMARK    6  A    between atoms: C_17  and  C_18 
REMARK    7  A    between atoms: C_21  and  C_22 
REMARK    8  A    between atoms: C_29  and  C_30 
REMARK    9  A    between atoms: C_30  and  O_31 
REMARK   10  A    between atoms: O_31  and  C_32 
REMARK   11  A    between atoms: C_32  and  C_33 
ROOT
HETATM    1  C   UNL     1      28.023  41.657  53.713  1.00  0.00     0.071 C 
HETATM    2  C   UNL     1      27.503  42.125  52.370  1.00  0.00     0.048 C 
HETATM    3  N   UNL     1      27.286  41.096  51.478  1.00  0.00    -0.229 NA
HETATM    4  C   UNL     1      26.500  41.326  50.484  1.00  0.00     0.170 C 
HETATM    5  N   UNL     1      26.004  42.751  50.027  1.00  0.00    -0.319 N 
HETATM    6  C   UNL     1      25.150  42.632  49.056  1.00  0.00     0.011 C 
HETATM    7  C   UNL     1      26.829  43.803  50.679  1.00  0.00     0.166 C 
HETATM    8  S   UNL     1      25.863  40.069  49.480  1.00  0.00    -0.086 SA
HETATM    9  C   UNL     1      24.642  41.224  48.809  1.00  0.00     0.135 C 
HETATM   10  C   UNL     1      27.152  43.398  52.081  1.00  0.00     0.069 C 
ENDROOT
BRANCH   6  11
HETATM   11  C   UNL     1      24.680  43.763  48.189  1.00  0.00     0.156 C 
BRANCH  11  12
HETATM   12  C   UNL     1      23.189  43.810  47.922  1.00  0.00     0.223 C 
HETATM   13  N   UNL     1      22.527  44.756  48.669  1.00  0.00    -0.359 N 
HETATM   14  H   UNL     1      23.055  45.213  49.408  1.00  0.00     0.162 HD
HETATM   15  O   UNL     1      22.630  43.079  47.110  1.00  0.00    -0.273 OA
BRANCH  13  16
HETATM   16  C   UNL     1      21.074  44.880  48.803  1.00  0.00     0.150 C 
BRANCH  16  17
HETATM   17  C   UNL     1      20.450  46.247  48.453  1.00  0.00     0.253 C 
BRANCH  17  18
HETATM   18  N   UNL     1      19.012  46.377  48.919  1.00  0.00    -0.077 N 
HETATM   19  H   UNL     1      18.958  45.896  49.839  1.00  0.00     0.279 HD
HETATM   20  C   UNL     1      18.561  47.798  49.116  1.00  0.00     0.269 C 
HETATM   21  C   UNL     1      18.068  45.649  47.998  1.00  0.00     0.269 C 
ENDBRANCH  17  18
ENDBRANCH  16  17
ENDBRANCH  13  16
ENDBRANCH  11  12
ENDBRANCH   6  11
BRANCH   7  22
HETATM   22  C   UNL     1      26.392  45.232  50.420  1.00  0.00    -0.030 A 
HETATM   23  C   UNL     1      25.150  45.750  50.811  1.00  0.00     0.010 A 
HETATM   24  C   UNL     1      24.775  47.051  50.444  1.00  0.00     0.008 A 
HETATM   25  C   UNL     1      25.623  47.865  49.681  1.00  0.00    -0.055 A 
HETATM   26  C   UNL     1      26.890  47.374  49.353  1.00  0.00     0.008 A 
HETATM   27  C   UNL     1      27.270  46.083  49.719  1.00  0.00     0.010 A 
BRANCH  25  28
HETATM   28  C   UNL     1      25.184  49.260  49.263  1.00  0.00     0.010 C 
HETATM   29  C   UNL     1      26.132  49.847  48.217  1.00  0.00     0.015 C 
HETATM   30  C   UNL     1      23.736  49.291  48.755  1.00  0.00     0.015 C 
ENDBRANCH  25  28
ENDBRANCH   7  22
BRANCH  10  31
HETATM   31  C   UNL     1      26.797  44.249  53.228  1.00  0.00     0.294 C 
HETATM   32  O   UNL     1      25.698  44.381  53.713  1.00  0.00    -0.259 OA
BRANCH  31  33
HETATM   33  O   UNL     1      27.943  44.910  53.516  1.00  0.00    -0.313 OA
BRANCH  33  34
HETATM   34  C   UNL     1      27.909  45.786  54.655  1.00  0.00     0.217 C 
BRANCH  34  35
HETATM   35  C   UNL     1      29.027  45.347  55.577  1.00  0.00    -0.034 A 
HETATM   36  C   UNL     1      29.209  45.958  56.830  1.00  0.00     0.009 A 
HETATM   37  C   UNL     1      30.220  45.540  57.698  1.00  0.00     0.001 A 
HETATM   38  C   UNL     1      31.061  44.496  57.329  1.00  0.00     0.000 A 
HETATM   39  C   UNL     1      30.884  43.868  56.097  1.00  0.00     0.001 A 
HETATM   40  C   UNL     1      29.873  44.288  55.227  1.00  0.00     0.009 A 
ENDBRANCH  34  35
ENDBRANCH  33  34
ENDBRANCH  31  33
ENDBRANCH  10  31
TORSDOF 11
ENDMDL
MODEL 2
REMARK VINA RESULT:      -8.5      2.920      9.445
REMARK  11 active torsions:
REMARK  status: ('A' for Active; 'I' for Inactive)
REMARK    1  A    between atoms: C_6  and  C_7 
REMARK    2  A    between atoms: C_7  and  C_8 
REMARK       I    between atoms: C_8  and  N_9 
REMARK    3  A    between atoms: N_9  and  C_10 
REMARK    4  A    between atoms: C_10  and  C_11 
REMARK    5  A    between atoms: C_11  and  N_12 
REMARK    6  A    between atoms: C_17  and  C_18 
REMARK    7  A    between atoms: C_21  and  C_22 
REMARK    8  A    between atoms: C_29  and  C_30 
REMARK    9  A    between atoms: C_30  and  O_31 
REMARK   10  A    between atoms: O_31  and  C_32 
REMARK   11  A    between atoms: C_32  and  C_33 
ROOT
HETATM    1  C   UNL     1      22.359  45.316  48.309  1.00  0.00     0.071 C 
HETATM    2  C   UNL     1      23.680  44.958  48.956  1.00  0.00     0.048 C 
HETATM    3  N   UNL     1      24.224  45.986  49.696  1.00  0.00    -0.229 NA
HETATM    4  C   UNL     1      25.110  45.680  50.579  1.00  0.00     0.170 C 
HETATM    5  N   UNL     1      25.845  44.290  50.687  1.00  0.00    -0.319 N 
HETATM    6  C   UNL     1      26.607  44.272  51.739  1.00  0.00     0.011 C 
HETATM    7  C   UNL     1      25.630  43.509  49.439  1.00  0.00     0.166 C 
HETATM    8  S   UNL     1      25.636  46.784  51.804  1.00  0.00    -0.086 SA
HETATM    9  C   UNL     1      26.391  45.414  52.714  1.00  0.00     0.135 C 
HETATM   10  C   UNL     1      24.238  43.726  48.939  1.00  0.00     0.069 C 
ENDROOT
BRANCH   6  11
HETATM   11  C   UNL     1      27.658  43.237  52.014  1.00  0.00     0.156 C 
BRANCH  11  12
HETATM   12  C   UNL     1      28.096  43.114  53.460  1.00  0.00     0.223 C 
HETATM   13  N   UNL     1      29.331  43.665  53.708  1.00  0.00    -0.359 N 
HETATM   14  H   UNL     1      29.877  43.957  52.900  1.00  0.00     0.162 HD
HETATM   15  O   UNL     1      27.408  42.582  54.325  1.00  0.00    -0.273 OA
BRANCH  13  16
HETATM   16  C   UNL     1      30.113  43.498  54.934  1.00  0.00     0.150 C 
BRANCH  16  17
HETATM   17  C   UNL     1      30.256  44.733  55.850  1.00  0.00     0.253 C 
BRANCH  17  18
HETATM   18  N   UNL     1      30.640  44.373  57.272  1.00  0.00    -0.077 N 
HETATM   19  H   UNL     1      29.867  43.786  57.645  1.00  0.00     0.279 HD
HETATM   20  C   UNL     1      31.911  43.575  57.376  1.00  0.00     0.269 C 
HETATM   21  C   UNL     1      30.714  45.595  58.149  1.00  0.00     0.269 C 
ENDBRANCH  17  18
ENDBRANCH  16  17
ENDBRANCH  13  16
ENDBRANCH  11  12
ENDBRANCH   6  11
BRANCH   7  22
HETATM   22  C   UNL     1      26.187  42.099  49.444  1.00  0.00    -0.030 A 
HETATM   23  C   UNL     1      25.682  41.065  50.244  1.00  0.00     0.010 A 
HETATM   24  C   UNL     1      26.315  39.814  50.273  1.00  0.00     0.008 A 
HETATM   25  C   UNL     1      27.463  39.562  49.508  1.00  0.00    -0.055 A 
HETATM   26  C   UNL     1      27.923  40.570  48.656  1.00  0.00     0.008 A 
HETATM   27  C   UNL     1      27.294  41.815  48.621  1.00  0.00     0.010 A 
BRANCH  25  28
HETATM   28  C   UNL     1      28.157  38.210  49.579  1.00  0.00     0.010 C 
HETATM   29  C   UNL     1      27.141  37.068  49.581  1.00  0.00     0.015 C 
HETATM   30  C   UNL     1      29.183  38.018  48.455  1.00  0.00     0.015 C 
ENDBRANCH  25  28
ENDBRANCH   7  22
BRANCH  10  31
HETATM   31  C   UNL     1      23.317  42.600  48.719  1.00  0.00     0.294 C 
HETATM   32  O   UNL     1      22.522  42.155  49.515  1.00  0.00    -0.259 OA
BRANCH  31  33
HETATM   33  O   UNL     1      23.651  42.133  47.493  1.00  0.00    -0.313 OA
BRANCH  33  34
HETATM   34  C   UNL     1      23.355  40.752  47.231  1.00  0.00     0.217 C 
BRANCH  34  35
HETATM   35  C   UNL     1      24.587  40.158  46.581  1.00  0.00    -0.034 A 
HETATM   36  C   UNL     1      25.404  40.934  45.741  1.00  0.00     0.009 A 
HETATM   37  C   UNL     1      26.557  40.403  45.160  1.00  0.00     0.001 A 
HETATM   38  C   UNL     1      26.918  39.085  45.420  1.00  0.00     0.000 A 
HETATM   39  C   UNL     1      26.129  38.306  46.264  1.00  0.00     0.001 A 
HETATM   40  C   UNL     1      24.973  38.838  46.844  1.00  0.00     0.009 A 
ENDBRANCH  34  35
ENDBRANCH  33  34
ENDBRANCH  31  33
ENDBRANCH  10  31
TORSDOF 11
ENDMDL
MODEL 3
REMARK VINA RESULT:      -8.4      3.238      6.341
REMARK  11 active torsions:
REMARK  status: ('A' for Active; 'I' for Inactive)
REMARK    1  A    between atoms: C_6  and  C_7 
REMARK    2  A    between atoms: C_7  and  C_8 
REMARK       I    between atoms: C_8  and  N_9 
REMARK    3  A    between atoms: N_9  and  C_10 
REMARK    4  A    between atoms: C_10  and  C_11 
REMARK    5  A    between atoms: C_11  and  N_12 
REMARK    6  A    between atoms: C_17  and  C_18 
REMARK    7  A    between atoms: C_21  and  C_22 
REMARK    8  A    between atoms: C_29  and  C_30 
REMARK    9  A    between atoms: C_30  and  O_31 
REMARK   10  A    between atoms: O_31  and  C_32 
REMARK   11  A    between atoms: C_32  and  C_33 
ROOT
HETATM    1  C   UNL     1      25.318  47.040  51.286  1.00  0.00     0.071 C 
HETATM    2  C   UNL     1      24.856  45.808  50.536  1.00  0.00     0.048 C 
HETATM    3  N   UNL     1      23.680  45.998  49.843  1.00  0.00    -0.229 NA
HETATM    4  C   UNL     1      23.412  45.177  48.887  1.00  0.00     0.170 C 
HETATM    5  N   UNL     1      24.150  43.808  48.631  1.00  0.00    -0.319 N 
HETATM    6  C   UNL     1      23.709  43.265  47.536  1.00  0.00     0.011 C 
HETATM    7  C   UNL     1      24.951  43.437  49.828  1.00  0.00     0.166 C 
HETATM    8  S   UNL     1      22.170  45.468  47.718  1.00  0.00    -0.086 SA
HETATM    9  C   UNL     1      22.856  44.167  46.665  1.00  0.00     0.135 C 
HETATM   10  C   UNL     1      25.565  44.662  50.426  1.00  0.00     0.069 C 
ENDROOT
BRANCH   6  11
HETATM   11  C   UNL     1      23.970  41.847  47.122  1.00  0.00     0.156 C 
BRANCH  11  12
HETATM   12  C   UNL     1      22.907  40.841  47.516  1.00  0.00     0.223 C 
HETATM   13  N   UNL     1      22.833  39.760  46.669  1.00  0.00    -0.359 N 
HETATM   14  H   UNL     1      23.375  39.809  45.809  1.00  0.00     0.162 HD
HETATM   15  O   UNL     1      22.189  40.976  48.501  1.00  0.00    -0.273 OA
BRANCH  13  16
HETATM   16  C   UNL     1      21.768  38.755  46.653  1.00  0.00     0.150 C 
BRANCH  16  17
HETATM   17  C   UNL     1      22.201  37.274  46.628  1.00  0.00     0.253 C 
BRANCH  17  18
HETATM   18  N   UNL     1      21.654  36.479  47.799  1.00  0.00    -0.077 N 
HETATM   19  H   UNL     1      21.781  37.074  48.642  1.00  0.00     0.279 HD
HETATM   20  C   UNL     1      20.189  36.155  47.684  1.00  0.00     0.269 C 
HETATM   21  C   UNL     1      22.453  35.224  48.033  1.00  0.00     0.269 C 
ENDBRANCH  17  18
ENDBRANCH  16  17
ENDBRANCH  13  16
ENDBRANCH  11  12
ENDBRANCH   6  11
BRANCH   7  22
HETATM   22  C   UNL     1      25.808  42.194  49.684  1.00  0.00    -0.030 A 
HETATM   23  C   UNL     1      26.847  42.068  48.752  1.00  0.00     0.010 A 
HETATM   24  C   UNL     1      27.528  40.850  48.606  1.00  0.00     0.008 A 
HETATM   25  C   UNL     1      27.190  39.731  49.380  1.00  0.00    -0.055 A 
HETATM   26  C   UNL     1      26.203  39.878  50.359  1.00  0.00     0.008 A 
HETATM   27  C   UNL     1      25.527  41.089  50.511  1.00  0.00     0.010 A 
BRANCH  25  28
HETATM   28  C   UNL     1      27.916  38.409  49.182  1.00  0.00     0.010 C 
HETATM   29  C   UNL     1      29.243  38.389  49.939  1.00  0.00     0.015 C 
HETATM   30  C   UNL     1      27.053  37.202  49.575  1.00  0.00     0.015 C 
ENDBRANCH  25  28
ENDBRANCH   7  22
BRANCH  10  31
HETATM   31  C   UNL     1      27.019  44.778  50.616  1.00  0.00     0.294 C 
HETATM   32  O   UNL     1      27.827  45.130  49.789  1.00  0.00    -0.259 OA
BRANCH  31  33
HETATM   33  O   UNL     1      27.229  44.299  51.866  1.00  0.00    -0.313 OA
BRANCH  33  34
HETATM   34  C   UNL     1      28.323  43.381  52.024  1.00  0.00     0.217 C 
BRANCH  34  35
HETATM   35  C   UNL     1      28.974  43.705  53.353  1.00  0.00    -0.034 A 
HETATM   36  C   UNL     1      30.115  43.006  53.786  1.00  0.00     0.009 A 
HETATM   37  C   UNL     1      30.738  43.317  54.996  1.00  0.00     0.001 A 
HETATM   38  C   UNL     1      30.234  44.342  55.790  1.00  0.00     0.000 A 
HETATM   39  C   UNL     1      29.114  45.056  55.369  1.00  0.00     0.001 A 
HETATM   40  C   UNL     1      28.489  44.743  54.157  1.00  0.00     0.009 A 
ENDBRANCH  34  35
ENDBRANCH  33  34
ENDBRANCH  31  33
ENDBRANCH  10  31
TORSDOF 11
ENDMDL
MODEL 4
REMARK VINA RESULT:      -8.1      2.967      5.884
REMARK  11 active torsions:
REMARK  status: ('A' for Active; 'I' for Inactive)
REMARK    1  A    between atoms: C_6  and  C_7 
REMARK    2  A    between atoms: C_7  and  C_8 
REMARK       I    between atoms: C_8  and  N_9 
REMARK    3  A    between atoms: N_9  and  C_10 
REMARK    4  A    between atoms: C_10  and  C_11 
REMARK    5  A    between atoms: C_11  and  N_12 
REMARK    6  A    between atoms: C_17  and  C_18 
REMARK    7  A    between atoms: C_21  and  C_22 
REMARK    8  A    between atoms: C_29  and  C_30 
REMARK    9  A    between atoms: C_30  and  O_31 
REMARK   10  A    between atoms: O_31  and  C_32 
REMARK   11  A    between atoms: C_32  and  C_33 
ROOT
HETATM    1  C   UNL     1      23.067  48.993  49.457  1.00  0.00     0.071 C 
HETATM    2  C   UNL     1      23.116  47.506  49.177  1.00  0.00     0.048 C 
HETATM    3  N   UNL     1      22.235  47.104  48.195  1.00  0.00    -0.229 NA
HETATM    4  C   UNL     1      22.461  45.976  47.617  1.00  0.00     0.170 C 
HETATM    5  N   UNL     1      23.471  44.878  48.128  1.00  0.00    -0.319 N 
HETATM    6  C   UNL     1      23.535  43.903  47.272  1.00  0.00     0.011 C 
HETATM    7  C   UNL     1      23.865  45.172  49.532  1.00  0.00     0.166 C 
HETATM    8  S   UNL     1      21.665  45.491  46.159  1.00  0.00    -0.086 SA
HETATM    9  C   UNL     1      22.889  44.178  45.927  1.00  0.00     0.135 C 
HETATM   10  C   UNL     1      24.009  46.648  49.719  1.00  0.00     0.069 C 
ENDROOT
BRANCH   6  11
HETATM   11  C   UNL     1      24.169  42.570  47.543  1.00  0.00     0.156 C 
BRANCH  11  12
HETATM   12  C   UNL     1      23.228  41.381  47.527  1.00  0.00     0.223 C 
HETATM   13  N   UNL     1      23.739  40.287  46.870  1.00  0.00    -0.359 N 
HETATM   14  H   UNL     1      24.603  40.423  46.349  1.00  0.00     0.162 HD
HETATM   15  O   UNL     1      22.123  41.395  48.058  1.00  0.00    -0.273 OA
BRANCH  13  16
HETATM   16  C   UNL     1      22.989  39.088  46.490  1.00  0.00     0.150 C 
BRANCH  16  17
HETATM   17  C   UNL     1      22.118  39.177  45.220  1.00  0.00     0.253 C 
BRANCH  17  18
HETATM   18  N   UNL     1      20.928  40.103  45.382  1.00  0.00    -0.077 N 
HETATM   19  H   UNL     1      21.013  40.525  46.329  1.00  0.00     0.279 HD
HETATM   20  C   UNL     1      20.887  41.225  44.382  1.00  0.00     0.269 C 
HETATM   21  C   UNL     1      19.630  39.339  45.368  1.00  0.00     0.269 C 
ENDBRANCH  17  18
ENDBRANCH  16  17
ENDBRANCH  13  16
ENDBRANCH  11  12
ENDBRANCH   6  11
BRANCH   7  22
HETATM   22  C   UNL     1      24.923  44.260  50.120  1.00  0.00    -0.030 A 
HETATM   23  C   UNL     1      26.290  44.361  49.826  1.00  0.00     0.010 A 
HETATM   24  C   UNL     1      27.197  43.416  50.326  1.00  0.00     0.008 A 
HETATM   25  C   UNL     1      26.768  42.349  51.128  1.00  0.00    -0.055 A 
HETATM   26  C   UNL     1      25.416  42.289  51.480  1.00  0.00     0.008 A 
HETATM   27  C   UNL     1      24.511  43.230  50.988  1.00  0.00     0.010 A 
BRANCH  25  28
HETATM   28  C   UNL     1      27.762  41.313  51.632  1.00  0.00     0.010 C 
HETATM   29  C   UNL     1      28.179  40.360  50.513  1.00  0.00     0.015 C 
HETATM   30  C   UNL     1      28.995  41.953  52.284  1.00  0.00     0.015 C 
ENDBRANCH  25  28
ENDBRANCH   7  22
BRANCH  10  31
HETATM   31  C   UNL     1      25.265  47.241  50.205  1.00  0.00     0.294 C 
HETATM   32  O   UNL     1      26.202  47.594  49.528  1.00  0.00    -0.259 OA
BRANCH  31  33
HETATM   33  O   UNL     1      25.158  47.186  51.554  1.00  0.00    -0.313 OA
BRANCH  33  34
HETATM   34  C   UNL     1      26.388  47.193  52.295  1.00  0.00     0.217 C 
BRANCH  34  35
HETATM   35  C   UNL     1      26.354  45.986  53.209  1.00  0.00    -0.034 A 
HETATM   36  C   UNL     1      25.132  45.478  53.685  1.00  0.00     0.009 A 
HETATM   37  C   UNL     1      25.089  44.348  54.505  1.00  0.00     0.001 A 
HETATM   38  C   UNL     1      26.270  43.701  54.853  1.00  0.00     0.000 A 
HETATM   39  C   UNL     1      27.488  44.180  54.376  1.00  0.00     0.001 A 
HETATM   40  C   UNL     1      27.532  45.313  53.557  1.00  0.00     0.009 A 
ENDBRANCH  34  35
ENDBRANCH  33  34
ENDBRANCH  31  33
ENDBRANCH  10  31
TORSDOF 11
ENDMDL
MODEL 5
REMARK VINA RESULT:      -8.0     10.993     13.626
REMARK  11 active torsions:
REMARK  status: ('A' for Active; 'I' for Inactive)
REMARK    1  A    between atoms: C_6  and  C_7 
REMARK    2  A    between atoms: C_7  and  C_8 
REMARK       I    between atoms: C_8  and  N_9 
REMARK    3  A    between atoms: N_9  and  C_10 
REMARK    4  A    between atoms: C_10  and  C_11 
REMARK    5  A    between atoms: C_11  and  N_12 
REMARK    6  A    between atoms: C_17  and  C_18 
REMARK    7  A    between atoms: C_21  and  C_22 
REMARK    8  A    between atoms: C_29  and  C_30 
REMARK    9  A    between atoms: C_30  and  O_31 
REMARK   10  A    between atoms: O_31  and  C_32 
REMARK   11  A    between atoms: C_32  and  C_33 
ROOT
HETATM    1  C   UNL     1      23.576  50.097  38.057  1.00  0.00     0.071 C 
HETATM    2  C   UNL     1      24.281  49.107  38.961  1.00  0.00     0.048 C 
HETATM    3  N   UNL     1      23.496  48.028  39.309  1.00  0.00    -0.229 NA
HETATM    4  C   UNL     1      24.094  46.968  39.731  1.00  0.00     0.170 C 
HETATM    5  N   UNL     1      25.607  46.891  40.169  1.00  0.00    -0.319 N 
HETATM    6  C   UNL     1      25.924  45.663  40.452  1.00  0.00     0.011 C 
HETATM    7  C   UNL     1      26.149  48.264  40.352  1.00  0.00     0.166 C 
HETATM    8  S   UNL     1      23.300  45.439  39.885  1.00  0.00    -0.086 SA
HETATM    9  C   UNL     1      24.906  44.619  40.032  1.00  0.00     0.135 C 
HETATM   10  C   UNL     1      25.586  49.174  39.307  1.00  0.00     0.069 C 
ENDROOT
BRANCH   6  11
HETATM   11  C   UNL     1      27.179  45.247  41.161  1.00  0.00     0.156 C 
BRANCH  11  12
HETATM   12  C   UNL     1      27.978  44.148  40.490  1.00  0.00     0.223 C 
HETATM   13  N   UNL     1      28.494  44.511  39.269  1.00  0.00    -0.359 N 
HETATM   14  H   UNL     1      28.177  45.397  38.879  1.00  0.00     0.162 HD
HETATM   15  O   UNL     1      28.154  43.044  40.996  1.00  0.00    -0.273 OA
BRANCH  13  16
HETATM   16  C   UNL     1      29.102  43.607  38.292  1.00  0.00     0.150 C 
BRANCH  16  17
HETATM   17  C   UNL     1      29.609  44.232  36.975  1.00  0.00     0.253 C 
BRANCH  17  18
HETATM   18  N   UNL     1      28.577  44.185  35.863  1.00  0.00    -0.077 N 
HETATM   19  H   UNL     1      29.109  44.086  34.975  1.00  0.00     0.279 HD
HETATM   20  C   UNL     1      27.629  43.022  35.962  1.00  0.00     0.269 C 
HETATM   21  C   UNL     1      27.814  45.479  35.765  1.00  0.00     0.269 C 
ENDBRANCH  17  18
ENDBRANCH  16  17
ENDBRANCH  13  16
ENDBRANCH  11  12
ENDBRANCH   6  11
BRANCH   7  22
HETATM   22  C   UNL     1      27.630  48.348  40.664  1.00  0.00    -0.030 A 
HETATM   23  C   UNL     1      28.143  48.759  41.902  1.00  0.00     0.010 A 
HETATM   24  C   UNL     1      29.525  48.913  42.084  1.00  0.00     0.008 A 
HETATM   25  C   UNL     1      30.428  48.662  41.040  1.00  0.00    -0.055 A 
HETATM   26  C   UNL     1      29.921  48.182  39.829  1.00  0.00     0.008 A 
HETATM   27  C   UNL     1      28.548  48.024  39.645  1.00  0.00     0.010 A 
BRANCH  25  28
HETATM   28  C   UNL     1      31.921  48.868  41.246  1.00  0.00     0.010 C 
HETATM   29  C   UNL     1      32.205  49.547  42.585  1.00  0.00     0.015 C 
HETATM   30  C   UNL     1      32.716  47.561  41.125  1.00  0.00     0.015 C 
ENDBRANCH  25  28
ENDBRANCH   7  22
BRANCH  10  31
HETATM   31  C   UNL     1      26.460  49.934  38.399  1.00  0.00     0.294 C 
HETATM   32  O   UNL     1      26.736  49.645  37.259  1.00  0.00    -0.259 OA
BRANCH  31  33
HETATM   33  O   UNL     1      26.949  50.934  39.170  1.00  0.00    -0.313 OA
BRANCH  33  34
HETATM   34  C   UNL     1      27.972  51.755  38.582  1.00  0.00     0.217 C 
BRANCH  34  35
HETATM   35  C   UNL     1      28.972  52.056  39.679  1.00  0.00    -0.034 A 
HETATM   36  C   UNL     1      30.348  52.130  39.398  1.00  0.00     0.009 A 
HETATM   37  C   UNL     1      31.274  52.435  40.397  1.00  0.00     0.001 A 
HETATM   38  C   UNL     1      30.836  52.681  41.695  1.00  0.00     0.000 A 
HETATM   39  C   UNL     1      29.475  52.629  41.987  1.00  0.00     0.001 A 
HETATM   40  C   UNL     1      28.547  52.321  40.986  1.00  0.00     0.009 A 
ENDBRANCH  34  35
ENDBRANCH  33  34
ENDBRANCH  31  33
ENDBRANCH  10  31
TORSDOF 11
ENDMDL
MODEL 6
REMARK VINA RESULT:      -7.9      3.770     10.489
REMARK  11 active torsions:
REMARK  status: ('A' for Active; 'I' for Inactive)
REMARK    1  A    between atoms: C_6  and  C_7 
REMARK    2  A    between atoms: C_7  and  C_8 
REMARK       I    between atoms: C_8  and  N_9 
REMARK    3  A    between atoms: N_9  and  C_10 
REMARK    4  A    between atoms: C_10  and  C_11 
REMARK    5  A    between atoms: C_11  and  N_12 
REMARK    6  A    between atoms: C_17  and  C_18 
REMARK    7  A    between atoms: C_21  and  C_22 
REMARK    8  A    between atoms: C_29  and  C_30 
REMARK    9  A    between atoms: C_30  and  O_31 
REMARK   10  A    between atoms: O_31  and  C_32 
REMARK   11  A    between atoms: C_32  and  C_33 
ROOT
HETATM    1  C   UNL     1      15.526  46.359  44.380  1.00  0.00     0.071 C 
HETATM    2  C   UNL     1      16.772  46.164  45.219  1.00  0.00     0.048 C 
HETATM    3  N   UNL     1      17.258  44.874  45.186  1.00  0.00    -0.229 NA
HETATM    4  C   UNL     1      18.486  44.692  45.527  1.00  0.00     0.170 C 
HETATM    5  N   UNL     1      19.393  45.752  46.261  1.00  0.00    -0.319 N 
HETATM    6  C   UNL     1      20.604  45.295  46.376  1.00  0.00     0.011 C 
HETATM    7  C   UNL     1      18.548  46.848  46.804  1.00  0.00     0.166 C 
HETATM    8  S   UNL     1      19.337  43.216  45.222  1.00  0.00    -0.086 SA
HETATM    9  C   UNL     1      20.906  44.050  45.563  1.00  0.00     0.135 C 
HETATM   10  C   UNL     1      17.441  47.157  45.846  1.00  0.00     0.069 C 
ENDROOT
BRANCH   6  11
HETATM   11  C   UNL     1      21.663  45.896  47.253  1.00  0.00     0.156 C 
BRANCH  11  12
HETATM   12  C   UNL     1      21.827  45.255  48.617  1.00  0.00     0.223 C 
HETATM   13  N   UNL     1      23.088  45.406  49.146  1.00  0.00    -0.359 N 
HETATM   14  H   UNL     1      23.804  45.789  48.532  1.00  0.00     0.162 HD
HETATM   15  O   UNL     1      20.919  44.667  49.195  1.00  0.00    -0.273 OA
BRANCH  13  16
HETATM   16  C   UNL     1      23.613  44.711  50.322  1.00  0.00     0.150 C 
BRANCH  16  17
HETATM   17  C   UNL     1      24.747  45.408  51.103  1.00  0.00     0.253 C 
BRANCH  17  18
HETATM   18  N   UNL     1      26.107  44.785  50.853  1.00  0.00    -0.077 N 
HETATM   19  H   UNL     1      25.929  43.812  50.534  1.00  0.00     0.279 HD
HETATM   20  C   UNL     1      26.907  45.478  49.784  1.00  0.00     0.269 C 
HETATM   21  C   UNL     1      26.907  44.681  52.124  1.00  0.00     0.269 C 
ENDBRANCH  17  18
ENDBRANCH  16  17
ENDBRANCH  13  16
ENDBRANCH  11  12
ENDBRANCH   6  11
BRANCH   7  22
HETATM   22  C   UNL     1      19.298  48.001  47.440  1.00  0.00    -0.030 A 
HETATM   23  C   UNL     1      20.024  48.954  46.713  1.00  0.00     0.010 A 
HETATM   24  C   UNL     1      20.779  49.932  47.377  1.00  0.00     0.008 A 
HETATM   25  C   UNL     1      20.831  49.984  48.777  1.00  0.00    -0.055 A 
HETATM   26  C   UNL     1      20.049  49.080  49.502  1.00  0.00     0.008 A 
HETATM   27  C   UNL     1      19.293  48.108  48.845  1.00  0.00     0.010 A 
BRANCH  25  28
HETATM   28  C   UNL     1      21.684  51.030  49.480  1.00  0.00     0.010 C 
HETATM   29  C   UNL     1      21.509  50.957  50.996  1.00  0.00     0.015 C 
HETATM   30  C   UNL     1      23.168  50.926  49.102  1.00  0.00     0.015 C 
ENDBRANCH  25  28
ENDBRANCH   7  22
BRANCH  10  31
HETATM   31  C   UNL     1      17.251  48.511  45.304  1.00  0.00     0.294 C 
HETATM   32  O   UNL     1      17.773  48.970  44.315  1.00  0.00    -0.259 OA
BRANCH  31  33
HETATM   33  O   UNL     1      16.466  49.127  46.219  1.00  0.00    -0.313 OA
BRANCH  33  34
HETATM   34  C   UNL     1      16.311  50.549  46.078  1.00  0.00     0.217 C 
BRANCH  34  35
HETATM   35  C   UNL     1      16.946  51.180  47.299  1.00  0.00    -0.034 A 
HETATM   36  C   UNL     1      16.568  50.783  48.594  1.00  0.00     0.009 A 
HETATM   37  C   UNL     1      17.168  51.340  49.725  1.00  0.00     0.001 A 
HETATM   38  C   UNL     1      18.166  52.299  49.578  1.00  0.00     0.000 A 
HETATM   39  C   UNL     1      18.564  52.691  48.301  1.00  0.00     0.001 A 
HETATM   40  C   UNL     1      17.962  52.135  47.169  1.00  0.00     0.009 A 
ENDBRANCH  34  35
ENDBRANCH  33  34
ENDBRANCH  31  33
ENDBRANCH  10  31
TORSDOF 11
ENDMDL
MODEL 7
REMARK VINA RESULT:      -7.7      9.709     13.066
REMARK  11 active torsions:
REMARK  status: ('A' for Active; 'I' for Inactive)
REMARK    1  A    between atoms: C_6  and  C_7 
REMARK    2  A    between atoms: C_7  and  C_8 
REMARK       I    between atoms: C_8  and  N_9 
REMARK    3  A    between atoms: N_9  and  C_10 
REMARK    4  A    between atoms: C_10  and  C_11 
REMARK    5  A    between atoms: C_11  and  N_12 
REMARK    6  A    between atoms: C_17  and  C_18 
REMARK    7  A    between atoms: C_21  and  C_22 
REMARK    8  A    between atoms: C_29  and  C_30 
REMARK    9  A    between atoms: C_30  and  O_31 
REMARK   10  A    between atoms: O_31  and  C_32 
REMARK   11  A    between atoms: C_32  and  C_33 
ROOT
HETATM    1  C   UNL     1      23.715  50.096  38.140  1.00  0.00     0.071 C 
HETATM    2  C   UNL     1      24.442  49.067  38.980  1.00  0.00     0.048 C 
HETATM    3  N   UNL     1      23.685  47.947  39.251  1.00  0.00    -0.229 NA
HETATM    4  C   UNL     1      24.310  46.878  39.605  1.00  0.00     0.170 C 
HETATM    5  N   UNL     1      25.822  46.811  40.046  1.00  0.00    -0.319 N 
HETATM    6  C   UNL     1      26.170  45.576  40.248  1.00  0.00     0.011 C 
HETATM    7  C   UNL     1      26.326  48.183  40.323  1.00  0.00     0.166 C 
HETATM    8  S   UNL     1      23.556  45.321  39.651  1.00  0.00    -0.086 SA
HETATM    9  C   UNL     1      25.183  44.536  39.754  1.00  0.00     0.135 C 
HETATM   10  C   UNL     1      25.744  49.145  39.338  1.00  0.00     0.069 C 
ENDROOT
BRANCH   6  11
HETATM   11  C   UNL     1      27.433  45.147  40.936  1.00  0.00     0.156 C 
BRANCH  11  12
HETATM   12  C   UNL     1      27.658  43.650  41.021  1.00  0.00     0.223 C 
HETATM   13  N   UNL     1      26.861  43.027  41.951  1.00  0.00    -0.359 N 
HETATM   14  H   UNL     1      26.323  43.626  42.574  1.00  0.00     0.162 HD
HETATM   15  O   UNL     1      28.469  43.055  40.319  1.00  0.00    -0.273 OA
BRANCH  13  16
HETATM   16  C   UNL     1      27.009  41.648  42.421  1.00  0.00     0.150 C 
BRANCH  16  17
HETATM   17  C   UNL     1      27.345  41.447  43.914  1.00  0.00     0.253 C 
BRANCH  17  18
HETATM   18  N   UNL     1      28.614  40.645  44.131  1.00  0.00    -0.077 N 
HETATM   19  H   UNL     1      29.137  41.123  44.892  1.00  0.00     0.279 HD
HETATM   20  C   UNL     1      28.371  39.225  44.564  1.00  0.00     0.269 C 
HETATM   21  C   UNL     1      29.501  40.678  42.914  1.00  0.00     0.269 C 
ENDBRANCH  17  18
ENDBRANCH  16  17
ENDBRANCH  13  16
ENDBRANCH  11  12
ENDBRANCH   6  11
BRANCH   7  22
HETATM   22  C   UNL     1      27.802  48.285  40.650  1.00  0.00    -0.030 A 
HETATM   23  C   UNL     1      28.299  48.631  41.914  1.00  0.00     0.010 A 
HETATM   24  C   UNL     1      29.676  48.808  42.114  1.00  0.00     0.008 A 
HETATM   25  C   UNL     1      30.590  48.646  41.063  1.00  0.00    -0.055 A 
HETATM   26  C   UNL     1      30.102  48.230  39.821  1.00  0.00     0.008 A 
HETATM   27  C   UNL     1      28.734  48.049  39.619  1.00  0.00     0.010 A 
BRANCH  25  28
HETATM   28  C   UNL     1      32.076  48.877  41.290  1.00  0.00     0.010 C 
HETATM   29  C   UNL     1      32.326  49.602  42.612  1.00  0.00     0.015 C 
HETATM   30  C   UNL     1      32.888  47.577  41.227  1.00  0.00     0.015 C 
ENDBRANCH  25  28
ENDBRANCH   7  22
BRANCH  10  31
HETATM   31  C   UNL     1      26.601  49.987  38.488  1.00  0.00     0.294 C 
HETATM   32  O   UNL     1      26.878  49.791  37.328  1.00  0.00    -0.259 OA
BRANCH  31  33
HETATM   33  O   UNL     1      27.075  50.934  39.332  1.00  0.00    -0.313 OA
BRANCH  33  34
HETATM   34  C   UNL     1      28.018  51.868  38.781  1.00  0.00     0.217 C 
BRANCH  34  35
HETATM   35  C   UNL     1      29.057  52.121  39.853  1.00  0.00    -0.034 A 
HETATM   36  C   UNL     1      30.419  52.240  39.523  1.00  0.00     0.009 A 
HETATM   37  C   UNL     1      31.380  52.502  40.502  1.00  0.00     0.001 A 
HETATM   38  C   UNL     1      30.992  52.659  41.828  1.00  0.00     0.000 A 
HETATM   39  C   UNL     1      29.645  52.560  42.171  1.00  0.00     0.001 A 
HETATM   40  C   UNL     1      28.682  52.297  41.191  1.00  0.00     0.009 A 
ENDBRANCH  34  35
ENDBRANCH  33  34
ENDBRANCH  31  33
ENDBRANCH  10  31
TORSDOF 11
ENDMDL
MODEL 8
REMARK VINA RESULT:      -7.5      3.214      9.585
REMARK  11 active torsions:
REMARK  status: ('A' for Active; 'I' for Inactive)
REMARK    1  A    between atoms: C_6  and  C_7 
REMARK    2  A    between atoms: C_7  and  C_8 
REMARK       I    between atoms: C_8  and  N_9 
REMARK    3  A    between atoms: N_9  and  C_10 
REMARK    4  A    between atoms: C_10  and  C_11 
REMARK    5  A    between atoms: C_11  and  N_12 
REMARK    6  A    between atoms: C_17  and  C_18 
REMARK    7  A    between atoms: C_21  and  C_22 
REMARK    8  A    between atoms: C_29  and  C_30 
REMARK    9  A    between atoms: C_30  and  O_31 
REMARK   10  A    between atoms: O_31  and  C_32 
REMARK   11  A    between atoms: C_32  and  C_33 
ROOT
HETATM    1  C   UNL     1      22.566  50.868  48.924  1.00  0.00     0.071 C 
HETATM    2  C   UNL     1      22.940  49.404  48.821  1.00  0.00     0.048 C 
HETATM    3  N   UNL     1      24.083  49.080  49.519  1.00  0.00    -0.229 NA
HETATM    4  C   UNL     1      24.267  47.841  49.818  1.00  0.00     0.170 C 
HETATM    5  N   UNL     1      23.467  46.629  49.205  1.00  0.00    -0.319 N 
HETATM    6  C   UNL     1      23.827  45.523  49.784  1.00  0.00     0.011 C 
HETATM    7  C   UNL     1      22.719  47.077  48.001  1.00  0.00     0.166 C 
HETATM    8  S   UNL     1      25.454  47.317  50.963  1.00  0.00    -0.086 SA
HETATM    9  C   UNL     1      24.664  45.690  51.038  1.00  0.00     0.135 C 
HETATM   10  C   UNL     1      22.184  48.457  48.221  1.00  0.00     0.069 C 
ENDROOT
BRANCH   6  11
HETATM   11  C   UNL     1      23.491  44.149  49.282  1.00  0.00     0.156 C 
BRANCH  11  12
HETATM   12  C   UNL     1      23.893  43.002  50.189  1.00  0.00     0.223 C 
HETATM   13  N   UNL     1      25.115  42.456  49.874  1.00  0.00    -0.359 N 
HETATM   14  H   UNL     1      25.548  42.763  49.005  1.00  0.00     0.162 HD
HETATM   15  O   UNL     1      23.197  42.608  51.119  1.00  0.00    -0.273 OA
BRANCH  13  16
HETATM   16  C   UNL     1      25.660  41.207  50.409  1.00  0.00     0.150 C 
BRANCH  16  17
HETATM   17  C   UNL     1      27.127  41.229  50.889  1.00  0.00     0.253 C 
BRANCH  17  18
HETATM   18  N   UNL     1      27.261  41.553  52.365  1.00  0.00    -0.077 N 
HETATM   19  H   UNL     1      26.465  41.084  52.841  1.00  0.00     0.279 HD
HETATM   20  C   UNL     1      28.532  41.044  52.987  1.00  0.00     0.269 C 
HETATM   21  C   UNL     1      27.105  43.029  52.620  1.00  0.00     0.269 C 
ENDBRANCH  17  18
ENDBRANCH  16  17
ENDBRANCH  13  16
ENDBRANCH  11  12
ENDBRANCH   6  11
BRANCH   7  22
HETATM   22  C   UNL     1      21.810  46.041  47.370  1.00  0.00    -0.030 A 
HETATM   23  C   UNL     1      20.628  45.576  47.962  1.00  0.00     0.010 A 
HETATM   24  C   UNL     1      19.894  44.540  47.368  1.00  0.00     0.008 A 
HETATM   25  C   UNL     1      20.318  43.941  46.172  1.00  0.00    -0.055 A 
HETATM   26  C   UNL     1      21.456  44.454  45.544  1.00  0.00     0.008 A 
HETATM   27  C   UNL     1      22.187  45.487  46.130  1.00  0.00     0.010 A 
BRANCH  25  28
HETATM   28  C   UNL     1      19.527  42.794  45.561  1.00  0.00     0.010 C 
HETATM   29  C   UNL     1      19.077  43.130  44.140  1.00  0.00     0.015 C 
HETATM   30  C   UNL     1      20.303  41.470  45.583  1.00  0.00     0.015 C 
ENDBRANCH  25  28
ENDBRANCH   7  22
BRANCH  10  31
HETATM   31  C   UNL     1      20.748  48.752  48.102  1.00  0.00     0.294 C 
HETATM   32  O   UNL     1      20.157  49.050  47.091  1.00  0.00    -0.259 OA
BRANCH  31  33
HETATM   33  O   UNL     1      20.296  48.719  49.378  1.00  0.00    -0.313 OA
BRANCH  33  34
HETATM   34  C   UNL     1      18.887  48.500  49.554  1.00  0.00     0.217 C 
BRANCH  34  35
HETATM   35  C   UNL     1      18.218  49.854  49.445  1.00  0.00    -0.034 A 
HETATM   36  C   UNL     1      18.814  50.999  50.003  1.00  0.00     0.009 A 
HETATM   37  C   UNL     1      18.218  52.256  49.883  1.00  0.00     0.001 A 
HETATM   38  C   UNL     1      17.018  52.390  49.192  1.00  0.00     0.000 A 
HETATM   39  C   UNL     1      16.422  51.269  48.618  1.00  0.00     0.001 A 
HETATM   40  C   UNL     1      17.018  50.009  48.740  1.00  0.00     0.009 A 
ENDBRANCH  34  35
ENDBRANCH  33  34
ENDBRANCH  31  33
ENDBRANCH  10  31
TORSDOF 11
ENDMDL
MODEL 9
REMARK VINA RESULT:      -7.5      4.017     10.236
REMARK  11 active torsions:
REMARK  status: ('A' for Active; 'I' for Inactive)
REMARK    1  A    between atoms: C_6  and  C_7 
REMARK    2  A    between atoms: C_7  and  C_8 
REMARK       I    between atoms: C_8  and  N_9 
REMARK    3  A    between atoms: N_9  and  C_10 
REMARK    4  A    between atoms: C_10  and  C_11 
REMARK    5  A    between atoms: C_11  and  N_12 
REMARK    6  A    between atoms: C_17  and  C_18 
REMARK    7  A    between atoms: C_21  and  C_22 
REMARK    8  A    between atoms: C_29  and  C_30 
REMARK    9  A    between atoms: C_30  and  O_31 
REMARK   10  A    between atoms: O_31  and  C_32 
REMARK   11  A    between atoms: C_32  and  C_33 
ROOT
HETATM    1  C   UNL     1      21.244  50.901  50.199  1.00  0.00     0.071 C 
HETATM    2  C   UNL     1      21.717  49.647  49.492  1.00  0.00     0.048 C 
HETATM    3  N   UNL     1      23.048  49.364  49.712  1.00  0.00    -0.229 NA
HETATM    4  C   UNL     1      23.443  48.157  49.496  1.00  0.00     0.170 C 
HETATM    5  N   UNL     1      22.622  47.056  48.723  1.00  0.00    -0.319 N 
HETATM    6  C   UNL     1      23.257  45.923  48.760  1.00  0.00     0.011 C 
HETATM    7  C   UNL     1      21.494  47.691  47.991  1.00  0.00     0.166 C 
HETATM    8  S   UNL     1      24.975  47.560  50.035  1.00  0.00    -0.086 SA
HETATM    9  C   UNL     1      24.420  45.864  49.732  1.00  0.00     0.135 C 
HETATM   10  C   UNL     1      20.915  48.797  48.814  1.00  0.00     0.069 C 
ENDROOT
BRANCH   6  11
HETATM   11  C   UNL     1      22.926  44.731  47.911  1.00  0.00     0.156 C 
BRANCH  11  12
HETATM   12  C   UNL     1      23.425  43.397  48.429  1.00  0.00     0.223 C 
HETATM   13  N   UNL     1      24.400  42.832  47.641  1.00  0.00    -0.359 N 
HETATM   14  H   UNL     1      24.582  43.274  46.743  1.00  0.00     0.162 HD
HETATM   15  O   UNL     1      23.003  42.877  49.457  1.00  0.00    -0.273 OA
BRANCH  13  16
HETATM   16  C   UNL     1      24.904  41.462  47.751  1.00  0.00     0.150 C 
BRANCH  16  17
HETATM   17  C   UNL     1      26.209  41.254  48.547  1.00  0.00     0.253 C 
BRANCH  17  18
HETATM   18  N   UNL     1      26.117  41.758  49.975  1.00  0.00    -0.077 N 
HETATM   19  H   UNL     1      25.118  41.995  50.138  1.00  0.00     0.279 HD
HETATM   20  C   UNL     1      26.520  40.741  51.007  1.00  0.00     0.269 C 
HETATM   21  C   UNL     1      26.897  43.032  50.161  1.00  0.00     0.269 C 
ENDBRANCH  17  18
ENDBRANCH  16  17
ENDBRANCH  13  16
ENDBRANCH  11  12
ENDBRANCH   6  11
BRANCH   7  22
HETATM   22  C   UNL     1      20.547  46.736  47.291  1.00  0.00    -0.030 A 
HETATM   23  C   UNL     1      19.677  45.868  47.965  1.00  0.00     0.010 A 
HETATM   24  C   UNL     1      18.906  44.939  47.251  1.00  0.00     0.008 A 
HETATM   25  C   UNL     1      18.981  44.851  45.854  1.00  0.00    -0.055 A 
HETATM   26  C   UNL     1      19.794  45.765  45.178  1.00  0.00     0.008 A 
HETATM   27  C   UNL     1      20.560  46.694  45.883  1.00  0.00     0.010 A 
BRANCH  25  28
HETATM   28  C   UNL     1      18.164  43.813  45.101  1.00  0.00     0.010 C 
HETATM   29  C   UNL     1      16.670  44.131  45.169  1.00  0.00     0.015 C 
HETATM   30  C   UNL     1      18.616  43.655  43.643  1.00  0.00     0.015 C 
ENDBRANCH  25  28
ENDBRANCH   7  22
BRANCH  10  31
HETATM   31  C   UNL     1      19.490  48.816  49.180  1.00  0.00     0.294 C 
HETATM   32  O   UNL     1      18.983  48.257  50.124  1.00  0.00    -0.259 OA
BRANCH  31  33
HETATM   33  O   UNL     1      18.897  49.494  48.170  1.00  0.00    -0.313 OA
BRANCH  33  34
HETATM   34  C   UNL     1      17.555  49.103  47.836  1.00  0.00     0.217 C 
BRANCH  34  35
HETATM   35  C   UNL     1      17.543  48.813  46.349  1.00  0.00    -0.034 A 
HETATM   36  C   UNL     1      16.711  47.813  45.817  1.00  0.00     0.009 A 
HETATM   37  C   UNL     1      16.673  47.558  44.445  1.00  0.00     0.001 A 
HETATM   38  C   UNL     1      17.462  48.309  43.580  1.00  0.00     0.000 A 
HETATM   39  C   UNL     1      18.281  49.315  44.088  1.00  0.00     0.001 A 
HETATM   40  C   UNL     1      18.320  49.569  45.463  1.00  0.00     0.009 A 
ENDBRANCH  34  35
ENDBRANCH  33  34
ENDBRANCH  31  33
ENDBRANCH  10  31
TORSDOF 11
ENDMDL
MODEL 10
REMARK VINA RESULT:      -7.5     18.228     22.223
REMARK  11 active torsions:
REMARK  status: ('A' for Active; 'I' for Inactive)
REMARK    1  A    between atoms: C_6  and  C_7 
REMARK    2  A    between atoms: C_7  and  C_8 
REMARK       I    between atoms: C_8  and  N_9 
REMARK    3  A    between atoms: N_9  and  C_10 
REMARK    4  A    between atoms: C_10  and  C_11 
REMARK    5  A    between atoms: C_11  and  N_12 
REMARK    6  A    between atoms: C_17  and  C_18 
REMARK    7  A    between atoms: C_21  and  C_22 
REMARK    8  A    between atoms: C_29  and  C_30 
REMARK    9  A    between atoms: C_30  and  O_31 
REMARK   10  A    between atoms: O_31  and  C_32 
REMARK   11  A    between atoms: C_32  and  C_33 
ROOT
HETATM    1  C   UNL     1      39.006  40.324  63.162  1.00  0.00     0.071 C 
HETATM    2  C   UNL     1      39.816  41.057  64.211  1.00  0.00     0.048 C 
HETATM    3  N   UNL     1      40.757  40.262  64.830  1.00  0.00    -0.229 NA
HETATM    4  C   UNL     1      41.732  40.852  65.430  1.00  0.00     0.170 C 
HETATM    5  N   UNL     1      41.790  42.388  65.778  1.00  0.00    -0.319 N 
HETATM    6  C   UNL     1      42.945  42.682  66.297  1.00  0.00     0.011 C 
HETATM    7  C   UNL     1      40.438  42.989  65.629  1.00  0.00     0.166 C 
HETATM    8  S   UNL     1      43.154  40.017  65.957  1.00  0.00    -0.086 SA
HETATM    9  C   UNL     1      44.002  41.601  66.175  1.00  0.00     0.135 C 
HETATM   10  C   UNL     1      39.742  42.385  64.451  1.00  0.00     0.069 C 
ENDROOT
BRANCH   6  11
HETATM   11  C   UNL     1      43.263  43.969  66.998  1.00  0.00     0.156 C 
BRANCH  11  12
HETATM   12  C   UNL     1      44.413  44.767  66.416  1.00  0.00     0.223 C 
HETATM   13  N   UNL     1      45.349  45.142  67.350  1.00  0.00    -0.359 N 
HETATM   14  H   UNL     1      45.116  44.983  68.328  1.00  0.00     0.162 HD
HETATM   15  O   UNL     1      44.500  45.044  65.224  1.00  0.00    -0.273 OA
BRANCH  13  16
HETATM   16  C   UNL     1      46.434  46.103  67.139  1.00  0.00     0.150 C 
BRANCH  16  17
HETATM   17  C   UNL     1      46.297  47.479  67.825  1.00  0.00     0.253 C 
BRANCH  17  18
HETATM   18  N   UNL     1      45.932  48.588  66.856  1.00  0.00    -0.077 N 
HETATM   19  H   UNL     1      44.919  48.775  66.995  1.00  0.00     0.279 HD
HETATM   20  C   UNL     1      46.673  49.875  67.096  1.00  0.00     0.269 C 
HETATM   21  C   UNL     1      46.096  48.146  65.426  1.00  0.00     0.269 C 
ENDBRANCH  17  18
ENDBRANCH  16  17
ENDBRANCH  13  16
ENDBRANCH  11  12
ENDBRANCH   6  11
BRANCH   7  22
HETATM   22  C   UNL     1      40.363  44.491  65.823  1.00  0.00    -0.030 A 
HETATM   23  C   UNL     1      39.714  45.106  66.902  1.00  0.00     0.010 A 
HETATM   24  C   UNL     1      39.596  46.503  66.959  1.00  0.00     0.008 A 
HETATM   25  C   UNL     1      40.118  47.318  65.945  1.00  0.00    -0.055 A 
HETATM   26  C   UNL     1      40.828  46.709  64.907  1.00  0.00     0.008 A 
HETATM   27  C   UNL     1      40.952  45.321  64.848  1.00  0.00     0.010 A 
BRANCH  25  28
HETATM   28  C   UNL     1      39.948  48.829  66.006  1.00  0.00     0.010 C 
HETATM   29  C   UNL     1      39.473  49.386  64.664  1.00  0.00     0.015 C 
HETATM   30  C   UNL     1      39.007  49.268  67.136  1.00  0.00     0.015 C 
ENDBRANCH  25  28
ENDBRANCH   7  22
BRANCH  10  31
HETATM   31  C   UNL     1      39.235  43.217  63.349  1.00  0.00     0.294 C 
HETATM   32  O   UNL     1      39.854  43.575  62.375  1.00  0.00    -0.259 OA
BRANCH  31  33
HETATM   33  O   UNL     1      37.986  43.563  63.743  1.00  0.00    -0.313 OA
BRANCH  33  34
HETATM   34  C   UNL     1      37.443  44.763  63.168  1.00  0.00     0.217 C 
BRANCH  34  35
HETATM   35  C   UNL     1      36.853  45.564  64.309  1.00  0.00    -0.034 A 
HETATM   36  C   UNL     1      36.396  44.927  65.476  1.00  0.00     0.009 A 
HETATM   37  C   UNL     1      35.876  45.661  66.545  1.00  0.00     0.001 A 
HETATM   38  C   UNL     1      35.815  47.049  66.466  1.00  0.00     0.000 A 
HETATM   39  C   UNL     1      36.279  47.698  65.324  1.00  0.00     0.001 A 
HETATM   40  C   UNL     1      36.798  46.963  64.253  1.00  0.00     0.009 A 
ENDBRANCH  34  35
ENDBRANCH  33  34
ENDBRANCH  31  33
ENDBRANCH  10  31
TORSDOF 11
ENDMDL
