MODEL 1
REMARK VINA RESULT:      -9.0      0.000      0.000
REMARK  8 active torsions:
REMARK  status: ('A' for Active; 'I' for Inactive)
REMARK    1  A    between atoms: C_7  and  C_8 
REMARK       I    between atoms: C_8  and  N_9 
REMARK    2  A    between atoms: N_9  and  C_10 
REMARK    3  A    between atoms: C_11  and  C_12 
REMARK       I    between atoms: C_12  and  N_13 
REMARK    4  A    between atoms: N_13  and  C_14 
REMARK    5  A    between atoms: C_14  and  C_15 
REMARK    6  A    between atoms: C_15  and  C_16 
REMARK    7  A    between atoms: C_17  and  O_18 
REMARK    8  A    between atoms: C_21  and  O_22 
ROOT
HETATM    1  C   UNL     1      24.469  48.805  49.282  1.00  0.00     0.050 A 
HETATM    2  C   UNL     1      25.255  47.829  49.912  1.00  0.00     0.058 A 
HETATM    3  C   UNL     1      26.658  47.868  49.781  1.00  0.00     0.019 A 
HETATM    4  C   UNL     1      27.273  48.858  49.014  1.00  0.00     0.001 A 
HETATM    5  C   UNL     1      26.492  49.793  48.345  1.00  0.00     0.002 A 
HETATM    6  C   UNL     1      25.100  49.760  48.467  1.00  0.00     0.030 A 
ENDROOT
BRANCH   2   7
HETATM    7  C   UNL     1      24.689  46.590  50.509  1.00  0.00     0.253 C 
HETATM    8  N   UNL     1      25.320  46.157  51.657  1.00  0.00    -0.356 N 
HETATM    9  H   UNL     1      25.878  46.825  52.171  1.00  0.00     0.162 HD
HETATM   10  O   UNL     1      23.791  45.983  49.938  1.00  0.00    -0.268 OA
BRANCH   8  11
HETATM   11  C   UNL     1      25.018  44.881  52.273  1.00  0.00     0.127 C 
BRANCH  11  12
HETATM   12  C   UNL     1      25.095  44.901  53.800  1.00  0.00     0.061 C 
BRANCH  12  13
HETATM   13  C   UNL     1      26.538  44.945  54.266  1.00  0.00    -0.023 A 
HETATM   14  C   UNL     1      27.163  46.147  54.652  1.00  0.00     0.077 A 
HETATM   15  C   UNL     1      28.488  46.127  55.113  1.00  0.00     0.074 A 
HETATM   16  C   UNL     1      29.192  44.923  55.199  1.00  0.00     0.070 A 
HETATM   17  C   UNL     1      28.565  43.733  54.835  1.00  0.00     0.037 A 
HETATM   18  C   UNL     1      27.252  43.742  54.368  1.00  0.00     0.013 A 
BRANCH  14  19
HETATM   19  O   UNL     1      26.391  47.275  54.556  1.00  0.00    -0.355 OA
HETATM   20  C   UNL     1      26.518  48.257  55.574  1.00  0.00     0.210 C 
ENDBRANCH  14  19
BRANCH  16  21
HETATM   21  O   UNL     1      30.481  44.774  55.637  1.00  0.00    -0.356 OA
HETATM   22  C   UNL     1      30.984  43.447  55.720  1.00  0.00     0.210 C 
ENDBRANCH  16  21
ENDBRANCH  12  13
ENDBRANCH  11  12
ENDBRANCH   8  11
ENDBRANCH   2   7
BRANCH   1  23
HETATM   23  N   UNL     1      23.070  48.933  49.398  1.00  0.00    -0.321 N 
HETATM   24  C   UNL     1      22.149  48.620  48.414  1.00  0.00     0.265 C 
HETATM   25  O   UNL     1      22.436  48.132  47.324  1.00  0.00    -0.267 OA
HETATM   26  H   UNL     1      22.681  49.006  50.332  1.00  0.00     0.169 HD
BRANCH  24  27
HETATM   27  C   UNL     1      20.703  48.779  48.865  1.00  0.00     0.097 C 
HETATM   28  C   UNL     1      20.128  50.003  48.963  1.00  0.00     0.064 C 
HETATM   29  C   UNL     1      20.880  51.296  48.778  1.00  0.00     0.078 C 
HETATM   30  O   UNL     1      18.801  50.248  49.286  1.00  0.00    -0.353 OA
HETATM   31  C   UNL     1      17.892  49.155  49.158  1.00  0.00     0.185 C 
HETATM   32  C   UNL     1      18.348  47.961  49.969  1.00  0.00     0.106 C 
HETATM   33  S   UNL     1      19.835  47.288  49.192  1.00  0.00    -0.120 SA
ENDBRANCH  24  27
ENDBRANCH   1  23
TORSDOF 8
ENDMDL
MODEL 2
REMARK VINA RESULT:      -8.9      1.273      2.090
REMARK  8 active torsions:
REMARK  status: ('A' for Active; 'I' for Inactive)
REMARK    1  A    between atoms: C_7  and  C_8 
REMARK       I    between atoms: C_8  and  N_9 
REMARK    2  A    between atoms: N_9  and  C_10 
REMARK    3  A    between atoms: C_11  and  C_12 
REMARK       I    between atoms: C_12  and  N_13 
REMARK    4  A    between atoms: N_13  and  C_14 
REMARK    5  A    between atoms: C_14  and  C_15 
REMARK    6  A    between atoms: C_15  and  C_16 
REMARK    7  A    between atoms: C_17  and  O_18 
REMARK    8  A    between atoms: C_21  and  O_22 
ROOT
HETATM    1  C   UNL     1      24.467  48.940  49.138  1.00  0.00     0.050 A 
HETATM    2  C   UNL     1      25.251  47.981  49.798  1.00  0.00     0.058 A 
HETATM    3  C   UNL     1      26.655  48.027  49.684  1.00  0.00     0.019 A 
HETATM    4  C   UNL     1      27.273  49.004  48.904  1.00  0.00     0.001 A 
HETATM    5  C   UNL     1      26.495  49.921  48.206  1.00  0.00     0.002 A 
HETATM    6  C   UNL     1      25.102  49.881  48.311  1.00  0.00     0.030 A 
ENDROOT
BRANCH   2   7
HETATM    7  C   UNL     1      24.685  46.751  50.414  1.00  0.00     0.253 C 
HETATM    8  N   UNL     1      25.242  46.399  51.625  1.00  0.00    -0.356 N 
HETATM    9  H   UNL     1      25.736  47.112  52.145  1.00  0.00     0.162 HD
HETATM   10  O   UNL     1      23.854  46.084  49.809  1.00  0.00    -0.268 OA
BRANCH   8  11
HETATM   11  C   UNL     1      24.940  45.142  52.281  1.00  0.00     0.127 C 
BRANCH  11  12
HETATM   12  C   UNL     1      25.971  44.045  52.014  1.00  0.00     0.061 C 
BRANCH  12  13
HETATM   13  C   UNL     1      27.101  44.112  53.024  1.00  0.00    -0.023 A 
HETATM   14  C   UNL     1      28.282  43.360  52.873  1.00  0.00     0.077 A 
HETATM   15  C   UNL     1      29.315  43.487  53.816  1.00  0.00     0.074 A 
HETATM   16  C   UNL     1      29.184  44.360  54.899  1.00  0.00     0.070 A 
HETATM   17  C   UNL     1      28.022  45.118  55.034  1.00  0.00     0.037 A 
HETATM   18  C   UNL     1      26.987  44.994  54.109  1.00  0.00     0.013 A 
BRANCH  14  19
HETATM   19  O   UNL     1      28.333  42.547  51.772  1.00  0.00    -0.355 OA
HETATM   20  C   UNL     1      28.455  41.147  51.982  1.00  0.00     0.210 C 
ENDBRANCH  14  19
BRANCH  16  21
HETATM   21  O   UNL     1      30.119  44.577  55.876  1.00  0.00    -0.356 OA
HETATM   22  C   UNL     1      31.061  43.537  56.107  1.00  0.00     0.210 C 
ENDBRANCH  16  21
ENDBRANCH  12  13
ENDBRANCH  11  12
ENDBRANCH   8  11
ENDBRANCH   2   7
BRANCH   1  23
HETATM   23  N   UNL     1      23.066  49.061  49.234  1.00  0.00    -0.321 N 
HETATM   24  C   UNL     1      22.154  48.636  48.283  1.00  0.00     0.265 C 
HETATM   25  O   UNL     1      22.453  48.042  47.251  1.00  0.00    -0.267 OA
HETATM   26  H   UNL     1      22.670  49.225  50.154  1.00  0.00     0.169 HD
BRANCH  24  27
HETATM   27  C   UNL     1      20.704  48.823  48.709  1.00  0.00     0.097 C 
HETATM   28  C   UNL     1      20.133  50.052  48.741  1.00  0.00     0.064 C 
HETATM   29  C   UNL     1      20.892  51.332  48.503  1.00  0.00     0.078 C 
HETATM   30  O   UNL     1      18.803  50.317  49.037  1.00  0.00    -0.353 OA
HETATM   31  C   UNL     1      17.891  49.222  48.950  1.00  0.00     0.185 C 
HETATM   32  C   UNL     1      18.333  48.068  49.823  1.00  0.00     0.106 C 
HETATM   33  S   UNL     1      19.826  47.352  49.097  1.00  0.00    -0.120 SA
ENDBRANCH  24  27
ENDBRANCH   1  23
TORSDOF 8
ENDMDL
MODEL 3
REMARK VINA RESULT:      -8.7      4.873      8.369
REMARK  8 active torsions:
REMARK  status: ('A' for Active; 'I' for Inactive)
REMARK    1  A    between atoms: C_7  and  C_8 
REMARK       I    between atoms: C_8  and  N_9 
REMARK    2  A    between atoms: N_9  and  C_10 
REMARK    3  A    between atoms: C_11  and  C_12 
REMARK       I    between atoms: C_12  and  N_13 
REMARK    4  A    between atoms: N_13  and  C_14 
REMARK    5  A    between atoms: C_14  and  C_15 
REMARK    6  A    between atoms: C_15  and  C_16 
REMARK    7  A    between atoms: C_17  and  O_18 
REMARK    8  A    between atoms: C_21  and  O_22 
ROOT
HETATM    1  C   UNL     1      29.309  44.839  55.107  1.00  0.00     0.050 A 
HETATM    2  C   UNL     1      29.962  43.598  55.057  1.00  0.00     0.058 A 
HETATM    3  C   UNL     1      30.859  43.237  56.083  1.00  0.00     0.019 A 
HETATM    4  C   UNL     1      31.119  44.111  57.139  1.00  0.00     0.001 A 
HETATM    5  C   UNL     1      30.514  45.363  57.161  1.00  0.00     0.002 A 
HETATM    6  C   UNL     1      29.626  45.729  56.146  1.00  0.00     0.030 A 
ENDROOT
BRANCH   2   7
HETATM    7  C   UNL     1      29.967  42.729  53.850  1.00  0.00     0.253 C 
HETATM    8  N   UNL     1      28.862  41.917  53.714  1.00  0.00    -0.356 N 
HETATM    9  H   UNL     1      28.024  42.166  54.224  1.00  0.00     0.162 HD
HETATM   10  O   UNL     1      30.944  42.704  53.111  1.00  0.00    -0.268 OA
BRANCH   8  11
HETATM   11  C   UNL     1      28.777  40.885  52.700  1.00  0.00     0.127 C 
BRANCH  11  12
HETATM   12  C   UNL     1      28.102  41.346  51.408  1.00  0.00     0.061 C 
BRANCH  12  13
HETATM   13  C   UNL     1      28.320  40.336  50.296  1.00  0.00    -0.023 A 
HETATM   14  C   UNL     1      27.984  40.615  48.958  1.00  0.00     0.077 A 
HETATM   15  C   UNL     1      28.242  39.661  47.961  1.00  0.00     0.074 A 
HETATM   16  C   UNL     1      28.835  38.438  48.285  1.00  0.00     0.070 A 
HETATM   17  C   UNL     1      29.183  38.173  49.608  1.00  0.00     0.037 A 
HETATM   18  C   UNL     1      28.925  39.110  50.607  1.00  0.00     0.013 A 
BRANCH  14  19
HETATM   19  O   UNL     1      27.428  41.846  48.728  1.00  0.00    -0.355 OA
HETATM   20  C   UNL     1      26.026  41.911  48.506  1.00  0.00     0.210 C 
ENDBRANCH  14  19
BRANCH  16  21
HETATM   21  O   UNL     1      29.141  37.434  47.406  1.00  0.00    -0.356 OA
HETATM   22  C   UNL     1      28.625  37.554  46.086  1.00  0.00     0.210 C 
ENDBRANCH  16  21
ENDBRANCH  12  13
ENDBRANCH  11  12
ENDBRANCH   8  11
ENDBRANCH   2   7
BRANCH   1  23
HETATM   23  N   UNL     1      28.331  45.288  54.197  1.00  0.00    -0.321 N 
HETATM   24  C   UNL     1      27.025  44.833  54.130  1.00  0.00     0.265 C 
HETATM   25  O   UNL     1      26.536  44.012  54.900  1.00  0.00    -0.267 OA
HETATM   26  H   UNL     1      28.491  46.177  53.735  1.00  0.00     0.169 HD
BRANCH  24  27
HETATM   27  C   UNL     1      26.178  45.572  53.103  1.00  0.00     0.097 C 
HETATM   28  C   UNL     1      25.837  46.872  53.277  1.00  0.00     0.064 C 
HETATM   29  C   UNL     1      26.131  47.652  54.532  1.00  0.00     0.078 C 
HETATM   30  O   UNL     1      25.139  47.653  52.365  1.00  0.00    -0.353 OA
HETATM   31  C   UNL     1      25.086  47.183  51.019  1.00  0.00     0.185 C 
HETATM   32  C   UNL     1      24.522  45.780  50.947  1.00  0.00     0.106 C 
HETATM   33  S   UNL     1      25.729  44.650  51.677  1.00  0.00    -0.120 SA
ENDBRANCH  24  27
ENDBRANCH   1  23
TORSDOF 8
ENDMDL
MODEL 4
REMARK VINA RESULT:      -8.3      2.547      9.330
REMARK  8 active torsions:
REMARK  status: ('A' for Active; 'I' for Inactive)
REMARK    1  A    between atoms: C_7  and  C_8 
REMARK       I    between atoms: C_8  and  N_9 
REMARK    2  A    between atoms: N_9  and  C_10 
REMARK    3  A    between atoms: C_11  and  C_12 
REMARK       I    between atoms: C_12  and  N_13 
REMARK    4  A    between atoms: N_13  and  C_14 
REMARK    5  A    between atoms: C_14  and  C_15 
REMARK    6  A    between atoms: C_15  and  C_16 
REMARK    7  A    between atoms: C_17  and  O_18 
REMARK    8  A    between atoms: C_21  and  O_22 
ROOT
HETATM    1  C   UNL     1      25.284  44.743  50.956  1.00  0.00     0.050 A 
HETATM    2  C   UNL     1      24.426  45.635  50.295  1.00  0.00     0.058 A 
HETATM    3  C   UNL     1      23.538  45.154  49.312  1.00  0.00     0.019 A 
HETATM    4  C   UNL     1      23.517  43.801  48.974  1.00  0.00     0.001 A 
HETATM    5  C   UNL     1      24.404  42.925  49.589  1.00  0.00     0.002 A 
HETATM    6  C   UNL     1      25.290  43.394  50.563  1.00  0.00     0.030 A 
ENDROOT
BRANCH   2   7
HETATM    7  C   UNL     1      24.568  47.114  50.381  1.00  0.00     0.253 C 
HETATM    8  N   UNL     1      24.287  47.793  49.215  1.00  0.00    -0.356 N 
HETATM    9  H   UNL     1      23.732  47.321  48.513  1.00  0.00     0.162 HD
HETATM   10  O   UNL     1      24.995  47.635  51.404  1.00  0.00    -0.268 OA
BRANCH   8  11
HETATM   11  C   UNL     1      24.539  49.212  49.064  1.00  0.00     0.127 C 
BRANCH  11  12
HETATM   12  C   UNL     1      23.850  49.834  47.849  1.00  0.00     0.061 C 
BRANCH  12  13
HETATM   13  C   UNL     1      22.367  50.021  48.109  1.00  0.00    -0.023 A 
HETATM   14  C   UNL     1      21.423  49.023  47.802  1.00  0.00     0.077 A 
HETATM   15  C   UNL     1      20.067  49.231  48.098  1.00  0.00     0.074 A 
HETATM   16  C   UNL     1      19.646  50.419  48.703  1.00  0.00     0.070 A 
HETATM   17  C   UNL     1      20.585  51.396  49.023  1.00  0.00     0.037 A 
HETATM   18  C   UNL     1      21.933  51.204  48.726  1.00  0.00     0.013 A 
BRANCH  14  19
HETATM   19  O   UNL     1      21.927  47.883  47.232  1.00  0.00    -0.355 OA
HETATM   20  C   UNL     1      21.013  46.853  46.884  1.00  0.00     0.210 C 
ENDBRANCH  14  19
BRANCH  16  21
HETATM   21  O   UNL     1      18.358  50.734  49.046  1.00  0.00    -0.356 OA
HETATM   22  C   UNL     1      18.130  52.040  49.560  1.00  0.00     0.210 C 
ENDBRANCH  16  21
ENDBRANCH  12  13
ENDBRANCH  11  12
ENDBRANCH   8  11
ENDBRANCH   2   7
BRANCH   1  23
HETATM   23  N   UNL     1      26.157  45.073  52.012  1.00  0.00    -0.321 N 
HETATM   24  C   UNL     1      25.869  44.952  53.361  1.00  0.00     0.265 C 
HETATM   25  O   UNL     1      24.827  44.484  53.809  1.00  0.00    -0.267 OA
HETATM   26  H   UNL     1      27.145  45.155  51.797  1.00  0.00     0.169 HD
BRANCH  24  27
HETATM   27  C   UNL     1      27.044  45.303  54.264  1.00  0.00     0.097 C 
HETATM   28  C   UNL     1      27.143  46.522  54.848  1.00  0.00     0.064 C 
HETATM   29  C   UNL     1      26.203  47.664  54.559  1.00  0.00     0.078 C 
HETATM   30  O   UNL     1      28.128  46.910  55.746  1.00  0.00    -0.353 OA
HETATM   31  C   UNL     1      28.876  45.870  56.374  1.00  0.00     0.185 C 
HETATM   32  C   UNL     1      29.521  44.960  55.351  1.00  0.00     0.106 C 
HETATM   33  S   UNL     1      28.214  44.020  54.530  1.00  0.00    -0.120 SA
ENDBRANCH  24  27
ENDBRANCH   1  23
TORSDOF 8
ENDMDL
MODEL 5
REMARK VINA RESULT:      -8.3      3.905      8.981
REMARK  8 active torsions:
REMARK  status: ('A' for Active; 'I' for Inactive)
REMARK    1  A    between atoms: C_7  and  C_8 
REMARK       I    between atoms: C_8  and  N_9 
REMARK    2  A    between atoms: N_9  and  C_10 
REMARK    3  A    between atoms: C_11  and  C_12 
REMARK       I    between atoms: C_12  and  N_13 
REMARK    4  A    between atoms: N_13  and  C_14 
REMARK    5  A    between atoms: C_14  and  C_15 
REMARK    6  A    between atoms: C_15  and  C_16 
REMARK    7  A    between atoms: C_17  and  O_18 
REMARK    8  A    between atoms: C_21  and  O_22 
ROOT
HETATM    1  C   UNL     1      29.146  43.408  53.409  1.00  0.00     0.050 A 
HETATM    2  C   UNL     1      28.361  44.457  53.912  1.00  0.00     0.058 A 
HETATM    3  C   UNL     1      28.743  45.108  55.102  1.00  0.00     0.019 A 
HETATM    4  C   UNL     1      29.884  44.707  55.797  1.00  0.00     0.001 A 
HETATM    5  C   UNL     1      30.632  43.632  55.330  1.00  0.00     0.002 A 
HETATM    6  C   UNL     1      30.259  42.979  54.152  1.00  0.00     0.030 A 
ENDROOT
BRANCH   2   7
HETATM    7  C   UNL     1      26.998  44.767  53.405  1.00  0.00     0.253 C 
HETATM    8  N   UNL     1      26.850  46.030  52.870  1.00  0.00    -0.356 N 
HETATM    9  H   UNL     1      27.685  46.521  52.577  1.00  0.00     0.162 HD
HETATM   10  O   UNL     1      26.084  43.966  53.559  1.00  0.00    -0.268 OA
BRANCH   8  11
HETATM   11  C   UNL     1      25.558  46.565  52.491  1.00  0.00     0.127 C 
BRANCH  11  12
HETATM   12  C   UNL     1      25.588  47.393  51.206  1.00  0.00     0.061 C 
BRANCH  12  13
HETATM   13  C   UNL     1      24.485  46.959  50.260  1.00  0.00    -0.023 A 
HETATM   14  C   UNL     1      23.798  47.876  49.442  1.00  0.00     0.077 A 
HETATM   15  C   UNL     1      22.812  47.418  48.555  1.00  0.00     0.074 A 
HETATM   16  C   UNL     1      22.509  46.056  48.472  1.00  0.00     0.070 A 
HETATM   17  C   UNL     1      23.204  45.148  49.269  1.00  0.00     0.037 A 
HETATM   18  C   UNL     1      24.180  45.593  50.159  1.00  0.00     0.013 A 
BRANCH  14  19
HETATM   19  O   UNL     1      24.175  49.187  49.573  1.00  0.00    -0.355 OA
HETATM   20  C   UNL     1      24.376  49.944  48.388  1.00  0.00     0.210 C 
ENDBRANCH  14  19
BRANCH  16  21
HETATM   21  O   UNL     1      21.577  45.488  47.645  1.00  0.00    -0.356 OA
HETATM   22  C   UNL     1      21.051  46.307  46.609  1.00  0.00     0.210 C 
ENDBRANCH  16  21
ENDBRANCH  12  13
ENDBRANCH  11  12
ENDBRANCH   8  11
ENDBRANCH   2   7
BRANCH   1  23
HETATM   23  N   UNL     1      28.928  42.730  52.193  1.00  0.00    -0.321 N 
HETATM   24  C   UNL     1      28.160  41.590  52.034  1.00  0.00     0.265 C 
HETATM   25  O   UNL     1      27.519  41.053  52.933  1.00  0.00    -0.267 OA
HETATM   26  H   UNL     1      29.117  43.234  51.333  1.00  0.00     0.169 HD
BRANCH  24  27
HETATM   27  C   UNL     1      28.039  41.139  50.584  1.00  0.00     0.097 C 
HETATM   28  C   UNL     1      27.523  41.956  49.634  1.00  0.00     0.064 C 
HETATM   29  C   UNL     1      26.907  43.299  49.932  1.00  0.00     0.078 C 
HETATM   30  O   UNL     1      27.444  41.669  48.278  1.00  0.00    -0.353 OA
HETATM   31  C   UNL     1      28.272  40.613  47.791  1.00  0.00     0.185 C 
HETATM   32  C   UNL     1      28.024  39.326  48.547  1.00  0.00     0.106 C 
HETATM   33  S   UNL     1      28.652  39.531  50.230  1.00  0.00    -0.120 SA
ENDBRANCH  24  27
ENDBRANCH   1  23
TORSDOF 8
ENDMDL
MODEL 6
REMARK VINA RESULT:      -7.7      4.656      9.843
REMARK  8 active torsions:
REMARK  status: ('A' for Active; 'I' for Inactive)
REMARK    1  A    between atoms: C_7  and  C_8 
REMARK       I    between atoms: C_8  and  N_9 
REMARK    2  A    between atoms: N_9  and  C_10 
REMARK    3  A    between atoms: C_11  and  C_12 
REMARK       I    between atoms: C_12  and  N_13 
REMARK    4  A    between atoms: N_13  and  C_14 
REMARK    5  A    between atoms: C_14  and  C_15 
REMARK    6  A    between atoms: C_15  and  C_16 
REMARK    7  A    between atoms: C_17  and  O_18 
REMARK    8  A    between atoms: C_21  and  O_22 
ROOT
HETATM    1  C   UNL     1      28.684  42.418  52.193  1.00  0.00     0.050 A 
HETATM    2  C   UNL     1      28.113  43.699  52.206  1.00  0.00     0.058 A 
HETATM    3  C   UNL     1      28.228  44.505  53.357  1.00  0.00     0.019 A 
HETATM    4  C   UNL     1      28.887  44.033  54.492  1.00  0.00     0.001 A 
HETATM    5  C   UNL     1      29.407  42.743  54.499  1.00  0.00     0.002 A 
HETATM    6  C   UNL     1      29.295  41.937  53.364  1.00  0.00     0.030 A 
ENDROOT
BRANCH   2   7
HETATM    7  C   UNL     1      27.163  44.176  51.166  1.00  0.00     0.253 C 
HETATM    8  N   UNL     1      25.995  44.724  51.654  1.00  0.00    -0.356 N 
HETATM    9  H   UNL     1      25.986  45.044  52.614  1.00  0.00     0.162 HD
HETATM   10  O   UNL     1      27.401  43.990  49.979  1.00  0.00    -0.268 OA
BRANCH   8  11
HETATM   11  C   UNL     1      24.886  45.079  50.792  1.00  0.00     0.127 C 
BRANCH  11  12
HETATM   12  C   UNL     1      24.929  46.525  50.297  1.00  0.00     0.061 C 
BRANCH  12  13
HETATM   13  C   UNL     1      23.737  46.826  49.408  1.00  0.00    -0.023 A 
HETATM   14  C   UNL     1      23.417  48.136  49.005  1.00  0.00     0.077 A 
HETATM   15  C   UNL     1      22.326  48.356  48.150  1.00  0.00     0.074 A 
HETATM   16  C   UNL     1      21.558  47.284  47.688  1.00  0.00     0.070 A 
HETATM   17  C   UNL     1      21.889  45.986  48.073  1.00  0.00     0.037 A 
HETATM   18  C   UNL     1      22.965  45.757  48.928  1.00  0.00     0.013 A 
BRANCH  14  19
HETATM   19  O   UNL     1      24.236  49.123  49.488  1.00  0.00    -0.355 OA
HETATM   20  C   UNL     1      25.083  49.795  48.566  1.00  0.00     0.210 C 
ENDBRANCH  14  19
BRANCH  16  21
HETATM   21  O   UNL     1      20.479  47.370  46.848  1.00  0.00    -0.356 OA
HETATM   22  C   UNL     1      19.702  48.558  46.918  1.00  0.00     0.210 C 
ENDBRANCH  16  21
ENDBRANCH  12  13
ENDBRANCH  11  12
ENDBRANCH   8  11
ENDBRANCH   2   7
BRANCH   1  23
HETATM   23  N   UNL     1      28.717  41.545  51.087  1.00  0.00    -0.321 N 
HETATM   24  C   UNL     1      27.742  40.617  50.765  1.00  0.00     0.265 C 
HETATM   25  O   UNL     1      26.689  40.475  51.379  1.00  0.00    -0.267 OA
HETATM   26  H   UNL     1      29.349  41.773  50.326  1.00  0.00     0.169 HD
BRANCH  24  27
HETATM   27  C   UNL     1      28.015  39.880  49.460  1.00  0.00     0.097 C 
HETATM   28  C   UNL     1      28.807  38.780  49.426  1.00  0.00     0.064 C 
HETATM   29  C   UNL     1      29.587  38.275  50.612  1.00  0.00     0.078 C 
HETATM   30  O   UNL     1      29.052  37.996  48.307  1.00  0.00    -0.353 OA
HETATM   31  C   UNL     1      28.145  38.130  47.213  1.00  0.00     0.185 C 
HETATM   32  C   UNL     1      28.047  39.568  46.752  1.00  0.00     0.106 C 
HETATM   33  S   UNL     1      27.202  40.515  48.039  1.00  0.00    -0.120 SA
ENDBRANCH  24  27
ENDBRANCH   1  23
TORSDOF 8
ENDMDL
MODEL 7
REMARK VINA RESULT:      -7.7      3.271      9.121
REMARK  8 active torsions:
REMARK  status: ('A' for Active; 'I' for Inactive)
REMARK    1  A    between atoms: C_7  and  C_8 
REMARK       I    between atoms: C_8  and  N_9 
REMARK    2  A    between atoms: N_9  and  C_10 
REMARK    3  A    between atoms: C_11  and  C_12 
REMARK       I    between atoms: C_12  and  N_13 
REMARK    4  A    between atoms: N_13  and  C_14 
REMARK    5  A    between atoms: C_14  and  C_15 
REMARK    6  A    between atoms: C_15  and  C_16 
REMARK    7  A    between atoms: C_17  and  O_18 
REMARK    8  A    between atoms: C_21  and  O_22 
ROOT
HETATM    1  C   UNL     1      27.533  43.157  51.186  1.00  0.00     0.050 A 
HETATM    2  C   UNL     1      26.645  43.622  50.205  1.00  0.00     0.058 A 
HETATM    3  C   UNL     1      26.211  42.752  49.185  1.00  0.00     0.019 A 
HETATM    4  C   UNL     1      26.671  41.436  49.130  1.00  0.00     0.001 A 
HETATM    5  C   UNL     1      27.592  40.989  50.070  1.00  0.00     0.002 A 
HETATM    6  C   UNL     1      28.030  41.846  51.083  1.00  0.00     0.030 A 
ENDROOT
BRANCH   2   7
HETATM    7  C   UNL     1      26.323  45.062  50.017  1.00  0.00     0.253 C 
HETATM    8  N   UNL     1      25.146  45.475  50.603  1.00  0.00    -0.356 N 
HETATM    9  H   UNL     1      24.758  44.904  51.343  1.00  0.00     0.162 HD
HETATM   10  O   UNL     1      27.032  45.767  49.308  1.00  0.00    -0.268 OA
BRANCH   8  11
HETATM   11  C   UNL     1      24.588  46.794  50.377  1.00  0.00     0.127 C 
BRANCH  11  12
HETATM   12  C   UNL     1      23.852  46.930  49.044  1.00  0.00     0.061 C 
BRANCH  12  13
HETATM   13  C   UNL     1      23.112  48.252  48.969  1.00  0.00    -0.023 A 
HETATM   14  C   UNL     1      23.789  49.487  48.962  1.00  0.00     0.077 A 
HETATM   15  C   UNL     1      23.059  50.681  48.852  1.00  0.00     0.074 A 
HETATM   16  C   UNL     1      21.666  50.655  48.743  1.00  0.00     0.070 A 
HETATM   17  C   UNL     1      21.001  49.430  48.732  1.00  0.00     0.037 A 
HETATM   18  C   UNL     1      21.715  48.239  48.848  1.00  0.00     0.013 A 
BRANCH  14  19
HETATM   19  O   UNL     1      25.154  49.417  49.051  1.00  0.00    -0.355 OA
HETATM   20  C   UNL     1      25.919  49.944  47.975  1.00  0.00     0.210 C 
ENDBRANCH  14  19
BRANCH  16  21
HETATM   21  O   UNL     1      20.848  51.747  48.624  1.00  0.00    -0.356 OA
HETATM   22  C   UNL     1      19.543  51.637  49.180  1.00  0.00     0.210 C 
ENDBRANCH  16  21
ENDBRANCH  12  13
ENDBRANCH  11  12
ENDBRANCH   8  11
ENDBRANCH   2   7
BRANCH   1  23
HETATM   23  N   UNL     1      27.979  43.890  52.304  1.00  0.00    -0.321 N 
HETATM   24  C   UNL     1      27.242  44.142  53.448  1.00  0.00     0.265 C 
HETATM   25  O   UNL     1      26.114  43.706  53.657  1.00  0.00    -0.267 OA
HETATM   26  H   UNL     1      28.980  44.024  52.410  1.00  0.00     0.169 HD
BRANCH  24  27
HETATM   27  C   UNL     1      28.024  44.887  54.521  1.00  0.00     0.097 C 
HETATM   28  C   UNL     1      27.610  46.092  54.985  1.00  0.00     0.064 C 
HETATM   29  C   UNL     1      26.449  46.856  54.404  1.00  0.00     0.078 C 
HETATM   30  O   UNL     1      28.207  46.809  56.013  1.00  0.00    -0.353 OA
HETATM   31  C   UNL     1      29.085  46.091  56.878  1.00  0.00     0.185 C 
HETATM   32  C   UNL     1      30.187  45.406  56.099  1.00  0.00     0.106 C 
HETATM   33  S   UNL     1      29.447  44.064  55.140  1.00  0.00    -0.120 SA
ENDBRANCH  24  27
ENDBRANCH   1  23
TORSDOF 8
ENDMDL
MODEL 8
REMARK VINA RESULT:      -7.7      3.490      9.224
REMARK  8 active torsions:
REMARK  status: ('A' for Active; 'I' for Inactive)
REMARK    1  A    between atoms: C_7  and  C_8 
REMARK       I    between atoms: C_8  and  N_9 
REMARK    2  A    between atoms: N_9  and  C_10 
REMARK    3  A    between atoms: C_11  and  C_12 
REMARK       I    between atoms: C_12  and  N_13 
REMARK    4  A    between atoms: N_13  and  C_14 
REMARK    5  A    between atoms: C_14  and  C_15 
REMARK    6  A    between atoms: C_15  and  C_16 
REMARK    7  A    between atoms: C_17  and  O_18 
REMARK    8  A    between atoms: C_21  and  O_22 
ROOT
HETATM    1  C   UNL     1      26.732  44.998  52.005  1.00  0.00     0.050 A 
HETATM    2  C   UNL     1      25.973  46.044  51.459  1.00  0.00     0.058 A 
HETATM    3  C   UNL     1      25.658  47.167  52.250  1.00  0.00     0.019 A 
HETATM    4  C   UNL     1      26.077  47.241  53.578  1.00  0.00     0.001 A 
HETATM    5  C   UNL     1      26.783  46.181  54.137  1.00  0.00     0.002 A 
HETATM    6  C   UNL     1      27.097  45.062  53.360  1.00  0.00     0.030 A 
ENDROOT
BRANCH   2   7
HETATM    7  C   UNL     1      25.252  45.934  50.163  1.00  0.00     0.253 C 
HETATM    8  N   UNL     1      23.932  46.331  50.197  1.00  0.00    -0.356 N 
HETATM    9  H   UNL     1      23.637  46.932  50.956  1.00  0.00     0.162 HD
HETATM   10  O   UNL     1      25.803  45.435  49.189  1.00  0.00    -0.268 OA
BRANCH   8  11
HETATM   11  C   UNL     1      23.032  46.130  49.079  1.00  0.00     0.127 C 
BRANCH  11  12
HETATM   12  C   UNL     1      23.160  47.193  47.987  1.00  0.00     0.061 C 
BRANCH  12  13
HETATM   13  C   UNL     1      22.370  48.436  48.349  1.00  0.00    -0.023 A 
HETATM   14  C   UNL     1      22.833  49.731  48.045  1.00  0.00     0.077 A 
HETATM   15  C   UNL     1      22.044  50.846  48.368  1.00  0.00     0.074 A 
HETATM   16  C   UNL     1      20.800  50.683  48.982  1.00  0.00     0.070 A 
HETATM   17  C   UNL     1      20.336  49.400  49.264  1.00  0.00     0.037 A 
HETATM   18  C   UNL     1      21.114  48.285  48.956  1.00  0.00     0.013 A 
BRANCH  14  19
HETATM   19  O   UNL     1      24.052  49.795  47.424  1.00  0.00    -0.355 OA
HETATM   20  C   UNL     1      25.205  49.969  48.236  1.00  0.00     0.210 C 
ENDBRANCH  14  19
BRANCH  16  21
HETATM   21  O   UNL     1      19.940  51.689  49.338  1.00  0.00    -0.356 OA
HETATM   22  C   UNL     1      18.726  51.304  49.969  1.00  0.00     0.210 C 
ENDBRANCH  16  21
ENDBRANCH  12  13
ENDBRANCH  11  12
ENDBRANCH   8  11
ENDBRANCH   2   7
BRANCH   1  23
HETATM   23  N   UNL     1      27.187  43.862  51.305  1.00  0.00    -0.321 N 
HETATM   24  C   UNL     1      26.474  42.689  51.124  1.00  0.00     0.265 C 
HETATM   25  O   UNL     1      25.321  42.512  51.506  1.00  0.00    -0.267 OA
HETATM   26  H   UNL     1      27.967  43.983  50.668  1.00  0.00     0.169 HD
BRANCH  24  27
HETATM   27  C   UNL     1      27.194  41.672  50.248  1.00  0.00     0.097 C 
HETATM   28  C   UNL     1      28.092  40.803  50.772  1.00  0.00     0.064 C 
HETATM   29  C   UNL     1      28.559  40.847  52.205  1.00  0.00     0.078 C 
HETATM   30  O   UNL     1      28.738  39.791  50.075  1.00  0.00    -0.353 OA
HETATM   31  C   UNL     1      28.169  39.402  48.826  1.00  0.00     0.185 C 
HETATM   32  C   UNL     1      28.030  40.584  47.892  1.00  0.00     0.106 C 
HETATM   33  S   UNL     1      26.746  41.673  48.550  1.00  0.00    -0.120 SA
ENDBRANCH  24  27
ENDBRANCH   1  23
TORSDOF 8
ENDMDL
MODEL 9
REMARK VINA RESULT:      -7.7      4.144      9.568
REMARK  8 active torsions:
REMARK  status: ('A' for Active; 'I' for Inactive)
REMARK    1  A    between atoms: C_7  and  C_8 
REMARK       I    between atoms: C_8  and  N_9 
REMARK    2  A    between atoms: N_9  and  C_10 
REMARK    3  A    between atoms: C_11  and  C_12 
REMARK       I    between atoms: C_12  and  N_13 
REMARK    4  A    between atoms: N_13  and  C_14 
REMARK    5  A    between atoms: C_14  and  C_15 
REMARK    6  A    between atoms: C_15  and  C_16 
REMARK    7  A    between atoms: C_17  and  O_18 
REMARK    8  A    between atoms: C_21  and  O_22 
ROOT
HETATM    1  C   UNL     1      29.300  43.223  53.554  1.00  0.00     0.050 A 
HETATM    2  C   UNL     1      28.453  44.318  53.783  1.00  0.00     0.058 A 
HETATM    3  C   UNL     1      28.716  45.194  54.856  1.00  0.00     0.019 A 
HETATM    4  C   UNL     1      29.800  44.972  55.705  1.00  0.00     0.001 A 
HETATM    5  C   UNL     1      30.608  43.857  55.512  1.00  0.00     0.002 A 
HETATM    6  C   UNL     1      30.353  42.982  54.453  1.00  0.00     0.030 A 
ENDROOT
BRANCH   2   7
HETATM    7  C   UNL     1      27.133  44.478  53.117  1.00  0.00     0.253 C 
HETATM    8  N   UNL     1      26.999  45.624  52.362  1.00  0.00    -0.356 N 
HETATM    9  H   UNL     1      27.842  46.095  52.060  1.00  0.00     0.162 HD
HETATM   10  O   UNL     1      26.233  43.676  53.329  1.00  0.00    -0.268 OA
BRANCH   8  11
HETATM   11  C   UNL     1      25.731  46.030  51.788  1.00  0.00     0.127 C 
BRANCH  11  12
HETATM   12  C   UNL     1      25.580  45.666  50.311  1.00  0.00     0.061 C 
BRANCH  12  13
HETATM   13  C   UNL     1      24.368  46.352  49.708  1.00  0.00    -0.023 A 
HETATM   14  C   UNL     1      23.331  45.628  49.090  1.00  0.00     0.077 A 
HETATM   15  C   UNL     1      22.212  46.308  48.583  1.00  0.00     0.074 A 
HETATM   16  C   UNL     1      22.115  47.698  48.693  1.00  0.00     0.070 A 
HETATM   17  C   UNL     1      23.134  48.409  49.324  1.00  0.00     0.037 A 
HETATM   18  C   UNL     1      24.253  47.745  49.824  1.00  0.00     0.013 A 
BRANCH  14  19
HETATM   19  O   UNL     1      23.499  44.269  49.045  1.00  0.00    -0.355 OA
HETATM   20  C   UNL     1      22.683  43.469  49.889  1.00  0.00     0.210 C 
ENDBRANCH  14  19
BRANCH  16  21
HETATM   21  O   UNL     1      21.076  48.470  48.247  1.00  0.00    -0.356 OA
HETATM   22  C   UNL     1      20.326  47.967  47.148  1.00  0.00     0.210 C 
ENDBRANCH  16  21
ENDBRANCH  12  13
ENDBRANCH  11  12
ENDBRANCH   8  11
ENDBRANCH   2   7
BRANCH   1  23
HETATM   23  N   UNL     1      29.203  42.322  52.474  1.00  0.00    -0.321 N 
HETATM   24  C   UNL     1      28.472  41.147  52.470  1.00  0.00     0.265 C 
HETATM   25  O   UNL     1      27.764  40.767  53.398  1.00  0.00    -0.267 OA
HETATM   26  H   UNL     1      29.458  42.663  51.553  1.00  0.00     0.169 HD
BRANCH  24  27
HETATM   27  C   UNL     1      28.489  40.428  51.128  1.00  0.00     0.097 C 
HETATM   28  C   UNL     1      27.843  40.937  50.050  1.00  0.00     0.064 C 
HETATM   29  C   UNL     1      26.954  42.152  50.106  1.00  0.00     0.078 C 
HETATM   30  O   UNL     1      27.863  40.401  48.770  1.00  0.00    -0.353 OA
HETATM   31  C   UNL     1      28.905  39.472  48.474  1.00  0.00     0.185 C 
HETATM   32  C   UNL     1      28.908  38.318  49.453  1.00  0.00     0.106 C 
HETATM   33  S   UNL     1      29.431  38.948  51.065  1.00  0.00    -0.120 SA
ENDBRANCH  24  27
ENDBRANCH   1  23
TORSDOF 8
ENDMDL
MODEL 10
REMARK VINA RESULT:      -7.6      2.797      9.695
REMARK  8 active torsions:
REMARK  status: ('A' for Active; 'I' for Inactive)
REMARK    1  A    between atoms: C_7  and  C_8 
REMARK       I    between atoms: C_8  and  N_9 
REMARK    2  A    between atoms: N_9  and  C_10 
REMARK    3  A    between atoms: C_11  and  C_12 
REMARK       I    between atoms: C_12  and  N_13 
REMARK    4  A    between atoms: N_13  and  C_14 
REMARK    5  A    between atoms: C_14  and  C_15 
REMARK    6  A    between atoms: C_15  and  C_16 
REMARK    7  A    between atoms: C_17  and  O_18 
REMARK    8  A    between atoms: C_21  and  O_22 
ROOT
HETATM    1  C   UNL     1      25.367  43.285  51.181  1.00  0.00     0.050 A 
HETATM    2  C   UNL     1      24.418  44.213  50.726  1.00  0.00     0.058 A 
HETATM    3  C   UNL     1      23.509  43.845  49.714  1.00  0.00     0.019 A 
HETATM    4  C   UNL     1      23.555  42.572  49.145  1.00  0.00     0.001 A 
HETATM    5  C   UNL     1      24.530  41.670  49.557  1.00  0.00     0.002 A 
HETATM    6  C   UNL     1      25.437  42.028  50.557  1.00  0.00     0.030 A 
ENDROOT
BRANCH   2   7
HETATM    7  C   UNL     1      24.469  45.661  51.063  1.00  0.00     0.253 C 
HETATM    8  N   UNL     1      24.129  46.510  50.032  1.00  0.00    -0.356 N 
HETATM    9  H   UNL     1      23.593  46.131  49.262  1.00  0.00     0.162 HD
HETATM   10  O   UNL     1      24.879  46.026  52.158  1.00  0.00    -0.268 OA
BRANCH   8  11
HETATM   11  C   UNL     1      24.290  47.947  50.125  1.00  0.00     0.127 C 
BRANCH  11  12
HETATM   12  C   UNL     1      24.328  48.652  48.768  1.00  0.00     0.061 C 
BRANCH  12  13
HETATM   13  C   UNL     1      22.978  49.262  48.441  1.00  0.00    -0.023 A 
HETATM   14  C   UNL     1      21.960  48.527  47.804  1.00  0.00     0.077 A 
HETATM   15  C   UNL     1      20.715  49.128  47.559  1.00  0.00     0.074 A 
HETATM   16  C   UNL     1      20.475  50.448  47.949  1.00  0.00     0.070 A 
HETATM   17  C   UNL     1      21.478  51.167  48.596  1.00  0.00     0.037 A 
HETATM   18  C   UNL     1      22.720  50.583  48.838  1.00  0.00     0.013 A 
BRANCH  14  19
HETATM   19  O   UNL     1      22.276  47.235  47.478  1.00  0.00    -0.355 OA
HETATM   20  C   UNL     1      21.290  46.234  47.692  1.00  0.00     0.210 C 
ENDBRANCH  14  19
BRANCH  16  21
HETATM   21  O   UNL     1      19.305  51.139  47.772  1.00  0.00    -0.356 OA
HETATM   22  C   UNL     1      19.161  52.356  48.493  1.00  0.00     0.210 C 
ENDBRANCH  16  21
ENDBRANCH  12  13
ENDBRANCH  11  12
ENDBRANCH   8  11
ENDBRANCH   2   7
BRANCH   1  23
HETATM   23  N   UNL     1      26.275  43.492  52.238  1.00  0.00    -0.321 N 
HETATM   24  C   UNL     1      27.535  44.052  52.119  1.00  0.00     0.265 C 
HETATM   25  O   UNL     1      28.002  44.495  51.074  1.00  0.00    -0.267 OA
HETATM   26  H   UNL     1      25.906  43.482  53.183  1.00  0.00     0.169 HD
BRANCH  24  27
HETATM   27  C   UNL     1      28.249  44.227  53.453  1.00  0.00     0.097 C 
HETATM   28  C   UNL     1      29.177  43.335  53.877  1.00  0.00     0.064 C 
HETATM   29  C   UNL     1      29.486  42.046  53.160  1.00  0.00     0.078 C 
HETATM   30  O   UNL     1      29.936  43.448  55.034  1.00  0.00    -0.353 OA
HETATM   31  C   UNL     1      30.014  44.741  55.633  1.00  0.00     0.185 C 
HETATM   32  C   UNL     1      28.637  45.292  55.933  1.00  0.00     0.106 C 
HETATM   33  S   UNL     1      27.827  45.670  54.362  1.00  0.00    -0.120 SA
ENDBRANCH  24  27
ENDBRANCH   1  23
TORSDOF 8
ENDMDL
