MODEL 1
REMARK VINA RESULT:      -8.4      0.000      0.000
REMARK  5 active torsions:
REMARK  status: ('A' for Active; 'I' for Inactive)
REMARK    1  A    between atoms: C_4  and  O_5 
REMARK    2  A    between atoms: O_5  and  C_6 
REMARK    3  A    between atoms: C_6  and  C_7 
REMARK    4  A    between atoms: C_11  and  N_12 
REMARK       I    between atoms: N_12  and  C_13 
REMARK       I    between atoms: C_13  and  N_14 
REMARK    5  A    between atoms: N_14  and  C_15 
ROOT
HETATM    1  N   UNL     1      25.067  45.772  51.675  1.00  0.00    -0.306 N 
HETATM    2  C   UNL     1      24.886  46.411  50.480  1.00  0.00     0.325 C 
HETATM    3  N   UNL     1      25.443  47.648  50.350  1.00  0.00    -0.305 N 
HETATM    4  O   UNL     1      24.168  45.849  49.657  1.00  0.00    -0.247 OA
HETATM    5  H   UNL     1      24.332  45.089  51.819  1.00  0.00     0.171 HD
HETATM    6  H   UNL     1      25.985  47.992  51.122  1.00  0.00     0.171 HD
ENDROOT
BRANCH   1   7
HETATM    7  C   UNL     1      25.917  45.996  52.772  1.00  0.00     0.069 A 
HETATM    8  C   UNL     1      26.922  45.048  53.016  1.00  0.00     0.096 A 
HETATM    9  C   UNL     1      27.745  45.138  54.140  1.00  0.00     0.046 A 
HETATM   10  C   UNL     1      27.630  46.235  55.000  1.00  0.00    -0.059 A 
HETATM   11  C   UNL     1      28.462  46.318  56.245  1.00  0.00     0.048 C 
HETATM   12  C   UNL     1      26.688  47.230  54.709  1.00  0.00     0.009 A 
HETATM   13  C   UNL     1      25.846  47.119  53.596  1.00  0.00     0.033 A 
BRANCH   8  14
HETATM   14  O   UNL     1      27.045  43.950  52.201  1.00  0.00    -0.340 OA
BRANCH  14  15
HETATM   15  C   UNL     1      28.311  43.294  52.408  1.00  0.00     0.293 C 
BRANCH  15  16
HETATM   16  C   UNL     1      28.121  41.832  52.778  1.00  0.00     0.408 C 
HETATM   17  F   UNL     1      29.276  41.136  52.688  1.00  0.00    -0.169 F 
HETATM   18  F   UNL     1      27.680  41.722  54.053  1.00  0.00    -0.169 F 
HETATM   19  F   UNL     1      27.208  41.233  51.982  1.00  0.00    -0.169 F 
ENDBRANCH  15  16
ENDBRANCH  14  15
ENDBRANCH   8  14
ENDBRANCH   1   7
BRANCH   3  20
HETATM   20  C   UNL     1      25.253  48.554  49.320  1.00  0.00     0.086 A 
HETATM   21  C   UNL     1      24.103  49.043  48.631  1.00  0.00     0.079 A 
HETATM   22  C   UNL     1      22.660  48.761  48.837  1.00  0.00     0.075 C 
HETATM   23  N   UNL     1      24.441  49.943  47.695  1.00  0.00    -0.177 NA
HETATM   24  N   UNL     1      25.769  50.036  47.789  1.00  0.00    -0.280 N 
HETATM   25  H   UNL     1      26.246  50.675  47.160  1.00  0.00     0.189 HD
HETATM   26  C   UNL     1      26.313  49.241  48.756  1.00  0.00     0.052 A 
HETATM   27  C   UNL     1      27.774  49.206  48.998  1.00  0.00     0.072 C 
ENDBRANCH   3  20
TORSDOF 5
ENDMDL
MODEL 2
REMARK VINA RESULT:      -8.1      2.022      3.719
REMARK  5 active torsions:
REMARK  status: ('A' for Active; 'I' for Inactive)
REMARK    1  A    between atoms: C_4  and  O_5 
REMARK    2  A    between atoms: O_5  and  C_6 
REMARK    3  A    between atoms: C_6  and  C_7 
REMARK    4  A    between atoms: C_11  and  N_12 
REMARK       I    between atoms: N_12  and  C_13 
REMARK       I    between atoms: C_13  and  N_14 
REMARK    5  A    between atoms: N_14  and  C_15 
ROOT
HETATM    1  N   UNL     1      25.678  45.525  52.235  1.00  0.00    -0.306 N 
HETATM    2  C   UNL     1      25.430  46.756  51.695  1.00  0.00     0.325 C 
HETATM    3  N   UNL     1      25.424  46.845  50.335  1.00  0.00    -0.305 N 
HETATM    4  O   UNL     1      25.316  47.691  52.483  1.00  0.00    -0.247 OA
HETATM    5  H   UNL     1      26.042  45.625  53.176  1.00  0.00     0.171 HD
HETATM    6  H   UNL     1      25.558  45.995  49.818  1.00  0.00     0.171 HD
ENDROOT
BRANCH   1   7
HETATM    7  C   UNL     1      25.705  44.223  51.703  1.00  0.00     0.069 A 
HETATM    8  C   UNL     1      26.909  43.509  51.800  1.00  0.00     0.096 A 
HETATM    9  C   UNL     1      27.054  42.253  51.211  1.00  0.00     0.046 A 
HETATM   10  C   UNL     1      25.960  41.648  50.583  1.00  0.00    -0.059 A 
HETATM   11  C   UNL     1      26.114  40.326  49.891  1.00  0.00     0.048 C 
HETATM   12  C   UNL     1      24.732  42.320  50.564  1.00  0.00     0.009 A 
HETATM   13  C   UNL     1      24.600  43.593  51.131  1.00  0.00     0.033 A 
BRANCH   8  14
HETATM   14  O   UNL     1      28.005  44.086  52.393  1.00  0.00    -0.340 OA
BRANCH  14  15
HETATM   15  C   UNL     1      28.216  43.554  53.714  1.00  0.00     0.293 C 
BRANCH  15  16
HETATM   16  C   UNL     1      29.476  42.705  53.773  1.00  0.00     0.408 C 
HETATM   17  F   UNL     1      30.116  42.836  54.956  1.00  0.00    -0.169 F 
HETATM   18  F   UNL     1      29.168  41.395  53.622  1.00  0.00    -0.169 F 
HETATM   19  F   UNL     1      30.342  43.033  52.789  1.00  0.00    -0.169 F 
ENDBRANCH  15  16
ENDBRANCH  14  15
ENDBRANCH   8  14
ENDBRANCH   1   7
BRANCH   3  20
HETATM   20  C   UNL     1      25.375  47.995  49.565  1.00  0.00     0.086 A 
HETATM   21  C   UNL     1      26.363  48.901  49.076  1.00  0.00     0.079 A 
HETATM   22  C   UNL     1      27.842  48.878  49.199  1.00  0.00     0.075 C 
HETATM   23  N   UNL     1      25.807  49.881  48.347  1.00  0.00    -0.177 NA
HETATM   24  N   UNL     1      24.501  49.603  48.359  1.00  0.00    -0.280 N 
HETATM   25  H   UNL     1      23.879  50.228  47.857  1.00  0.00     0.189 HD
HETATM   26  C   UNL     1      24.182  48.476  49.059  1.00  0.00     0.052 A 
HETATM   27  C   UNL     1      22.779  48.019  49.189  1.00  0.00     0.072 C 
ENDBRANCH   3  20
TORSDOF 5
ENDMDL
MODEL 3
REMARK VINA RESULT:      -7.9      4.714      7.385
REMARK  5 active torsions:
REMARK  status: ('A' for Active; 'I' for Inactive)
REMARK    1  A    between atoms: C_4  and  O_5 
REMARK    2  A    between atoms: O_5  and  C_6 
REMARK    3  A    between atoms: C_6  and  C_7 
REMARK    4  A    between atoms: C_11  and  N_12 
REMARK       I    between atoms: N_12  and  C_13 
REMARK       I    between atoms: C_13  and  N_14 
REMARK    5  A    between atoms: N_14  and  C_15 
ROOT
HETATM    1  N   UNL     1      26.903  41.778  52.057  1.00  0.00    -0.306 N 
HETATM    2  C   UNL     1      26.973  40.787  51.118  1.00  0.00     0.325 C 
HETATM    3  N   UNL     1      28.215  40.337  50.785  1.00  0.00    -0.305 N 
HETATM    4  O   UNL     1      25.914  40.446  50.596  1.00  0.00    -0.247 OA
HETATM    5  H   UNL     1      26.038  42.296  51.952  1.00  0.00     0.171 HD
HETATM    6  H   UNL     1      28.995  40.730  51.282  1.00  0.00     0.171 HD
ENDROOT
BRANCH   1   7
HETATM    7  C   UNL     1      27.829  42.312  52.970  1.00  0.00     0.069 A 
HETATM    8  C   UNL     1      27.499  43.525  53.593  1.00  0.00     0.096 A 
HETATM    9  C   UNL     1      28.402  44.177  54.434  1.00  0.00     0.046 A 
HETATM   10  C   UNL     1      29.629  43.576  54.735  1.00  0.00    -0.059 A 
HETATM   11  C   UNL     1      30.637  44.289  55.587  1.00  0.00     0.048 C 
HETATM   12  C   UNL     1      29.924  42.323  54.187  1.00  0.00     0.009 A 
HETATM   13  C   UNL     1      29.026  41.687  53.320  1.00  0.00     0.033 A 
BRANCH   8  14
HETATM   14  O   UNL     1      26.311  44.148  53.300  1.00  0.00    -0.340 OA
BRANCH  14  15
HETATM   15  C   UNL     1      26.530  45.323  52.496  1.00  0.00     0.293 C 
BRANCH  15  16
HETATM   16  C   UNL     1      25.994  46.569  53.182  1.00  0.00     0.408 C 
HETATM   17  F   UNL     1      26.963  47.489  53.384  1.00  0.00    -0.169 F 
HETATM   18  F   UNL     1      25.036  47.150  52.421  1.00  0.00    -0.169 F 
HETATM   19  F   UNL     1      25.438  46.277  54.378  1.00  0.00    -0.169 F 
ENDBRANCH  15  16
ENDBRANCH  14  15
ENDBRANCH   8  14
ENDBRANCH   1   7
BRANCH   3  20
HETATM   20  C   UNL     1      28.553  39.480  49.751  1.00  0.00     0.086 A 
HETATM   21  C   UNL     1      28.330  39.494  48.342  1.00  0.00     0.079 A 
HETATM   22  C   UNL     1      27.673  40.506  47.476  1.00  0.00     0.075 C 
HETATM   23  N   UNL     1      28.876  38.420  47.751  1.00  0.00    -0.177 NA
HETATM   24  N   UNL     1      29.443  37.743  48.753  1.00  0.00    -0.280 N 
HETATM   25  H   UNL     1      29.924  36.878  48.528  1.00  0.00     0.189 HD
HETATM   26  C   UNL     1      29.298  38.336  49.973  1.00  0.00     0.052 A 
HETATM   27  C   UNL     1      29.853  37.723  51.202  1.00  0.00     0.072 C 
ENDBRANCH   3  20
TORSDOF 5
ENDMDL
MODEL 4
REMARK VINA RESULT:      -7.8      3.177      6.508
REMARK  5 active torsions:
REMARK  status: ('A' for Active; 'I' for Inactive)
REMARK    1  A    between atoms: C_4  and  O_5 
REMARK    2  A    between atoms: O_5  and  C_6 
REMARK    3  A    between atoms: C_6  and  C_7 
REMARK    4  A    between atoms: C_11  and  N_12 
REMARK       I    between atoms: N_12  and  C_13 
REMARK       I    between atoms: C_13  and  N_14 
REMARK    5  A    between atoms: N_14  and  C_15 
ROOT
HETATM    1  N   UNL     1      26.144  44.276  53.021  1.00  0.00    -0.306 N 
HETATM    2  C   UNL     1      26.997  44.001  54.053  1.00  0.00     0.325 C 
HETATM    3  N   UNL     1      28.162  44.707  54.098  1.00  0.00    -0.305 N 
HETATM    4  O   UNL     1      26.676  43.084  54.805  1.00  0.00    -0.247 OA
HETATM    5  H   UNL     1      25.540  43.481  52.848  1.00  0.00     0.171 HD
HETATM    6  H   UNL     1      28.299  45.412  53.396  1.00  0.00     0.171 HD
ENDROOT
BRANCH   1   7
HETATM    7  C   UNL     1      26.070  45.317  52.078  1.00  0.00     0.069 A 
HETATM    8  C   UNL     1      26.625  45.082  50.811  1.00  0.00     0.096 A 
HETATM    9  C   UNL     1      26.685  46.092  49.850  1.00  0.00     0.046 A 
HETATM   10  C   UNL     1      26.110  47.339  50.114  1.00  0.00    -0.059 A 
HETATM   11  C   UNL     1      26.220  48.456  49.118  1.00  0.00     0.048 C 
HETATM   12  C   UNL     1      25.476  47.548  51.344  1.00  0.00     0.009 A 
HETATM   13  C   UNL     1      25.444  46.540  52.316  1.00  0.00     0.033 A 
BRANCH   8  14
HETATM   14  O   UNL     1      27.215  43.874  50.531  1.00  0.00    -0.340 OA
BRANCH  14  15
HETATM   15  C   UNL     1      26.410  43.108  49.614  1.00  0.00     0.293 C 
BRANCH  15  16
HETATM   16  C   UNL     1      25.664  41.995  50.330  1.00  0.00     0.408 C 
HETATM   17  F   UNL     1      25.366  40.972  49.499  1.00  0.00    -0.169 F 
HETATM   18  F   UNL     1      26.420  41.493  51.335  1.00  0.00    -0.169 F 
HETATM   19  F   UNL     1      24.512  42.442  50.877  1.00  0.00    -0.169 F 
ENDBRANCH  15  16
ENDBRANCH  14  15
ENDBRANCH   8  14
ENDBRANCH   1   7
BRANCH   3  20
HETATM   20  C   UNL     1      29.249  44.489  54.928  1.00  0.00     0.086 A 
HETATM   21  C   UNL     1      29.674  45.051  56.168  1.00  0.00     0.079 A 
HETATM   22  C   UNL     1      29.034  46.068  57.040  1.00  0.00     0.075 C 
HETATM   23  N   UNL     1      30.816  44.488  56.592  1.00  0.00    -0.177 NA
HETATM   24  N   UNL     1      31.107  43.582  55.655  1.00  0.00    -0.280 N 
HETATM   25  H   UNL     1      31.948  43.028  55.777  1.00  0.00     0.189 HD
HETATM   26  C   UNL     1      30.197  43.524  54.641  1.00  0.00     0.052 A 
HETATM   27  C   UNL     1      30.362  42.585  53.507  1.00  0.00     0.072 C 
ENDBRANCH   3  20
TORSDOF 5
ENDMDL
MODEL 5
REMARK VINA RESULT:      -7.8     11.960     13.738
REMARK  5 active torsions:
REMARK  status: ('A' for Active; 'I' for Inactive)
REMARK    1  A    between atoms: C_4  and  O_5 
REMARK    2  A    between atoms: O_5  and  C_6 
REMARK    3  A    between atoms: C_6  and  C_7 
REMARK    4  A    between atoms: C_11  and  N_12 
REMARK       I    between atoms: N_12  and  C_13 
REMARK       I    between atoms: C_13  and  N_14 
REMARK    5  A    between atoms: N_14  and  C_15 
ROOT
HETATM    1  N   UNL     1      30.878  50.846  39.637  1.00  0.00    -0.306 N 
HETATM    2  C   UNL     1      31.932  51.408  40.303  1.00  0.00     0.325 C 
HETATM    3  N   UNL     1      32.425  50.721  41.372  1.00  0.00    -0.305 N 
HETATM    4  O   UNL     1      32.289  52.522  39.930  1.00  0.00    -0.247 OA
HETATM    5  H   UNL     1      30.353  51.563  39.149  1.00  0.00     0.171 HD
HETATM    6  H   UNL     1      32.013  49.828  41.574  1.00  0.00     0.171 HD
ENDROOT
BRANCH   1   7
HETATM    7  C   UNL     1      30.298  49.565  39.649  1.00  0.00     0.069 A 
HETATM    8  C   UNL     1      29.413  49.265  40.695  1.00  0.00     0.096 A 
HETATM    9  C   UNL     1      28.872  47.987  40.841  1.00  0.00     0.046 A 
HETATM   10  C   UNL     1      29.143  47.004  39.884  1.00  0.00    -0.059 A 
HETATM   11  C   UNL     1      28.621  45.608  40.056  1.00  0.00     0.048 C 
HETATM   12  C   UNL     1      29.954  47.326  38.789  1.00  0.00     0.009 A 
HETATM   13  C   UNL     1      30.518  48.602  38.664  1.00  0.00     0.033 A 
BRANCH   8  14
HETATM   14  O   UNL     1      29.145  50.204  41.661  1.00  0.00    -0.340 OA
BRANCH  14  15
HETATM   15  C   UNL     1      27.900  50.878  41.392  1.00  0.00     0.293 C 
BRANCH  15  16
HETATM   16  C   UNL     1      28.108  52.373  41.221  1.00  0.00     0.408 C 
HETATM   17  F   UNL     1      27.065  53.085  41.701  1.00  0.00    -0.169 F 
HETATM   18  F   UNL     1      29.214  52.775  41.890  1.00  0.00    -0.169 F 
HETATM   19  F   UNL     1      28.280  52.705  39.922  1.00  0.00    -0.169 F 
ENDBRANCH  15  16
ENDBRANCH  14  15
ENDBRANCH   8  14
ENDBRANCH   1   7
BRANCH   3  20
HETATM   20  C   UNL     1      33.356  51.158  42.299  1.00  0.00     0.086 A 
HETATM   21  C   UNL     1      33.260  51.751  43.593  1.00  0.00     0.079 A 
HETATM   22  C   UNL     1      32.074  52.063  44.428  1.00  0.00     0.075 C 
HETATM   23  N   UNL     1      34.475  51.990  44.110  1.00  0.00    -0.177 NA
HETATM   24  N   UNL     1      35.325  51.551  43.179  1.00  0.00    -0.280 N 
HETATM   25  H   UNL     1      36.319  51.636  43.366  1.00  0.00     0.189 HD
HETATM   26  C   UNL     1      34.715  51.027  42.076  1.00  0.00     0.052 A 
HETATM   27  C   UNL     1      35.499  50.500  40.935  1.00  0.00     0.072 C 
ENDBRANCH   3  20
TORSDOF 5
ENDMDL
MODEL 6
REMARK VINA RESULT:      -7.8      3.840      5.276
REMARK  5 active torsions:
REMARK  status: ('A' for Active; 'I' for Inactive)
REMARK    1  A    between atoms: C_4  and  O_5 
REMARK    2  A    between atoms: O_5  and  C_6 
REMARK    3  A    between atoms: C_6  and  C_7 
REMARK    4  A    between atoms: C_11  and  N_12 
REMARK       I    between atoms: N_12  and  C_13 
REMARK       I    between atoms: C_13  and  N_14 
REMARK    5  A    between atoms: N_14  and  C_15 
ROOT
HETATM    1  N   UNL     1      23.291  46.116  48.565  1.00  0.00    -0.306 N 
HETATM    2  C   UNL     1      22.566  47.245  48.304  1.00  0.00     0.325 C 
HETATM    3  N   UNL     1      22.232  48.026  49.370  1.00  0.00    -0.305 N 
HETATM    4  O   UNL     1      22.210  47.415  47.140  1.00  0.00    -0.247 OA
HETATM    5  H   UNL     1      23.154  45.436  47.826  1.00  0.00     0.171 HD
HETATM    6  H   UNL     1      22.576  47.745  50.270  1.00  0.00     0.171 HD
ENDROOT
BRANCH   1   7
HETATM    7  C   UNL     1      24.001  45.661  49.690  1.00  0.00     0.069 A 
HETATM    8  C   UNL     1      25.072  46.448  50.142  1.00  0.00     0.096 A 
HETATM    9  C   UNL     1      25.892  46.022  51.187  1.00  0.00     0.046 A 
HETATM   10  C   UNL     1      25.599  44.831  51.861  1.00  0.00    -0.059 A 
HETATM   11  C   UNL     1      26.504  44.327  52.945  1.00  0.00     0.048 C 
HETATM   12  C   UNL     1      24.478  44.089  51.471  1.00  0.00     0.009 A 
HETATM   13  C   UNL     1      23.676  44.506  50.402  1.00  0.00     0.033 A 
BRANCH   8  14
HETATM   14  O   UNL     1      25.395  47.611  49.487  1.00  0.00    -0.340 OA
BRANCH  14  15
HETATM   15  C   UNL     1      26.550  48.233  50.083  1.00  0.00     0.293 C 
BRANCH  15  16
HETATM   16  C   UNL     1      27.532  48.704  49.023  1.00  0.00     0.408 C 
HETATM   17  F   UNL     1      28.432  49.579  49.524  1.00  0.00    -0.169 F 
HETATM   18  F   UNL     1      28.225  47.653  48.523  1.00  0.00    -0.169 F 
HETATM   19  F   UNL     1      26.899  49.299  47.989  1.00  0.00    -0.169 F 
ENDBRANCH  15  16
ENDBRANCH  14  15
ENDBRANCH   8  14
ENDBRANCH   1   7
BRANCH   3  20
HETATM   20  C   UNL     1      21.366  49.106  49.385  1.00  0.00     0.086 A 
HETATM   21  C   UNL     1      19.969  49.251  49.636  1.00  0.00     0.079 A 
HETATM   22  C   UNL     1      18.948  48.248  50.029  1.00  0.00     0.075 C 
HETATM   23  N   UNL     1      19.588  50.535  49.542  1.00  0.00    -0.177 NA
HETATM   24  N   UNL     1      20.712  51.194  49.250  1.00  0.00    -0.280 N 
HETATM   25  H   UNL     1      20.654  52.200  49.132  1.00  0.00     0.189 HD
HETATM   26  C   UNL     1      21.814  50.395  49.159  1.00  0.00     0.052 A 
HETATM   27  C   UNL     1      23.148  50.952  48.833  1.00  0.00     0.072 C 
ENDBRANCH   3  20
TORSDOF 5
ENDMDL
MODEL 7
REMARK VINA RESULT:      -7.7     16.633     18.172
REMARK  5 active torsions:
REMARK  status: ('A' for Active; 'I' for Inactive)
REMARK    1  A    between atoms: C_4  and  O_5 
REMARK    2  A    between atoms: O_5  and  C_6 
REMARK    3  A    between atoms: C_6  and  C_7 
REMARK    4  A    between atoms: C_11  and  N_12 
REMARK       I    between atoms: N_12  and  C_13 
REMARK       I    between atoms: C_13  and  N_14 
REMARK    5  A    between atoms: N_14  and  C_15 
ROOT
HETATM    1  N   UNL     1      36.952  43.962  63.484  1.00  0.00    -0.306 N 
HETATM    2  C   UNL     1      37.279  45.247  63.815  1.00  0.00     0.325 C 
HETATM    3  N   UNL     1      38.328  45.418  64.669  1.00  0.00    -0.305 N 
HETATM    4  O   UNL     1      36.548  46.133  63.379  1.00  0.00    -0.247 OA
HETATM    5  H   UNL     1      35.982  43.914  63.194  1.00  0.00     0.171 HD
HETATM    6  H   UNL     1      38.819  44.593  64.964  1.00  0.00     0.171 HD
ENDROOT
BRANCH   1   7
HETATM    7  C   UNL     1      37.606  42.727  63.638  1.00  0.00     0.069 A 
HETATM    8  C   UNL     1      37.259  41.945  64.750  1.00  0.00     0.096 A 
HETATM    9  C   UNL     1      37.929  40.755  65.035  1.00  0.00     0.046 A 
HETATM   10  C   UNL     1      38.908  40.280  64.156  1.00  0.00    -0.059 A 
HETATM   11  C   UNL     1      39.681  39.035  64.477  1.00  0.00     0.048 C 
HETATM   12  C   UNL     1      39.193  41.012  62.997  1.00  0.00     0.009 A 
HETATM   13  C   UNL     1      38.538  42.221  62.731  1.00  0.00     0.033 A 
BRANCH   8  14
HETATM   14  O   UNL     1      36.317  42.396  65.641  1.00  0.00    -0.340 OA
BRANCH  14  15
HETATM   15  C   UNL     1      35.038  41.781  65.394  1.00  0.00     0.293 C 
BRANCH  15  16
HETATM   16  C   UNL     1      33.930  42.482  66.163  1.00  0.00     0.408 C 
HETATM   17  F   UNL     1      34.329  43.681  66.641  1.00  0.00    -0.169 F 
HETATM   18  F   UNL     1      32.864  42.701  65.357  1.00  0.00    -0.169 F 
HETATM   19  F   UNL     1      33.501  41.736  67.205  1.00  0.00    -0.169 F 
ENDBRANCH  15  16
ENDBRANCH  14  15
ENDBRANCH   8  14
ENDBRANCH   1   7
BRANCH   3  20
HETATM   20  C   UNL     1      38.733  46.590  65.284  1.00  0.00     0.086 A 
HETATM   21  C   UNL     1      38.074  47.562  66.094  1.00  0.00     0.079 A 
HETATM   22  C   UNL     1      36.682  47.609  66.607  1.00  0.00     0.075 C 
HETATM   23  N   UNL     1      38.916  48.538  66.468  1.00  0.00    -0.177 NA
HETATM   24  N   UNL     1      40.085  48.194  65.922  1.00  0.00    -0.280 N 
HETATM   25  H   UNL     1      40.880  48.805  66.080  1.00  0.00     0.189 HD
HETATM   26  C   UNL     1      40.044  47.028  65.214  1.00  0.00     0.052 A 
HETATM   27  C   UNL     1      41.245  46.496  64.529  1.00  0.00     0.072 C 
ENDBRANCH   3  20
TORSDOF 5
ENDMDL
MODEL 8
REMARK VINA RESULT:      -7.7      2.479      3.784
REMARK  5 active torsions:
REMARK  status: ('A' for Active; 'I' for Inactive)
REMARK    1  A    between atoms: C_4  and  O_5 
REMARK    2  A    between atoms: O_5  and  C_6 
REMARK    3  A    between atoms: C_6  and  C_7 
REMARK    4  A    between atoms: C_11  and  N_12 
REMARK       I    between atoms: N_12  and  C_13 
REMARK       I    between atoms: C_13  and  N_14 
REMARK    5  A    between atoms: N_14  and  C_15 
ROOT
HETATM    1  N   UNL     1      26.347  44.589  54.527  1.00  0.00    -0.306 N 
HETATM    2  C   UNL     1      25.673  44.630  53.338  1.00  0.00     0.325 C 
HETATM    3  N   UNL     1      26.420  44.786  52.209  1.00  0.00    -0.305 N 
HETATM    4  O   UNL     1      24.447  44.605  53.398  1.00  0.00    -0.247 OA
HETATM    5  H   UNL     1      25.732  44.862  55.285  1.00  0.00     0.171 HD
HETATM    6  H   UNL     1      27.417  44.817  52.318  1.00  0.00     0.171 HD
ENDROOT
BRANCH   1   7
HETATM    7  C   UNL     1      27.704  44.435  54.864  1.00  0.00     0.069 A 
HETATM    8  C   UNL     1      28.337  43.246  54.474  1.00  0.00     0.096 A 
HETATM    9  C   UNL     1      29.651  42.967  54.854  1.00  0.00     0.046 A 
HETATM   10  C   UNL     1      30.386  43.921  55.565  1.00  0.00    -0.059 A 
HETATM   11  C   UNL     1      31.777  43.615  56.036  1.00  0.00     0.048 C 
HETATM   12  C   UNL     1      29.786  45.146  55.879  1.00  0.00     0.009 A 
HETATM   13  C   UNL     1      28.458  45.408  55.520  1.00  0.00     0.033 A 
BRANCH   8  14
HETATM   14  O   UNL     1      27.634  42.283  53.793  1.00  0.00    -0.340 OA
BRANCH  14  15
HETATM   15  C   UNL     1      28.471  41.150  53.492  1.00  0.00     0.293 C 
BRANCH  15  16
HETATM   16  C   UNL     1      28.417  40.799  52.014  1.00  0.00     0.408 C 
HETATM   17  F   UNL     1      28.755  41.850  51.235  1.00  0.00    -0.169 F 
HETATM   18  F   UNL     1      29.281  39.795  51.737  1.00  0.00    -0.169 F 
HETATM   19  F   UNL     1      27.184  40.384  51.648  1.00  0.00    -0.169 F 
ENDBRANCH  15  16
ENDBRANCH  14  15
ENDBRANCH   8  14
ENDBRANCH   1   7
BRANCH   3  20
HETATM   20  C   UNL     1      25.965  45.031  50.924  1.00  0.00     0.086 A 
HETATM   21  C   UNL     1      25.858  46.204  50.118  1.00  0.00     0.079 A 
HETATM   22  C   UNL     1      26.267  47.605  50.391  1.00  0.00     0.075 C 
HETATM   23  N   UNL     1      25.353  45.920  48.908  1.00  0.00    -0.177 NA
HETATM   24  N   UNL     1      25.152  44.600  48.934  1.00  0.00    -0.280 N 
HETATM   25  H   UNL     1      24.767  44.163  48.103  1.00  0.00     0.189 HD
HETATM   26  C   UNL     1      25.515  44.008  50.109  1.00  0.00     0.052 A 
HETATM   27  C   UNL     1      25.353  42.551  50.322  1.00  0.00     0.072 C 
ENDBRANCH   3  20
TORSDOF 5
ENDMDL
MODEL 9
REMARK VINA RESULT:      -7.5      2.729      5.427
REMARK  5 active torsions:
REMARK  status: ('A' for Active; 'I' for Inactive)
REMARK    1  A    between atoms: C_4  and  O_5 
REMARK    2  A    between atoms: O_5  and  C_6 
REMARK    3  A    between atoms: C_6  and  C_7 
REMARK    4  A    between atoms: C_11  and  N_12 
REMARK       I    between atoms: N_12  and  C_13 
REMARK       I    between atoms: C_13  and  N_14 
REMARK    5  A    between atoms: N_14  and  C_15 
ROOT
HETATM    1  N   UNL     1      25.021  41.879  50.907  1.00  0.00    -0.306 N 
HETATM    2  C   UNL     1      24.885  43.208  51.196  1.00  0.00     0.325 C 
HETATM    3  N   UNL     1      26.028  43.946  51.270  1.00  0.00    -0.305 N 
HETATM    4  O   UNL     1      23.749  43.605  51.443  1.00  0.00    -0.247 OA
HETATM    5  H   UNL     1      24.218  41.365  51.250  1.00  0.00     0.171 HD
HETATM    6  H   UNL     1      26.892  43.476  51.065  1.00  0.00     0.171 HD
ENDROOT
BRANCH   1   7
HETATM    7  C   UNL     1      26.086  41.099  50.424  1.00  0.00     0.069 A 
HETATM    8  C   UNL     1      27.234  41.003  51.225  1.00  0.00     0.096 A 
HETATM    9  C   UNL     1      28.374  40.334  50.778  1.00  0.00     0.046 A 
HETATM   10  C   UNL     1      28.354  39.670  49.547  1.00  0.00    -0.059 A 
HETATM   11  C   UNL     1      29.588  38.998  49.022  1.00  0.00     0.048 C 
HETATM   12  C   UNL     1      27.179  39.687  48.786  1.00  0.00     0.009 A 
HETATM   13  C   UNL     1      26.047  40.385  49.226  1.00  0.00     0.033 A 
BRANCH   8  14
HETATM   14  O   UNL     1      27.291  41.662  52.428  1.00  0.00    -0.340 OA
BRANCH  14  15
HETATM   15  C   UNL     1      28.497  41.329  53.141  1.00  0.00     0.293 C 
BRANCH  15  16
HETATM   16  C   UNL     1      29.361  42.558  53.370  1.00  0.00     0.408 C 
HETATM   17  F   UNL     1      29.296  42.989  54.649  1.00  0.00    -0.169 F 
HETATM   18  F   UNL     1      30.658  42.278  53.103  1.00  0.00    -0.169 F 
HETATM   19  F   UNL     1      28.994  43.579  52.564  1.00  0.00    -0.169 F 
ENDBRANCH  15  16
ENDBRANCH  14  15
ENDBRANCH   8  14
ENDBRANCH   1   7
BRANCH   3  20
HETATM   20  C   UNL     1      26.164  45.250  51.714  1.00  0.00     0.086 A 
HETATM   21  C   UNL     1      26.159  46.521  51.067  1.00  0.00     0.079 A 
HETATM   22  C   UNL     1      25.949  46.880  49.642  1.00  0.00     0.075 C 
HETATM   23  N   UNL     1      26.318  47.519  51.951  1.00  0.00    -0.177 NA
HETATM   24  N   UNL     1      26.411  46.904  53.132  1.00  0.00    -0.280 N 
HETATM   25  H   UNL     1      26.537  47.480  53.958  1.00  0.00     0.189 HD
HETATM   26  C   UNL     1      26.309  45.545  53.058  1.00  0.00     0.052 A 
HETATM   27  C   UNL     1      26.399  44.696  54.268  1.00  0.00     0.072 C 
ENDBRANCH   3  20
TORSDOF 5
ENDMDL
MODEL 10
REMARK VINA RESULT:      -7.4      2.985      4.095
REMARK  5 active torsions:
REMARK  status: ('A' for Active; 'I' for Inactive)
REMARK    1  A    between atoms: C_4  and  O_5 
REMARK    2  A    between atoms: O_5  and  C_6 
REMARK    3  A    between atoms: C_6  and  C_7 
REMARK    4  A    between atoms: C_11  and  N_12 
REMARK       I    between atoms: N_12  and  C_13 
REMARK       I    between atoms: C_13  and  N_14 
REMARK    5  A    between atoms: N_14  and  C_15 
ROOT
HETATM    1  N   UNL     1      23.657  46.298  49.163  1.00  0.00    -0.306 N 
HETATM    2  C   UNL     1      22.814  47.244  48.648  1.00  0.00     0.325 C 
HETATM    3  N   UNL     1      22.427  48.248  49.484  1.00  0.00    -0.305 N 
HETATM    4  O   UNL     1      22.415  47.062  47.501  1.00  0.00    -0.247 OA
HETATM    5  H   UNL     1      23.572  45.435  48.638  1.00  0.00     0.171 HD
HETATM    6  H   UNL     1      22.819  48.253  50.409  1.00  0.00     0.171 HD
ENDROOT
BRANCH   1   7
HETATM    7  C   UNL     1      24.435  46.230  50.331  1.00  0.00     0.069 A 
HETATM    8  C   UNL     1      24.314  45.079  51.124  1.00  0.00     0.096 A 
HETATM    9  C   UNL     1      24.972  44.972  52.350  1.00  0.00     0.046 A 
HETATM   10  C   UNL     1      25.839  45.988  52.765  1.00  0.00    -0.059 A 
HETATM   11  C   UNL     1      26.506  45.919  54.107  1.00  0.00     0.048 C 
HETATM   12  C   UNL     1      26.032  47.097  51.934  1.00  0.00     0.009 A 
HETATM   13  C   UNL     1      25.346  47.213  50.718  1.00  0.00     0.033 A 
BRANCH   8  14
HETATM   14  O   UNL     1      23.455  44.074  50.752  1.00  0.00    -0.340 OA
BRANCH  14  15
HETATM   15  C   UNL     1      24.139  42.808  50.690  1.00  0.00     0.293 C 
BRANCH  15  16
HETATM   16  C   UNL     1      24.735  42.569  49.313  1.00  0.00     0.408 C 
HETATM   17  F   UNL     1      24.784  41.254  49.007  1.00  0.00    -0.169 F 
HETATM   18  F   UNL     1      23.986  43.178  48.364  1.00  0.00    -0.169 F 
HETATM   19  F   UNL     1      25.987  43.068  49.221  1.00  0.00    -0.169 F 
ENDBRANCH  15  16
ENDBRANCH  14  15
ENDBRANCH   8  14
ENDBRANCH   1   7
BRANCH   3  20
HETATM   20  C   UNL     1      21.456  49.209  49.256  1.00  0.00     0.086 A 
HETATM   21  C   UNL     1      20.038  49.236  49.402  1.00  0.00     0.079 A 
HETATM   22  C   UNL     1      19.099  48.209  49.919  1.00  0.00     0.075 C 
HETATM   23  N   UNL     1      19.534  50.431  49.054  1.00  0.00    -0.177 NA
HETATM   24  N   UNL     1      20.603  51.152  48.706  1.00  0.00    -0.280 N 
HETATM   25  H   UNL     1      20.450  52.108  48.402  1.00  0.00     0.189 HD
HETATM   26  C   UNL     1      21.785  50.480  48.821  1.00  0.00     0.052 A 
HETATM   27  C   UNL     1      23.074  51.119  48.468  1.00  0.00     0.072 C 
ENDBRANCH   3  20
TORSDOF 5
ENDMDL
