MODEL 1
REMARK VINA RESULT:      -7.9      0.000      0.000
REMARK  7 active torsions:
REMARK  status: ('A' for Active; 'I' for Inactive)
REMARK    1  A    between atoms: O_2  and  C_3 
REMARK    2  A    between atoms: C_4  and  O_5 
REMARK    3  A    between atoms: O_5  and  C_6 
REMARK       I    between atoms: C_6  and  N_7 
REMARK    4  A    between atoms: C_14  and  O_15 
REMARK    5  A    between atoms: C_18  and  C_19 
REMARK    6  A    between atoms: C_23  and  N_24 
REMARK    7  A    between atoms: C_31  and  C_32 
ROOT
HETATM    1  C   UNL     1      23.218  47.852  49.446  1.00  0.00     0.106 A 
HETATM    2  C   UNL     1      22.203  48.831  48.835  1.00  0.00     0.081 A 
HETATM    3  C   UNL     1      20.842  48.669  49.228  1.00  0.00     0.100 C 
HETATM    4  N   UNL     1      19.740  48.534  49.568  1.00  0.00    -0.191 NA
HETATM    5  C   UNL     1      22.562  49.854  48.013  1.00  0.00     0.140 A 
HETATM    6  O   UNL     1      23.902  50.101  47.677  1.00  0.00    -0.279 OA
HETATM    7  C   UNL     1      24.809  49.342  48.277  1.00  0.00     0.175 A 
HETATM    8  C   UNL     1      24.610  48.282  49.125  1.00  0.00     0.040 A 
HETATM    9  N   UNL     1      26.148  49.498  48.143  1.00  0.00    -0.256 N 
HETATM   10  H   UNL     1      26.648  50.188  47.594  1.00  0.00     0.191 HD
HETATM   11  N   UNL     1      26.848  48.591  48.847  1.00  0.00    -0.172 NA
HETATM   12  C   UNL     1      25.919  47.851  49.485  1.00  0.00     0.099 A 
ENDROOT
BRANCH   1  13
HETATM   13  C   UNL     1      23.018  46.427  48.925  1.00  0.00    -0.039 C 
HETATM   14  C   UNL     1      22.587  46.129  47.614  1.00  0.00     0.048 C 
HETATM   15  C   UNL     1      22.293  44.818  47.226  1.00  0.00     0.105 C 
HETATM   16  C   UNL     1      22.324  43.806  48.190  1.00  0.00     0.147 C 
HETATM   17  C   UNL     1      22.820  44.055  49.468  1.00  0.00     0.105 C 
HETATM   18  C   UNL     1      23.156  45.359  49.837  1.00  0.00     0.048 C 
BRANCH  15  19
HETATM   19  O   UNL     1      21.916  44.464  45.956  1.00  0.00    -0.353 OA
HETATM   20  C   UNL     1      22.917  44.637  44.959  1.00  0.00     0.210 C 
ENDBRANCH  15  19
BRANCH  16  21
HETATM   21  O   UNL     1      21.900  42.507  47.886  1.00  0.00    -0.256 OA
BRANCH  21  22
HETATM   22  C   UNL     1      22.850  41.778  47.176  1.00  0.00     0.368 C 
HETATM   23  N   UNL     1      22.273  40.906  46.267  1.00  0.00    -0.324 N 
HETATM   24  C   UNL     1      20.926  41.083  45.729  1.00  0.00     0.154 C 
HETATM   25  C   UNL     1      23.110  39.997  45.492  1.00  0.00     0.154 C 
HETATM   26  C   UNL     1      21.012  41.465  44.243  1.00  0.00     0.187 C 
HETATM   27  O   UNL     1      21.780  40.499  43.503  1.00  0.00    -0.388 OA
HETATM   28  C   UNL     1      23.121  40.409  44.017  1.00  0.00     0.187 C 
HETATM   29  O   UNL     1      24.068  41.867  47.321  1.00  0.00    -0.238 OA
ENDBRANCH  21  22
ENDBRANCH  16  21
BRANCH  17  30
HETATM   30  O   UNL     1      22.884  43.021  50.365  1.00  0.00    -0.353 OA
HETATM   31  C   UNL     1      24.230  42.742  50.748  1.00  0.00     0.210 C 
ENDBRANCH  17  30
ENDBRANCH   1  13
BRANCH   5  32
HETATM   32  N   UNL     1      21.694  50.755  47.435  1.00  0.00    -0.282 NA
HETATM   33  H   UNL     1      21.976  51.730  47.498  1.00  0.00     0.126 HD
HETATM   34  H   UNL     1      20.736  50.607  47.743  1.00  0.00     0.126 HD
ENDBRANCH   5  32
BRANCH  12  35
HETATM   35  C   UNL     1      26.329  46.757  50.366  1.00  0.00    -0.005 A 
HETATM   36  C   UNL     1      27.000  45.631  49.872  1.00  0.00     0.015 A 
HETATM   37  C   UNL     1      27.377  44.595  50.733  1.00  0.00     0.020 A 
HETATM   38  C   UNL     1      27.077  44.678  52.091  1.00  0.00     0.011 A 
HETATM   39 BR   UNL     1      27.580  43.273  53.251  1.00  0.00    -0.051 Br
HETATM   40  C   UNL     1      26.400  45.783  52.598  1.00  0.00     0.020 A 
HETATM   41  C   UNL     1      26.027  46.818  51.736  1.00  0.00     0.015 A 
ENDBRANCH  12  35
TORSDOF 7
ENDMDL
MODEL 2
REMARK VINA RESULT:      -7.8      3.290      7.173
REMARK  7 active torsions:
REMARK  status: ('A' for Active; 'I' for Inactive)
REMARK    1  A    between atoms: O_2  and  C_3 
REMARK    2  A    between atoms: C_4  and  O_5 
REMARK    3  A    between atoms: O_5  and  C_6 
REMARK       I    between atoms: C_6  and  N_7 
REMARK    4  A    between atoms: C_14  and  O_15 
REMARK    5  A    between atoms: C_18  and  C_19 
REMARK    6  A    between atoms: C_23  and  N_24 
REMARK    7  A    between atoms: C_31  and  C_32 
ROOT
HETATM    1  C   UNL     1      21.065  47.758  48.216  1.00  0.00     0.106 A 
HETATM    2  C   UNL     1      20.434  48.789  49.164  1.00  0.00     0.081 A 
HETATM    3  C   UNL     1      21.081  50.056  49.255  1.00  0.00     0.100 C 
HETATM    4  N   UNL     1      21.612  51.088  49.306  1.00  0.00    -0.191 NA
HETATM    5  C   UNL     1      19.277  48.561  49.844  1.00  0.00     0.140 A 
HETATM    6  O   UNL     1      18.562  47.361  49.710  1.00  0.00    -0.279 OA
HETATM    7  C   UNL     1      19.023  46.498  48.815  1.00  0.00     0.175 A 
HETATM    8  C   UNL     1      20.162  46.581  48.056  1.00  0.00     0.040 A 
HETATM    9  N   UNL     1      18.411  45.333  48.489  1.00  0.00    -0.256 N 
HETATM   10  H   UNL     1      17.545  44.955  48.855  1.00  0.00     0.191 HD
HETATM   11  N   UNL     1      19.090  44.634  47.564  1.00  0.00    -0.172 NA
HETATM   12  C   UNL     1      20.157  45.400  47.259  1.00  0.00     0.099 A 
ENDROOT
BRANCH   1  13
HETATM   13  C   UNL     1      22.418  47.265  48.733  1.00  0.00    -0.039 C 
HETATM   14  C   UNL     1      22.632  45.965  49.243  1.00  0.00     0.048 C 
HETATM   15  C   UNL     1      23.852  45.604  49.825  1.00  0.00     0.105 C 
HETATM   16  C   UNL     1      24.832  46.585  49.998  1.00  0.00     0.147 C 
HETATM   17  C   UNL     1      24.681  47.851  49.436  1.00  0.00     0.105 C 
HETATM   18  C   UNL     1      23.478  48.192  48.815  1.00  0.00     0.048 C 
BRANCH  15  19
HETATM   19  O   UNL     1      24.131  44.347  50.293  1.00  0.00    -0.353 OA
HETATM   20  C   UNL     1      23.110  43.380  50.072  1.00  0.00     0.210 C 
ENDBRANCH  15  19
BRANCH  16  21
HETATM   21  O   UNL     1      26.011  46.310  50.703  1.00  0.00    -0.256 OA
BRANCH  21  22
HETATM   22  C   UNL     1      25.869  46.459  52.079  1.00  0.00     0.368 C 
HETATM   23  N   UNL     1      26.124  45.283  52.765  1.00  0.00    -0.324 N 
HETATM   24  C   UNL     1      26.937  44.196  52.222  1.00  0.00     0.154 C 
HETATM   25  C   UNL     1      25.942  45.225  54.212  1.00  0.00     0.154 C 
HETATM   26  C   UNL     1      28.264  44.111  52.992  1.00  0.00     0.187 C 
HETATM   27  O   UNL     1      28.035  43.976  54.406  1.00  0.00    -0.388 OA
HETATM   28  C   UNL     1      27.297  45.101  54.915  1.00  0.00     0.187 C 
HETATM   29  O   UNL     1      25.546  47.499  52.651  1.00  0.00    -0.238 OA
ENDBRANCH  21  22
ENDBRANCH  16  21
BRANCH  17  30
HETATM   30  O   UNL     1      25.692  48.765  49.585  1.00  0.00    -0.353 OA
HETATM   31  C   UNL     1      25.764  49.652  48.470  1.00  0.00     0.210 C 
ENDBRANCH  17  30
ENDBRANCH   1  13
BRANCH   5  32
HETATM   32  N   UNL     1      18.672  49.447  50.708  1.00  0.00    -0.282 NA
HETATM   33  H   UNL     1      18.994  50.410  50.638  1.00  0.00     0.126 HD
HETATM   34  H   UNL     1      18.679  49.105  51.666  1.00  0.00     0.126 HD
ENDBRANCH   5  32
BRANCH  12  35
HETATM   35  C   UNL     1      21.126  44.948  46.260  1.00  0.00    -0.005 A 
HETATM   36  C   UNL     1      21.940  43.830  46.483  1.00  0.00     0.015 A 
HETATM   37  C   UNL     1      22.863  43.420  45.516  1.00  0.00     0.020 A 
HETATM   38  C   UNL     1      22.981  44.132  44.324  1.00  0.00     0.011 A 
HETATM   39 BR   UNL     1      24.236  43.581  43.022  1.00  0.00    -0.051 Br
HETATM   40  C   UNL     1      22.190  45.253  44.090  1.00  0.00     0.020 A 
HETATM   41  C   UNL     1      21.267  45.658  45.058  1.00  0.00     0.015 A 
ENDBRANCH  12  35
TORSDOF 7
ENDMDL
MODEL 3
REMARK VINA RESULT:      -7.6      2.821      6.955
REMARK  7 active torsions:
REMARK  status: ('A' for Active; 'I' for Inactive)
REMARK    1  A    between atoms: O_2  and  C_3 
REMARK    2  A    between atoms: C_4  and  O_5 
REMARK    3  A    between atoms: O_5  and  C_6 
REMARK       I    between atoms: C_6  and  N_7 
REMARK    4  A    between atoms: C_14  and  O_15 
REMARK    5  A    between atoms: C_18  and  C_19 
REMARK    6  A    between atoms: C_23  and  N_24 
REMARK    7  A    between atoms: C_31  and  C_32 
ROOT
HETATM    1  C   UNL     1      23.307  44.230  46.666  1.00  0.00     0.106 A 
HETATM    2  C   UNL     1      22.832  43.771  45.279  1.00  0.00     0.081 A 
HETATM    3  C   UNL     1      22.562  44.794  44.324  1.00  0.00     0.100 C 
HETATM    4  N   UNL     1      22.361  45.638  43.553  1.00  0.00    -0.191 NA
HETATM    5  C   UNL     1      22.729  42.460  44.927  1.00  0.00     0.140 A 
HETATM    6  O   UNL     1      23.073  41.425  45.810  1.00  0.00    -0.279 OA
HETATM    7  C   UNL     1      23.592  41.792  46.974  1.00  0.00     0.175 A 
HETATM    8  C   UNL     1      23.761  43.059  47.472  1.00  0.00     0.040 A 
HETATM    9  N   UNL     1      24.062  40.931  47.909  1.00  0.00    -0.256 N 
HETATM   10  H   UNL     1      24.097  39.919  47.869  1.00  0.00     0.191 HD
HETATM   11  N   UNL     1      24.523  41.558  49.005  1.00  0.00    -0.172 NA
HETATM   12  C   UNL     1      24.376  42.873  48.744  1.00  0.00     0.099 A 
ENDROOT
BRANCH   1  13
HETATM   13  C   UNL     1      22.198  44.949  47.438  1.00  0.00    -0.039 C 
HETATM   14  C   UNL     1      20.863  44.494  47.491  1.00  0.00     0.048 C 
HETATM   15  C   UNL     1      19.859  45.254  48.100  1.00  0.00     0.105 C 
HETATM   16  C   UNL     1      20.172  46.536  48.563  1.00  0.00     0.147 C 
HETATM   17  C   UNL     1      21.492  46.980  48.595  1.00  0.00     0.105 C 
HETATM   18  C   UNL     1      22.498  46.195  48.028  1.00  0.00     0.048 C 
BRANCH  15  19
HETATM   19  O   UNL     1      18.557  44.843  48.221  1.00  0.00    -0.353 OA
HETATM   20  C   UNL     1      17.804  44.860  47.014  1.00  0.00     0.210 C 
ENDBRANCH  15  19
BRANCH  16  21
HETATM   21  O   UNL     1      19.174  47.391  49.048  1.00  0.00    -0.256 OA
BRANCH  21  22
HETATM   22  C   UNL     1      18.783  48.351  48.119  1.00  0.00     0.368 C 
HETATM   23  N   UNL     1      18.375  49.530  48.721  1.00  0.00    -0.324 N 
HETATM   24  C   UNL     1      18.785  49.930  50.065  1.00  0.00     0.154 C 
HETATM   25  C   UNL     1      17.849  50.623  47.909  1.00  0.00     0.154 C 
HETATM   26  C   UNL     1      19.744  51.128  49.976  1.00  0.00     0.187 C 
HETATM   27  O   UNL     1      19.153  52.210  49.234  1.00  0.00    -0.388 OA
HETATM   28  C   UNL     1      18.831  51.797  47.893  1.00  0.00     0.187 C 
HETATM   29  O   UNL     1      18.780  48.199  46.899  1.00  0.00    -0.238 OA
ENDBRANCH  21  22
ENDBRANCH  16  21
BRANCH  17  30
HETATM   30  O   UNL     1      21.759  48.222  49.109  1.00  0.00    -0.353 OA
HETATM   31  C   UNL     1      22.377  49.067  48.140  1.00  0.00     0.210 C 
ENDBRANCH  17  30
ENDBRANCH   1  13
BRANCH   5  32
HETATM   32  N   UNL     1      22.304  41.995  43.702  1.00  0.00    -0.282 NA
HETATM   33  H   UNL     1      22.943  42.163  42.928  1.00  0.00     0.126 HD
HETATM   34  H   UNL     1      21.354  42.294  43.493  1.00  0.00     0.126 HD
ENDBRANCH   5  32
BRANCH  12  35
HETATM   35  C   UNL     1      24.792  43.869  49.731  1.00  0.00    -0.005 A 
HETATM   36  C   UNL     1      25.737  44.856  49.422  1.00  0.00     0.015 A 
HETATM   37  C   UNL     1      26.123  45.795  50.384  1.00  0.00     0.020 A 
HETATM   38  C   UNL     1      25.569  45.746  51.663  1.00  0.00     0.011 A 
HETATM   39 BR   UNL     1      26.099  47.011  52.964  1.00  0.00    -0.051 Br
HETATM   40  C   UNL     1      24.638  44.766  51.991  1.00  0.00     0.020 A 
HETATM   41  C   UNL     1      24.253  43.830  51.027  1.00  0.00     0.015 A 
ENDBRANCH  12  35
TORSDOF 7
ENDMDL
MODEL 4
REMARK VINA RESULT:      -7.5      1.163      2.642
REMARK  7 active torsions:
REMARK  status: ('A' for Active; 'I' for Inactive)
REMARK    1  A    between atoms: O_2  and  C_3 
REMARK    2  A    between atoms: C_4  and  O_5 
REMARK    3  A    between atoms: O_5  and  C_6 
REMARK       I    between atoms: C_6  and  N_7 
REMARK    4  A    between atoms: C_14  and  O_15 
REMARK    5  A    between atoms: C_18  and  C_19 
REMARK    6  A    between atoms: C_23  and  N_24 
REMARK    7  A    between atoms: C_31  and  C_32 
ROOT
HETATM    1  C   UNL     1      22.864  47.911  49.426  1.00  0.00     0.106 A 
HETATM    2  C   UNL     1      21.794  48.902  48.942  1.00  0.00     0.081 A 
HETATM    3  C   UNL     1      20.441  48.595  49.271  1.00  0.00     0.100 C 
HETATM    4  N   UNL     1      19.347  48.339  49.560  1.00  0.00    -0.191 NA
HETATM    5  C   UNL     1      22.095  50.058  48.289  1.00  0.00     0.140 A 
HETATM    6  O   UNL     1      23.420  50.439  48.027  1.00  0.00    -0.279 OA
HETATM    7  C   UNL     1      24.367  49.660  48.531  1.00  0.00     0.175 A 
HETATM    8  C   UNL     1      24.228  48.475  49.207  1.00  0.00     0.040 A 
HETATM    9  N   UNL     1      25.695  49.922  48.455  1.00  0.00    -0.256 N 
HETATM   10  H   UNL     1      26.154  50.717  48.027  1.00  0.00     0.191 HD
HETATM   11  N   UNL     1      26.444  48.967  49.034  1.00  0.00    -0.172 NA
HETATM   12  C   UNL     1      25.559  48.081  49.533  1.00  0.00     0.099 A 
ENDROOT
BRANCH   1  13
HETATM   13  C   UNL     1      22.770  46.571  48.695  1.00  0.00    -0.039 C 
HETATM   14  C   UNL     1      23.196  45.346  49.253  1.00  0.00     0.048 C 
HETATM   15  C   UNL     1      23.211  44.169  48.497  1.00  0.00     0.105 C 
HETATM   16  C   UNL     1      22.900  44.238  47.136  1.00  0.00     0.147 C 
HETATM   17  C   UNL     1      22.401  45.413  46.577  1.00  0.00     0.105 C 
HETATM   18  C   UNL     1      22.344  46.575  47.350  1.00  0.00     0.048 C 
BRANCH  15  19
HETATM   19  O   UNL     1      23.571  42.945  48.998  1.00  0.00    -0.353 OA
HETATM   20  C   UNL     1      23.833  42.918  50.396  1.00  0.00     0.210 C 
ENDBRANCH  15  19
BRANCH  16  21
HETATM   21  O   UNL     1      23.039  43.118  46.306  1.00  0.00    -0.256 OA
BRANCH  21  22
HETATM   22  C   UNL     1      21.946  42.258  46.367  1.00  0.00     0.368 C 
HETATM   23  N   UNL     1      22.235  41.004  45.853  1.00  0.00    -0.324 N 
HETATM   24  C   UNL     1      23.590  40.467  45.757  1.00  0.00     0.154 C 
HETATM   25  C   UNL     1      21.185  39.995  45.755  1.00  0.00     0.154 C 
HETATM   26  C   UNL     1      23.763  39.321  46.766  1.00  0.00     0.187 C 
HETATM   27  O   UNL     1      22.755  38.312  46.581  1.00  0.00    -0.388 OA
HETATM   28  C   UNL     1      21.437  38.865  46.757  1.00  0.00     0.187 C 
HETATM   29  O   UNL     1      20.838  42.550  46.811  1.00  0.00    -0.238 OA
ENDBRANCH  21  22
ENDBRANCH  16  21
BRANCH  17  30
HETATM   30  O   UNL     1      22.057  45.419  45.251  1.00  0.00    -0.353 OA
HETATM   31  C   UNL     1      20.739  45.930  45.055  1.00  0.00     0.210 C 
ENDBRANCH  17  30
ENDBRANCH   1  13
BRANCH   5  32
HETATM   32  N   UNL     1      21.177  50.976  47.829  1.00  0.00    -0.282 NA
HETATM   33  H   UNL     1      20.201  50.729  47.984  1.00  0.00     0.126 HD
HETATM   34  H   UNL     1      21.360  51.244  46.865  1.00  0.00     0.126 HD
ENDBRANCH   5  32
BRANCH  12  35
HETATM   35  C   UNL     1      26.029  46.897  50.252  1.00  0.00    -0.005 A 
HETATM   36  C   UNL     1      25.776  46.722  51.619  1.00  0.00     0.015 A 
HETATM   37  C   UNL     1      26.241  45.584  52.286  1.00  0.00     0.020 A 
HETATM   38  C   UNL     1      26.967  44.619  51.590  1.00  0.00     0.011 A 
HETATM   39 BR   UNL     1      27.600  43.086  52.496  1.00  0.00    -0.051 Br
HETATM   40  C   UNL     1      27.237  44.782  50.234  1.00  0.00     0.020 A 
HETATM   41  C   UNL     1      26.770  45.919  49.570  1.00  0.00     0.015 A 
ENDBRANCH  12  35
TORSDOF 7
ENDMDL
MODEL 5
REMARK VINA RESULT:      -7.5      8.123     11.399
REMARK  7 active torsions:
REMARK  status: ('A' for Active; 'I' for Inactive)
REMARK    1  A    between atoms: O_2  and  C_3 
REMARK    2  A    between atoms: C_4  and  O_5 
REMARK    3  A    between atoms: O_5  and  C_6 
REMARK       I    between atoms: C_6  and  N_7 
REMARK    4  A    between atoms: C_14  and  O_15 
REMARK    5  A    between atoms: C_18  and  C_19 
REMARK    6  A    between atoms: C_23  and  N_24 
REMARK    7  A    between atoms: C_31  and  C_32 
ROOT
HETATM    1  C   UNL     1      24.981  47.123  39.109  1.00  0.00     0.106 A 
HETATM    2  C   UNL     1      24.561  48.292  38.203  1.00  0.00     0.081 A 
HETATM    3  C   UNL     1      25.376  48.541  37.060  1.00  0.00     0.100 C 
HETATM    4  N   UNL     1      26.041  48.721  36.126  1.00  0.00    -0.191 NA
HETATM    5  C   UNL     1      23.436  49.027  38.416  1.00  0.00     0.140 A 
HETATM    6  O   UNL     1      22.561  48.754  39.478  1.00  0.00    -0.279 OA
HETATM    7  C   UNL     1      22.838  47.683  40.209  1.00  0.00     0.175 A 
HETATM    8  C   UNL     1      23.921  46.846  40.121  1.00  0.00     0.040 A 
HETATM    9  N   UNL     1      22.056  47.218  41.213  1.00  0.00    -0.256 N 
HETATM   10  H   UNL     1      21.175  47.592  41.548  1.00  0.00     0.191 HD
HETATM   11  N   UNL     1      22.568  46.125  41.805  1.00  0.00    -0.172 NA
HETATM   12  C   UNL     1      23.703  45.859  41.126  1.00  0.00     0.099 A 
ENDROOT
BRANCH   1  13
HETATM   13  C   UNL     1      26.290  47.417  39.845  1.00  0.00    -0.039 C 
HETATM   14  C   UNL     1      26.513  48.585  40.605  1.00  0.00     0.048 C 
HETATM   15  C   UNL     1      27.769  48.869  41.150  1.00  0.00     0.105 C 
HETATM   16  C   UNL     1      28.844  48.031  40.840  1.00  0.00     0.147 C 
HETATM   17  C   UNL     1      28.640  46.832  40.160  1.00  0.00     0.105 C 
HETATM   18  C   UNL     1      27.372  46.530  39.658  1.00  0.00     0.048 C 
BRANCH  15  19
HETATM   19  O   UNL     1      28.032  49.963  41.933  1.00  0.00    -0.353 OA
HETATM   20  C   UNL     1      27.733  51.220  41.335  1.00  0.00     0.210 C 
ENDBRANCH  15  19
BRANCH  16  21
HETATM   21  O   UNL     1      30.147  48.350  41.241  1.00  0.00    -0.256 OA
BRANCH  21  22
HETATM   22  C   UNL     1      30.789  49.219  40.363  1.00  0.00     0.368 C 
HETATM   23  N   UNL     1      31.189  50.392  40.982  1.00  0.00    -0.324 N 
HETATM   24  C   UNL     1      31.408  50.506  42.422  1.00  0.00     0.154 C 
HETATM   25  C   UNL     1      31.803  51.460  40.199  1.00  0.00     0.154 C 
HETATM   26  C   UNL     1      32.910  50.670  42.703  1.00  0.00     0.187 C 
HETATM   27  O   UNL     1      33.456  51.782  41.972  1.00  0.00    -0.388 OA
HETATM   28  C   UNL     1      33.286  51.596  40.554  1.00  0.00     0.187 C 
HETATM   29  O   UNL     1      30.985  49.004  39.168  1.00  0.00    -0.238 OA
ENDBRANCH  21  22
ENDBRANCH  16  21
BRANCH  17  30
HETATM   30  O   UNL     1      29.714  46.014  39.926  1.00  0.00    -0.353 OA
HETATM   31  C   UNL     1      29.476  45.141  38.823  1.00  0.00     0.210 C 
ENDBRANCH  17  30
ENDBRANCH   1  13
BRANCH   5  32
HETATM   32  N   UNL     1      23.017  50.086  37.640  1.00  0.00    -0.282 NA
HETATM   33  H   UNL     1      23.481  50.972  37.829  1.00  0.00     0.126 HD
HETATM   34  H   UNL     1      22.004  50.172  37.634  1.00  0.00     0.126 HD
ENDBRANCH   5  32
BRANCH  12  35
HETATM   35  C   UNL     1      24.529  44.710  41.496  1.00  0.00    -0.005 A 
HETATM   36  C   UNL     1      25.538  44.815  42.463  1.00  0.00     0.015 A 
HETATM   37  C   UNL     1      26.320  43.704  42.796  1.00  0.00     0.020 A 
HETATM   38  C   UNL     1      26.100  42.484  42.157  1.00  0.00     0.011 A 
HETATM   39 BR   UNL     1      27.163  40.986  42.604  1.00  0.00    -0.051 Br
HETATM   40  C   UNL     1      25.110  42.365  41.186  1.00  0.00     0.020 A 
HETATM   41  C   UNL     1      24.330  43.476  40.857  1.00  0.00     0.015 A 
ENDBRANCH  12  35
TORSDOF 7
ENDMDL
MODEL 6
REMARK VINA RESULT:      -7.5      5.648      8.317
REMARK  7 active torsions:
REMARK  status: ('A' for Active; 'I' for Inactive)
REMARK    1  A    between atoms: O_2  and  C_3 
REMARK    2  A    between atoms: C_4  and  O_5 
REMARK    3  A    between atoms: O_5  and  C_6 
REMARK       I    between atoms: C_6  and  N_7 
REMARK    4  A    between atoms: C_14  and  O_15 
REMARK    5  A    between atoms: C_18  and  C_19 
REMARK    6  A    between atoms: C_23  and  N_24 
REMARK    7  A    between atoms: C_31  and  C_32 
ROOT
HETATM    1  C   UNL     1      19.905  50.850  47.593  1.00  0.00     0.106 A 
HETATM    2  C   UNL     1      21.147  50.691  48.483  1.00  0.00     0.081 A 
HETATM    3  C   UNL     1      22.350  50.281  47.837  1.00  0.00     0.100 C 
HETATM    4  N   UNL     1      23.324  49.962  47.293  1.00  0.00    -0.191 NA
HETATM    5  C   UNL     1      21.149  50.984  49.812  1.00  0.00     0.140 A 
HETATM    6  O   UNL     1      20.009  51.476  50.466  1.00  0.00    -0.279 OA
HETATM    7  C   UNL     1      18.955  51.730  49.701  1.00  0.00     0.175 A 
HETATM    8  C   UNL     1      18.798  51.493  48.359  1.00  0.00     0.040 A 
HETATM    9  N   UNL     1      17.805  52.290  50.145  1.00  0.00    -0.256 N 
HETATM   10  H   UNL     1      17.577  52.597  51.084  1.00  0.00     0.191 HD
HETATM   11  N   UNL     1      16.887  52.428  49.172  1.00  0.00    -0.172 NA
HETATM   12  C   UNL     1      17.490  51.972  48.056  1.00  0.00     0.099 A 
ENDROOT
BRANCH   1  13
HETATM   13  C   UNL     1      19.409  49.503  47.064  1.00  0.00    -0.039 C 
HETATM   14  C   UNL     1      18.871  49.322  45.770  1.00  0.00     0.048 C 
HETATM   15  C   UNL     1      18.311  48.102  45.379  1.00  0.00     0.105 C 
HETATM   16  C   UNL     1      18.188  47.082  46.328  1.00  0.00     0.147 C 
HETATM   17  C   UNL     1      18.779  47.202  47.584  1.00  0.00     0.105 C 
HETATM   18  C   UNL     1      19.378  48.408  47.953  1.00  0.00     0.048 C 
BRANCH  15  19
HETATM   19  O   UNL     1      17.817  47.856  44.125  1.00  0.00    -0.353 OA
HETATM   20  C   UNL     1      16.578  48.491  43.829  1.00  0.00     0.210 C 
ENDBRANCH  15  19
BRANCH  16  21
HETATM   21  O   UNL     1      17.507  45.896  46.028  1.00  0.00    -0.256 OA
BRANCH  21  22
HETATM   22  C   UNL     1      18.257  45.022  45.246  1.00  0.00     0.368 C 
HETATM   23  N   UNL     1      17.464  44.242  44.420  1.00  0.00    -0.324 N 
HETATM   24  C   UNL     1      16.113  44.622  44.011  1.00  0.00     0.154 C 
HETATM   25  C   UNL     1      18.069  43.207  43.589  1.00  0.00     0.154 C 
HETATM   26  C   UNL     1      16.107  44.972  42.515  1.00  0.00     0.187 C 
HETATM   27  O   UNL     1      16.639  43.892  41.728  1.00  0.00    -0.388 OA
HETATM   28  C   UNL     1      17.996  43.599  42.111  1.00  0.00     0.187 C 
HETATM   29  O   UNL     1      19.482  44.922  45.269  1.00  0.00    -0.238 OA
ENDBRANCH  21  22
ENDBRANCH  16  21
BRANCH  17  30
HETATM   30  O   UNL     1      18.680  46.155  48.463  1.00  0.00    -0.353 OA
HETATM   31  C   UNL     1      19.943  45.525  48.670  1.00  0.00     0.210 C 
ENDBRANCH  17  30
ENDBRANCH   1  13
BRANCH   5  32
HETATM   32  N   UNL     1      22.231  50.855  50.656  1.00  0.00    -0.282 NA
HETATM   33  H   UNL     1      23.141  50.877  50.200  1.00  0.00     0.126 HD
HETATM   34  H   UNL     1      22.130  50.058  51.281  1.00  0.00     0.126 HD
ENDBRANCH   5  32
BRANCH  12  35
HETATM   35  C   UNL     1      16.777  51.981  46.778  1.00  0.00    -0.005 A 
HETATM   36  C   UNL     1      15.535  51.349  46.628  1.00  0.00     0.015 A 
HETATM   37  C   UNL     1      14.875  51.367  45.395  1.00  0.00     0.020 A 
HETATM   38  C   UNL     1      15.458  52.011  44.305  1.00  0.00     0.011 A 
HETATM   39 BR   UNL     1      14.567  52.026  42.638  1.00  0.00    -0.051 Br
HETATM   40  C   UNL     1      16.696  52.634  44.432  1.00  0.00     0.020 A 
HETATM   41  C   UNL     1      17.353  52.616  45.666  1.00  0.00     0.015 A 
ENDBRANCH  12  35
TORSDOF 7
ENDMDL
MODEL 7
REMARK VINA RESULT:      -7.2      5.234      8.194
REMARK  7 active torsions:
REMARK  status: ('A' for Active; 'I' for Inactive)
REMARK    1  A    between atoms: O_2  and  C_3 
REMARK    2  A    between atoms: C_4  and  O_5 
REMARK    3  A    between atoms: O_5  and  C_6 
REMARK       I    between atoms: C_6  and  N_7 
REMARK    4  A    between atoms: C_14  and  O_15 
REMARK    5  A    between atoms: C_18  and  C_19 
REMARK    6  A    between atoms: C_23  and  N_24 
REMARK    7  A    between atoms: C_31  and  C_32 
ROOT
HETATM    1  C   UNL     1      19.920  50.765  47.644  1.00  0.00     0.106 A 
HETATM    2  C   UNL     1      21.164  50.611  48.534  1.00  0.00     0.081 A 
HETATM    3  C   UNL     1      22.355  50.158  47.895  1.00  0.00     0.100 C 
HETATM    4  N   UNL     1      23.321  49.802  47.358  1.00  0.00    -0.191 NA
HETATM    5  C   UNL     1      21.178  50.948  49.852  1.00  0.00     0.140 A 
HETATM    6  O   UNL     1      20.052  51.483  50.494  1.00  0.00    -0.279 OA
HETATM    7  C   UNL     1      18.999  51.731  49.727  1.00  0.00     0.175 A 
HETATM    8  C   UNL     1      18.830  51.454  48.394  1.00  0.00     0.040 A 
HETATM    9  N   UNL     1      17.861  52.329  50.157  1.00  0.00    -0.256 N 
HETATM   10  H   UNL     1      17.644  52.670  51.086  1.00  0.00     0.191 HD
HETATM   11  N   UNL     1      16.941  52.452  49.184  1.00  0.00    -0.172 NA
HETATM   12  C   UNL     1      17.530  51.947  48.080  1.00  0.00     0.099 A 
ENDROOT
BRANCH   1  13
HETATM   13  C   UNL     1      19.396  49.411  47.162  1.00  0.00    -0.039 C 
HETATM   14  C   UNL     1      19.398  48.244  47.957  1.00  0.00     0.048 C 
HETATM   15  C   UNL     1      19.030  47.003  47.428  1.00  0.00     0.105 C 
HETATM   16  C   UNL     1      18.764  46.906  46.059  1.00  0.00     0.147 C 
HETATM   17  C   UNL     1      18.677  48.049  45.267  1.00  0.00     0.105 C 
HETATM   18  C   UNL     1      19.000  49.293  45.812  1.00  0.00     0.048 C 
BRANCH  15  19
HETATM   19  O   UNL     1      18.969  45.848  48.164  1.00  0.00    -0.353 OA
HETATM   20  C   UNL     1      20.211  45.412  48.706  1.00  0.00     0.210 C 
ENDBRANCH  15  19
BRANCH  16  21
HETATM   21  O   UNL     1      18.533  45.663  45.456  1.00  0.00    -0.256 OA
BRANCH  21  22
HETATM   22  C   UNL     1      19.705  45.031  45.048  1.00  0.00     0.368 C 
HETATM   23  N   UNL     1      19.488  43.718  44.663  1.00  0.00    -0.324 N 
HETATM   24  C   UNL     1      18.188  43.213  44.227  1.00  0.00     0.154 C 
HETATM   25  C   UNL     1      20.614  42.871  44.285  1.00  0.00     0.154 C 
HETATM   26  C   UNL     1      18.232  42.910  42.721  1.00  0.00     0.187 C 
HETATM   27  O   UNL     1      19.309  42.009  42.405  1.00  0.00    -0.388 OA
HETATM   28  C   UNL     1      20.578  42.575  42.783  1.00  0.00     0.187 C 
HETATM   29  O   UNL     1      20.820  45.549  45.027  1.00  0.00    -0.238 OA
ENDBRANCH  21  22
ENDBRANCH  16  21
BRANCH  17  30
HETATM   30  O   UNL     1      18.359  47.911  43.941  1.00  0.00    -0.353 OA
HETATM   31  C   UNL     1      17.264  48.749  43.576  1.00  0.00     0.210 C 
ENDBRANCH  17  30
ENDBRANCH   1  13
BRANCH   5  32
HETATM   32  N   UNL     1      22.262  50.826  50.694  1.00  0.00    -0.282 NA
HETATM   33  H   UNL     1      22.040  50.810  51.687  1.00  0.00     0.126 HD
HETATM   34  H   UNL     1      22.992  51.498  50.471  1.00  0.00     0.126 HD
ENDBRANCH   5  32
BRANCH  12  35
HETATM   35  C   UNL     1      16.811  51.928  46.807  1.00  0.00    -0.005 A 
HETATM   36  C   UNL     1      15.617  51.211  46.650  1.00  0.00     0.015 A 
HETATM   37  C   UNL     1      14.950  51.204  45.420  1.00  0.00     0.020 A 
HETATM   38  C   UNL     1      15.479  51.908  44.340  1.00  0.00     0.011 A 
HETATM   39 BR   UNL     1      14.580  51.889  42.677  1.00  0.00    -0.051 Br
HETATM   40  C   UNL     1      16.669  52.616  44.474  1.00  0.00     0.020 A 
HETATM   41  C   UNL     1      17.332  52.624  45.704  1.00  0.00     0.015 A 
ENDBRANCH  12  35
TORSDOF 7
ENDMDL
MODEL 8
REMARK VINA RESULT:      -7.1      3.977      7.280
REMARK  7 active torsions:
REMARK  status: ('A' for Active; 'I' for Inactive)
REMARK    1  A    between atoms: O_2  and  C_3 
REMARK    2  A    between atoms: C_4  and  O_5 
REMARK    3  A    between atoms: O_5  and  C_6 
REMARK       I    between atoms: C_6  and  N_7 
REMARK    4  A    between atoms: C_14  and  O_15 
REMARK    5  A    between atoms: C_18  and  C_19 
REMARK    6  A    between atoms: C_23  and  N_24 
REMARK    7  A    between atoms: C_31  and  C_32 
ROOT
HETATM    1  C   UNL     1      28.045  41.022  48.643  1.00  0.00     0.106 A 
HETATM    2  C   UNL     1      28.143  40.181  47.361  1.00  0.00     0.081 A 
HETATM    3  C   UNL     1      28.048  40.885  46.124  1.00  0.00     0.100 C 
HETATM    4  N   UNL     1      27.984  41.474  45.126  1.00  0.00    -0.191 NA
HETATM    5  C   UNL     1      28.378  38.840  47.369  1.00  0.00     0.140 A 
HETATM    6  O   UNL     1      28.567  38.127  48.563  1.00  0.00    -0.279 OA
HETATM    7  C   UNL     1      28.599  38.845  49.678  1.00  0.00     0.175 A 
HETATM    8  C   UNL     1      28.384  40.191  49.834  1.00  0.00     0.040 A 
HETATM    9  N   UNL     1      28.861  38.338  50.907  1.00  0.00    -0.256 N 
HETATM   10  H   UNL     1      29.070  37.379  51.160  1.00  0.00     0.191 HD
HETATM   11  N   UNL     1      28.820  39.273  51.872  1.00  0.00    -0.172 NA
HETATM   12  C   UNL     1      28.559  40.429  51.228  1.00  0.00     0.099 A 
ENDROOT
BRANCH   1  13
HETATM   13  C   UNL     1      26.641  41.598  48.838  1.00  0.00    -0.039 C 
HETATM   14  C   UNL     1      25.457  40.880  48.563  1.00  0.00     0.048 C 
HETATM   15  C   UNL     1      24.202  41.493  48.632  1.00  0.00     0.105 C 
HETATM   16  C   UNL     1      24.136  42.869  48.871  1.00  0.00     0.147 C 
HETATM   17  C   UNL     1      25.277  43.587  49.223  1.00  0.00     0.105 C 
HETATM   18  C   UNL     1      26.524  42.957  49.198  1.00  0.00     0.048 C 
BRANCH  15  19
HETATM   19  O   UNL     1      23.018  40.835  48.421  1.00  0.00    -0.353 OA
HETATM   20  C   UNL     1      22.871  40.259  47.128  1.00  0.00     0.210 C 
ENDBRANCH  15  19
BRANCH  16  21
HETATM   21  O   UNL     1      22.917  43.555  48.808  1.00  0.00    -0.256 OA
BRANCH  21  22
HETATM   22  C   UNL     1      22.604  43.989  47.522  1.00  0.00     0.368 C 
HETATM   23  N   UNL     1      21.341  44.553  47.450  1.00  0.00    -0.324 N 
HETATM   24  C   UNL     1      20.643  45.111  48.607  1.00  0.00     0.154 C 
HETATM   25  C   UNL     1      20.806  44.988  46.164  1.00  0.00     0.154 C 
HETATM   26  C   UNL     1      20.568  46.640  48.473  1.00  0.00     0.187 C 
HETATM   27  O   UNL     1      19.962  47.022  47.225  1.00  0.00    -0.388 OA
HETATM   28  C   UNL     1      20.720  46.515  46.111  1.00  0.00     0.187 C 
HETATM   29  O   UNL     1      23.338  43.889  46.541  1.00  0.00    -0.238 OA
ENDBRANCH  21  22
ENDBRANCH  16  21
BRANCH  17  30
HETATM   30  O   UNL     1      25.157  44.923  49.504  1.00  0.00    -0.353 OA
HETATM   31  C   UNL     1      26.426  45.518  49.769  1.00  0.00     0.210 C 
ENDBRANCH  17  30
ENDBRANCH   1  13
BRANCH   5  32
HETATM   32  N   UNL     1      28.469  38.039  46.252  1.00  0.00    -0.282 NA
HETATM   33  H   UNL     1      27.684  38.102  45.608  1.00  0.00     0.126 HD
HETATM   34  H   UNL     1      28.697  37.078  46.494  1.00  0.00     0.126 HD
ENDBRANCH   5  32
BRANCH  12  35
HETATM   35  C   UNL     1      28.453  41.681  51.978  1.00  0.00    -0.005 A 
HETATM   36  C   UNL     1      29.587  42.337  52.473  1.00  0.00     0.015 A 
HETATM   37  C   UNL     1      29.460  43.530  53.192  1.00  0.00     0.020 A 
HETATM   38  C   UNL     1      28.195  44.068  53.425  1.00  0.00     0.011 A 
HETATM   39 BR   UNL     1      28.026  45.676  54.405  1.00  0.00    -0.051 Br
HETATM   40  C   UNL     1      27.056  43.424  52.952  1.00  0.00     0.020 A 
HETATM   41  C   UNL     1      27.187  42.233  52.232  1.00  0.00     0.015 A 
ENDBRANCH  12  35
TORSDOF 7
ENDMDL
MODEL 9
REMARK VINA RESULT:      -7.0      6.192      8.948
REMARK  7 active torsions:
REMARK  status: ('A' for Active; 'I' for Inactive)
REMARK    1  A    between atoms: O_2  and  C_3 
REMARK    2  A    between atoms: C_4  and  O_5 
REMARK    3  A    between atoms: O_5  and  C_6 
REMARK       I    between atoms: C_6  and  N_7 
REMARK    4  A    between atoms: C_14  and  O_15 
REMARK    5  A    between atoms: C_18  and  C_19 
REMARK    6  A    between atoms: C_23  and  N_24 
REMARK    7  A    between atoms: C_31  and  C_32 
ROOT
HETATM    1  C   UNL     1      19.692  50.990  47.460  1.00  0.00     0.106 A 
HETATM    2  C   UNL     1      20.887  50.774  48.401  1.00  0.00     0.081 A 
HETATM    3  C   UNL     1      22.119  50.391  47.794  1.00  0.00     0.100 C 
HETATM    4  N   UNL     1      23.118  50.093  47.283  1.00  0.00    -0.191 NA
HETATM    5  C   UNL     1      20.824  50.996  49.743  1.00  0.00     0.140 A 
HETATM    6  O   UNL     1      19.656  51.461  50.364  1.00  0.00    -0.279 OA
HETATM    7  C   UNL     1      18.643  51.763  49.563  1.00  0.00     0.175 A 
HETATM    8  C   UNL     1      18.551  51.600  48.204  1.00  0.00     0.040 A 
HETATM    9  N   UNL     1      17.474  52.308  49.979  1.00  0.00    -0.256 N 
HETATM   10  H   UNL     1      17.201  52.565  50.920  1.00  0.00     0.191 HD
HETATM   11  N   UNL     1      16.607  52.504  48.970  1.00  0.00    -0.172 NA
HETATM   12  C   UNL     1      17.263  52.104  47.862  1.00  0.00     0.099 A 
ENDROOT
BRANCH   1  13
HETATM   13  C   UNL     1      19.216  49.677  46.835  1.00  0.00    -0.039 C 
HETATM   14  C   UNL     1      19.133  48.459  47.544  1.00  0.00     0.048 C 
HETATM   15  C   UNL     1      18.818  47.260  46.897  1.00  0.00     0.105 C 
HETATM   16  C   UNL     1      18.694  47.259  45.504  1.00  0.00     0.147 C 
HETATM   17  C   UNL     1      18.692  48.454  44.788  1.00  0.00     0.105 C 
HETATM   18  C   UNL     1      18.961  49.655  45.447  1.00  0.00     0.048 C 
BRANCH  15  19
HETATM   19  O   UNL     1      18.679  46.059  47.541  1.00  0.00    -0.353 OA
HETATM   20  C   UNL     1      17.451  45.888  48.240  1.00  0.00     0.210 C 
ENDBRANCH  15  19
BRANCH  16  21
HETATM   21  O   UNL     1      18.523  46.063  44.797  1.00  0.00    -0.256 OA
BRANCH  21  22
HETATM   22  C   UNL     1      17.213  45.867  44.369  1.00  0.00     0.368 C 
HETATM   23  N   UNL     1      17.151  45.285  43.114  1.00  0.00    -0.324 N 
HETATM   24  C   UNL     1      18.239  44.497  42.538  1.00  0.00     0.154 C 
HETATM   25  C   UNL     1      15.859  45.080  42.465  1.00  0.00     0.154 C 
HETATM   26  C   UNL     1      17.825  43.018  42.474  1.00  0.00     0.187 C 
HETATM   27  O   UNL     1      16.588  42.856  41.758  1.00  0.00    -0.388 OA
HETATM   28  C   UNL     1      15.526  43.588  42.398  1.00  0.00     0.187 C 
HETATM   29  O   UNL     1      16.206  46.173  45.005  1.00  0.00    -0.238 OA
ENDBRANCH  21  22
ENDBRANCH  16  21
BRANCH  17  30
HETATM   30  O   UNL     1      18.512  48.409  43.430  1.00  0.00    -0.353 OA
HETATM   31  C   UNL     1      17.981  49.636  42.932  1.00  0.00     0.210 C 
ENDBRANCH  17  30
ENDBRANCH   1  13
BRANCH   5  32
HETATM   32  N   UNL     1      21.862  50.813  50.630  1.00  0.00    -0.282 NA
HETATM   33  H   UNL     1      21.587  50.514  51.563  1.00  0.00     0.126 HD
HETATM   34  H   UNL     1      22.490  51.614  50.648  1.00  0.00     0.126 HD
ENDBRANCH   5  32
BRANCH  12  35
HETATM   35  C   UNL     1      16.615  52.187  46.553  1.00  0.00    -0.005 A 
HETATM   36  C   UNL     1      17.230  52.830  45.471  1.00  0.00     0.015 A 
HETATM   37  C   UNL     1      16.588  52.902  44.230  1.00  0.00     0.020 A 
HETATM   38  C   UNL     1      15.323  52.337  44.070  1.00  0.00     0.011 A 
HETATM   39 BR   UNL     1      14.454  52.444  42.394  1.00  0.00    -0.051 Br
HETATM   40  C   UNL     1      14.692  51.706  45.137  1.00  0.00     0.020 A 
HETATM   41  C   UNL     1      15.337  51.634  46.374  1.00  0.00     0.015 A 
ENDBRANCH  12  35
TORSDOF 7
ENDMDL
MODEL 10
REMARK VINA RESULT:      -6.9      3.721      6.251
REMARK  7 active torsions:
REMARK  status: ('A' for Active; 'I' for Inactive)
REMARK    1  A    between atoms: O_2  and  C_3 
REMARK    2  A    between atoms: C_4  and  O_5 
REMARK    3  A    between atoms: O_5  and  C_6 
REMARK       I    between atoms: C_6  and  N_7 
REMARK    4  A    between atoms: C_14  and  O_15 
REMARK    5  A    between atoms: C_18  and  C_19 
REMARK    6  A    between atoms: C_23  and  N_24 
REMARK    7  A    between atoms: C_31  and  C_32 
ROOT
HETATM    1  C   UNL     1      20.312  48.112  47.568  1.00  0.00     0.106 A 
HETATM    2  C   UNL     1      21.125  49.111  48.407  1.00  0.00     0.081 A 
HETATM    3  C   UNL     1      22.291  49.659  47.797  1.00  0.00     0.100 C 
HETATM    4  N   UNL     1      23.229  50.108  47.281  1.00  0.00    -0.191 NA
HETATM    5  C   UNL     1      20.741  49.524  49.645  1.00  0.00     0.140 A 
HETATM    6  O   UNL     1      19.552  49.077  50.242  1.00  0.00    -0.279 OA
HETATM    7  C   UNL     1      18.775  48.302  49.497  1.00  0.00     0.175 A 
HETATM    8  C   UNL     1      19.017  47.803  48.242  1.00  0.00     0.040 A 
HETATM    9  N   UNL     1      17.554  47.853  49.875  1.00  0.00    -0.256 N 
HETATM   10  H   UNL     1      17.059  48.032  50.741  1.00  0.00     0.191 HD
HETATM   11  N   UNL     1      16.977  47.074  48.943  1.00  0.00    -0.172 NA
HETATM   12  C   UNL     1      17.849  47.056  47.914  1.00  0.00     0.099 A 
ENDROOT
BRANCH   1  13
HETATM   13  C   UNL     1      21.071  46.801  47.353  1.00  0.00    -0.039 C 
HETATM   14  C   UNL     1      21.470  46.329  46.083  1.00  0.00     0.048 C 
HETATM   15  C   UNL     1      22.044  45.064  45.925  1.00  0.00     0.105 C 
HETATM   16  C   UNL     1      22.122  44.216  47.033  1.00  0.00     0.147 C 
HETATM   17  C   UNL     1      21.811  44.680  48.310  1.00  0.00     0.105 C 
HETATM   18  C   UNL     1      21.281  45.962  48.468  1.00  0.00     0.048 C 
BRANCH  15  19
HETATM   19  O   UNL     1      22.491  44.573  44.725  1.00  0.00    -0.353 OA
HETATM   20  C   UNL     1      21.582  44.715  43.639  1.00  0.00     0.210 C 
ENDBRANCH  15  19
BRANCH  16  21
HETATM   21  O   UNL     1      22.555  42.891  46.898  1.00  0.00    -0.256 OA
BRANCH  21  22
HETATM   22  C   UNL     1      21.587  42.056  46.348  1.00  0.00     0.368 C 
HETATM   23  N   UNL     1      22.141  41.032  45.597  1.00  0.00    -0.324 N 
HETATM   24  C   UNL     1      23.510  40.554  45.777  1.00  0.00     0.154 C 
HETATM   25  C   UNL     1      21.276  40.106  44.873  1.00  0.00     0.154 C 
HETATM   26  C   UNL     1      23.487  39.146  46.393  1.00  0.00     0.187 C 
HETATM   27  O   UNL     1      22.688  38.247  45.602  1.00  0.00    -0.388 OA
HETATM   28  C   UNL     1      21.329  38.715  45.512  1.00  0.00     0.187 C 
HETATM   29  O   UNL     1      20.372  42.190  46.485  1.00  0.00    -0.238 OA
ENDBRANCH  21  22
ENDBRANCH  16  21
BRANCH  17  30
HETATM   30  O   UNL     1      21.955  43.830  49.375  1.00  0.00    -0.353 OA
HETATM   31  C   UNL     1      23.172  44.073  50.078  1.00  0.00     0.210 C 
ENDBRANCH  17  30
ENDBRANCH   1  13
BRANCH   5  32
HETATM   32  N   UNL     1      21.433  50.411  50.440  1.00  0.00    -0.282 NA
HETATM   33  H   UNL     1      22.431  50.475  50.251  1.00  0.00     0.126 HD
HETATM   34  H   UNL     1      21.234  50.269  51.428  1.00  0.00     0.126 HD
ENDBRANCH   5  32
BRANCH  12  35
HETATM   35  C   UNL     1      17.540  46.300  46.701  1.00  0.00    -0.005 A 
HETATM   36  C   UNL     1      17.909  44.955  46.561  1.00  0.00     0.015 A 
HETATM   37  C   UNL     1      17.607  44.255  45.389  1.00  0.00     0.020 A 
HETATM   38  C   UNL     1      16.939  44.899  44.348  1.00  0.00     0.011 A 
HETATM   39 BR   UNL     1      16.540  43.952  42.761  1.00  0.00    -0.051 Br
HETATM   40  C   UNL     1      16.575  46.237  44.464  1.00  0.00     0.020 A 
HETATM   41  C   UNL     1      16.877  46.933  45.637  1.00  0.00     0.015 A 
ENDBRANCH  12  35
TORSDOF 7
ENDMDL
