MODEL 1
REMARK VINA RESULT:      -9.3      0.000      0.000
REMARK  11 active torsions:
REMARK  status: ('A' for Active; 'I' for Inactive)
REMARK    1  A    between atoms: C_4  and  C_5 
REMARK    2  A    between atoms: C_7  and  O_8 
REMARK    3  A    between atoms: C_10  and  O_11 
REMARK    4  A    between atoms: C_16  and  C_17 
REMARK    5  A    between atoms: C_20  and  C_21 
REMARK    6  A    between atoms: C_21  and  N_22 
REMARK    7  A    between atoms: N_22  and  C_23 
REMARK    8  A    between atoms: C_23  and  N_24 
REMARK    9  A    between atoms: N_24  and  C_25 
REMARK   10  A    between atoms: C_27  and  C_28 
REMARK   11  A    between atoms: C_28  and  O_29 
ROOT
HETATM    1  C   UNL     1      25.055  42.899  50.389  1.00  0.00     0.067 C 
HETATM    2  C   UNL     1      25.206  43.084  48.867  1.00  0.00     0.001 C 
HETATM    3  C   UNL     1      24.307  44.214  48.328  1.00  0.00     0.040 C 
HETATM    4  C   UNL     1      22.814  43.925  48.553  1.00  0.00     0.206 C 
HETATM    5  N   UNL     1      22.737  42.704  49.468  1.00  0.00    -0.065 N 
HETATM    6  H   UNL     1      21.755  42.536  49.729  1.00  0.00     0.280 HD
HETATM    7  C   UNL     1      23.552  42.890  50.750  1.00  0.00     0.246 C 
HETATM    8  C   UNL     1      24.671  41.780  48.216  1.00  0.00     0.033 C 
HETATM    9  C   UNL     1      23.246  41.481  48.708  1.00  0.00     0.236 C 
ENDROOT
BRANCH   4  10
HETATM   10  C   UNL     1      22.023  45.131  49.110  1.00  0.00     0.155 C 
BRANCH  10  11
HETATM   11  N   UNL     1      20.984  45.597  48.192  1.00  0.00    -0.365 N 
HETATM   12  H   UNL     1      20.844  45.057  47.342  1.00  0.00     0.161 HD
BRANCH  11  13
HETATM   13  C   UNL     1      19.865  46.304  48.541  1.00  0.00     0.172 C 
HETATM   14  S   UNL     1      18.305  45.922  48.083  1.00  0.00    -0.041 SA
BRANCH  13  15
HETATM   15  N   UNL     1      20.047  47.425  49.300  1.00  0.00    -0.333 N 
HETATM   16  H   UNL     1      19.636  47.334  50.228  1.00  0.00     0.168 HD
BRANCH  15  17
HETATM   17  C   UNL     1      20.804  48.598  49.094  1.00  0.00     0.035 A 
HETATM   18  C   UNL     1      22.165  48.607  48.787  1.00  0.00     0.047 A 
HETATM   19  C   UNL     1      22.862  49.815  48.616  1.00  0.00     0.041 A 
HETATM   20  C   UNL     1      22.192  51.029  48.782  1.00  0.00     0.018 A 
HETATM   21  C   UNL     1      20.840  51.030  49.122  1.00  0.00     0.003 A 
HETATM   22  C   UNL     1      20.153  49.822  49.280  1.00  0.00     0.029 A 
BRANCH  19  23
HETATM   23  C   UNL     1      24.304  49.730  48.257  1.00  0.00     0.293 C 
HETATM   24  O   UNL     1      24.754  50.178  47.211  1.00  0.00    -0.259 OA
BRANCH  23  25
HETATM   25  O   UNL     1      25.008  49.109  49.231  1.00  0.00    -0.323 OA
HETATM   26  C   UNL     1      26.420  49.077  49.010  1.00  0.00     0.213 C 
ENDBRANCH  23  25
ENDBRANCH  19  23
ENDBRANCH  15  17
ENDBRANCH  13  15
ENDBRANCH  11  13
ENDBRANCH  10  11
ENDBRANCH   4  10
BRANCH   1  27
HETATM   27  C   UNL     1      25.863  43.713  51.364  1.00  0.00     0.038 C 
HETATM   28  N   UNL     1      25.755  45.025  51.772  1.00  0.00    -0.277 N 
HETATM   29  C   UNL     1      24.948  46.118  51.285  1.00  0.00     0.179 C 
HETATM   30  N   UNL     1      26.549  45.317  52.814  1.00  0.00    -0.172 NA
HETATM   31  C   UNL     1      27.335  44.253  52.984  1.00  0.00     0.089 C 
HETATM   32  C   UNL     1      26.942  43.229  52.095  1.00  0.00     0.061 C 
BRANCH  31  33
HETATM   33  C   UNL     1      28.390  44.223  53.996  1.00  0.00    -0.003 A 
HETATM   34  C   UNL     1      28.476  45.244  54.954  1.00  0.00     0.053 A 
HETATM   35  C   UNL     1      29.465  45.220  55.944  1.00  0.00     0.102 A 
HETATM   36  C   UNL     1      30.399  44.165  55.968  1.00  0.00     0.101 A 
HETATM   37  C   UNL     1      30.320  43.151  55.009  1.00  0.00     0.040 A 
HETATM   38  C   UNL     1      29.321  43.179  54.030  1.00  0.00     0.017 A 
BRANCH  35  39
HETATM   39  O   UNL     1      29.603  46.170  56.926  1.00  0.00    -0.353 OA
HETATM   40  C   UNL     1      28.627  46.200  57.958  1.00  0.00     0.210 C 
ENDBRANCH  35  39
BRANCH  36  41
HETATM   41  O   UNL     1      31.335  44.210  56.971  1.00  0.00    -0.353 OA
HETATM   42  C   UNL     1      32.141  43.059  57.176  1.00  0.00     0.210 C 
ENDBRANCH  36  41
ENDBRANCH  31  33
ENDBRANCH   1  27
TORSDOF 11
ENDMDL
MODEL 2
REMARK VINA RESULT:      -9.1      2.730      3.564
REMARK  11 active torsions:
REMARK  status: ('A' for Active; 'I' for Inactive)
REMARK    1  A    between atoms: C_4  and  C_5 
REMARK    2  A    between atoms: C_7  and  O_8 
REMARK    3  A    between atoms: C_10  and  O_11 
REMARK    4  A    between atoms: C_16  and  C_17 
REMARK    5  A    between atoms: C_20  and  C_21 
REMARK    6  A    between atoms: C_21  and  N_22 
REMARK    7  A    between atoms: N_22  and  C_23 
REMARK    8  A    between atoms: C_23  and  N_24 
REMARK    9  A    between atoms: N_24  and  C_25 
REMARK   10  A    between atoms: C_27  and  C_28 
REMARK   11  A    between atoms: C_28  and  O_29 
ROOT
HETATM    1  C   UNL     1      25.396  42.119  50.531  1.00  0.00     0.067 C 
HETATM    2  C   UNL     1      25.478  42.286  49.001  1.00  0.00     0.001 C 
HETATM    3  C   UNL     1      25.438  43.768  48.576  1.00  0.00     0.040 C 
HETATM    4  C   UNL     1      24.126  44.454  48.987  1.00  0.00     0.206 C 
HETATM    5  N   UNL     1      23.390  43.480  49.907  1.00  0.00    -0.065 N 
HETATM    6  H   UNL     1      22.553  43.940  50.289  1.00  0.00     0.280 HD
HETATM    7  C   UNL     1      24.264  43.019  51.076  1.00  0.00     0.246 C 
HETATM    8  C   UNL     1      24.183  41.654  48.425  1.00  0.00     0.033 C 
HETATM    9  C   UNL     1      22.943  42.269  49.092  1.00  0.00     0.236 C 
ENDROOT
BRANCH   4  10
HETATM   10  C   UNL     1      24.325  45.843  49.637  1.00  0.00     0.155 C 
BRANCH  10  11
HETATM   11  N   UNL     1      23.208  46.751  49.380  1.00  0.00    -0.365 N 
HETATM   12  H   UNL     1      22.280  46.427  49.641  1.00  0.00     0.161 HD
BRANCH  11  13
HETATM   13  C   UNL     1      23.280  48.117  49.335  1.00  0.00     0.172 C 
HETATM   14  S   UNL     1      24.587  48.992  48.775  1.00  0.00    -0.041 SA
BRANCH  13  15
HETATM   15  N   UNL     1      22.207  48.815  49.813  1.00  0.00    -0.333 N 
HETATM   16  H   UNL     1      22.243  48.935  50.824  1.00  0.00     0.168 HD
BRANCH  15  17
HETATM   17  C   UNL     1      21.162  49.508  49.166  1.00  0.00     0.035 A 
HETATM   18  C   UNL     1      20.026  48.894  48.635  1.00  0.00     0.047 A 
HETATM   19  C   UNL     1      19.034  49.644  47.983  1.00  0.00     0.041 A 
HETATM   20  C   UNL     1      19.195  51.024  47.836  1.00  0.00     0.018 A 
HETATM   21  C   UNL     1      20.342  51.641  48.333  1.00  0.00     0.003 A 
HETATM   22  C   UNL     1      21.319  50.886  48.990  1.00  0.00     0.029 A 
BRANCH  19  23
HETATM   23  C   UNL     1      17.840  48.912  47.478  1.00  0.00     0.293 C 
HETATM   24  O   UNL     1      17.658  48.680  46.291  1.00  0.00    -0.259 OA
BRANCH  23  25
HETATM   25  O   UNL     1      17.025  48.556  48.497  1.00  0.00    -0.323 OA
HETATM   26  C   UNL     1      16.751  47.156  48.572  1.00  0.00     0.213 C 
ENDBRANCH  23  25
ENDBRANCH  19  23
ENDBRANCH  15  17
ENDBRANCH  13  15
ENDBRANCH  11  13
ENDBRANCH  10  11
ENDBRANCH   4  10
BRANCH   1  27
HETATM   27  C   UNL     1      26.627  42.176  51.395  1.00  0.00     0.038 C 
HETATM   28  N   UNL     1      27.807  41.467  51.356  1.00  0.00    -0.277 N 
HETATM   29  C   UNL     1      28.207  40.311  50.590  1.00  0.00     0.179 C 
HETATM   30  N   UNL     1      28.743  41.959  52.183  1.00  0.00    -0.172 NA
HETATM   31  C   UNL     1      28.127  42.883  52.923  1.00  0.00     0.089 C 
HETATM   32  C   UNL     1      26.801  43.047  52.465  1.00  0.00     0.061 C 
BRANCH  31  33
HETATM   33  C   UNL     1      28.813  43.600  53.996  1.00  0.00    -0.003 A 
HETATM   34  C   UNL     1      28.292  44.809  54.481  1.00  0.00     0.053 A 
HETATM   35  C   UNL     1      28.924  45.497  55.524  1.00  0.00     0.102 A 
HETATM   36  C   UNL     1      30.110  44.978  56.081  1.00  0.00     0.101 A 
HETATM   37  C   UNL     1      30.635  43.779  55.592  1.00  0.00     0.040 A 
HETATM   38  C   UNL     1      29.990  43.093  54.557  1.00  0.00     0.017 A 
BRANCH  35  39
HETATM   39  O   UNL     1      28.468  46.673  56.066  1.00  0.00    -0.353 OA
HETATM   40  C   UNL     1      27.599  47.472  55.274  1.00  0.00     0.210 C 
ENDBRANCH  35  39
BRANCH  36  41
HETATM   41  O   UNL     1      30.668  45.709  57.100  1.00  0.00    -0.353 OA
HETATM   42  C   UNL     1      31.098  45.008  58.258  1.00  0.00     0.210 C 
ENDBRANCH  36  41
ENDBRANCH  31  33
ENDBRANCH   1  27
TORSDOF 11
ENDMDL
MODEL 3
REMARK VINA RESULT:      -9.1      2.578      3.751
REMARK  11 active torsions:
REMARK  status: ('A' for Active; 'I' for Inactive)
REMARK    1  A    between atoms: C_4  and  C_5 
REMARK    2  A    between atoms: C_7  and  O_8 
REMARK    3  A    between atoms: C_10  and  O_11 
REMARK    4  A    between atoms: C_16  and  C_17 
REMARK    5  A    between atoms: C_20  and  C_21 
REMARK    6  A    between atoms: C_21  and  N_22 
REMARK    7  A    between atoms: N_22  and  C_23 
REMARK    8  A    between atoms: C_23  and  N_24 
REMARK    9  A    between atoms: N_24  and  C_25 
REMARK   10  A    between atoms: C_27  and  C_28 
REMARK   11  A    between atoms: C_28  and  O_29 
ROOT
HETATM    1  C   UNL     1      27.776  40.457  50.336  1.00  0.00     0.067 C 
HETATM    2  C   UNL     1      28.245  40.295  48.878  1.00  0.00     0.001 C 
HETATM    3  C   UNL     1      27.177  40.763  47.868  1.00  0.00     0.040 C 
HETATM    4  C   UNL     1      25.884  39.939  47.970  1.00  0.00     0.206 C 
HETATM    5  N   UNL     1      26.011  39.075  49.224  1.00  0.00    -0.065 N 
HETATM    6  H   UNL     1      25.122  38.582  49.388  1.00  0.00     0.280 HD
HETATM    7  C   UNL     1      26.338  39.907  50.467  1.00  0.00     0.246 C 
HETATM    8  C   UNL     1      28.403  38.770  48.638  1.00  0.00     0.033 C 
HETATM    9  C   UNL     1      27.103  38.034  49.001  1.00  0.00     0.236 C 
ENDROOT
BRANCH   4  10
HETATM   10  C   UNL     1      24.597  40.797  47.972  1.00  0.00     0.155 C 
BRANCH  10  11
HETATM   11  N   UNL     1      24.677  41.935  47.056  1.00  0.00    -0.365 N 
HETATM   12  H   UNL     1      25.463  41.956  46.413  1.00  0.00     0.161 HD
BRANCH  11  13
HETATM   13  C   UNL     1      23.617  42.667  46.594  1.00  0.00     0.172 C 
HETATM   14  S   UNL     1      23.170  42.802  44.990  1.00  0.00    -0.041 SA
BRANCH  13  15
HETATM   15  N   UNL     1      22.887  43.361  47.517  1.00  0.00    -0.333 N 
HETATM   16  H   UNL     1      22.339  42.748  48.118  1.00  0.00     0.168 HD
BRANCH  15  17
HETATM   17  C   UNL     1      22.866  44.726  47.877  1.00  0.00     0.035 A 
HETATM   18  C   UNL     1      23.675  45.287  48.865  1.00  0.00     0.047 A 
HETATM   19  C   UNL     1      23.585  46.652  49.188  1.00  0.00     0.041 A 
HETATM   20  C   UNL     1      22.653  47.457  48.531  1.00  0.00     0.018 A 
HETATM   21  C   UNL     1      21.816  46.898  47.565  1.00  0.00     0.003 A 
HETATM   22  C   UNL     1      21.921  45.541  47.245  1.00  0.00     0.029 A 
BRANCH  19  23
HETATM   23  C   UNL     1      24.510  47.173  50.231  1.00  0.00     0.293 C 
HETATM   24  O   UNL     1      24.984  48.300  50.193  1.00  0.00    -0.259 OA
BRANCH  23  25
HETATM   25  O   UNL     1      24.732  46.243  51.188  1.00  0.00    -0.323 OA
HETATM   26  C   UNL     1      25.485  46.715  52.307  1.00  0.00     0.213 C 
ENDBRANCH  23  25
ENDBRANCH  19  23
ENDBRANCH  15  17
ENDBRANCH  13  15
ENDBRANCH  11  13
ENDBRANCH  10  11
ENDBRANCH   4  10
BRANCH   1  27
HETATM   27  C   UNL     1      27.953  41.754  51.079  1.00  0.00     0.038 C 
HETATM   28  N   UNL     1      27.423  43.009  50.870  1.00  0.00    -0.277 N 
HETATM   29  C   UNL     1      26.659  43.558  49.776  1.00  0.00     0.179 C 
HETATM   30  N   UNL     1      27.670  43.857  51.881  1.00  0.00    -0.172 NA
HETATM   31  C   UNL     1      28.533  43.229  52.683  1.00  0.00     0.089 C 
HETATM   32  C   UNL     1      28.739  41.913  52.215  1.00  0.00     0.061 C 
BRANCH  31  33
HETATM   33  C   UNL     1      29.092  43.870  53.871  1.00  0.00    -0.003 A 
HETATM   34  C   UNL     1      28.474  45.006  54.416  1.00  0.00     0.053 A 
HETATM   35  C   UNL     1      28.984  45.619  55.567  1.00  0.00     0.102 A 
HETATM   36  C   UNL     1      30.143  45.100  56.176  1.00  0.00     0.101 A 
HETATM   37  C   UNL     1      30.765  43.974  55.629  1.00  0.00     0.040 A 
HETATM   38  C   UNL     1      30.242  43.362  54.485  1.00  0.00     0.017 A 
BRANCH  35  39
HETATM   39  O   UNL     1      28.426  46.719  56.171  1.00  0.00    -0.353 OA
HETATM   40  C   UNL     1      27.470  47.465  55.431  1.00  0.00     0.210 C 
ENDBRANCH  35  39
BRANCH  36  41
HETATM   41  O   UNL     1      30.578  45.754  57.301  1.00  0.00    -0.353 OA
HETATM   42  C   UNL     1      30.341  45.138  58.558  1.00  0.00     0.210 C 
ENDBRANCH  36  41
ENDBRANCH  31  33
ENDBRANCH   1  27
TORSDOF 11
ENDMDL
MODEL 4
REMARK VINA RESULT:      -9.0      3.383      6.361
REMARK  11 active torsions:
REMARK  status: ('A' for Active; 'I' for Inactive)
REMARK    1  A    between atoms: C_4  and  C_5 
REMARK    2  A    between atoms: C_7  and  O_8 
REMARK    3  A    between atoms: C_10  and  O_11 
REMARK    4  A    between atoms: C_16  and  C_17 
REMARK    5  A    between atoms: C_20  and  C_21 
REMARK    6  A    between atoms: C_21  and  N_22 
REMARK    7  A    between atoms: N_22  and  C_23 
REMARK    8  A    between atoms: C_23  and  N_24 
REMARK    9  A    between atoms: N_24  and  C_25 
REMARK   10  A    between atoms: C_27  and  C_28 
REMARK   11  A    between atoms: C_28  and  O_29 
ROOT
HETATM    1  C   UNL     1      22.020  49.751  48.308  1.00  0.00     0.067 C 
HETATM    2  C   UNL     1      21.397  50.777  49.273  1.00  0.00     0.001 C 
HETATM    3  C   UNL     1      20.423  50.120  50.272  1.00  0.00     0.040 C 
HETATM    4  C   UNL     1      19.231  49.455  49.565  1.00  0.00     0.206 C 
HETATM    5  N   UNL     1      19.546  49.464  48.070  1.00  0.00    -0.065 N 
HETATM    6  H   UNL     1      18.820  48.935  47.567  1.00  0.00     0.280 HD
HETATM    7  C   UNL     1      20.905  48.830  47.763  1.00  0.00     0.246 C 
HETATM    8  C   UNL     1      20.525  51.720  48.402  1.00  0.00     0.033 C 
HETATM    9  C   UNL     1      19.525  50.904  47.567  1.00  0.00     0.236 C 
ENDROOT
BRANCH   4  10
HETATM   10  C   UNL     1      18.906  48.037  50.092  1.00  0.00     0.155 C 
BRANCH  10  11
HETATM   11  N   UNL     1      17.537  47.623  49.788  1.00  0.00    -0.365 N 
HETATM   12  H   UNL     1      16.788  48.118  50.265  1.00  0.00     0.161 HD
BRANCH  11  13
HETATM   13  C   UNL     1      17.112  47.058  48.615  1.00  0.00     0.172 C 
HETATM   14  S   UNL     1      16.216  47.839  47.443  1.00  0.00    -0.041 SA
BRANCH  13  15
HETATM   15  N   UNL     1      17.426  45.745  48.406  1.00  0.00    -0.333 N 
HETATM   16  H   UNL     1      16.688  45.117  48.718  1.00  0.00     0.168 HD
BRANCH  15  17
HETATM   17  C   UNL     1      18.491  45.122  47.721  1.00  0.00     0.035 A 
HETATM   18  C   UNL     1      19.792  45.030  48.215  1.00  0.00     0.047 A 
HETATM   19  C   UNL     1      20.810  44.414  47.468  1.00  0.00     0.041 A 
HETATM   20  C   UNL     1      20.525  43.908  46.197  1.00  0.00     0.018 A 
HETATM   21  C   UNL     1      19.236  44.026  45.681  1.00  0.00     0.003 A 
HETATM   22  C   UNL     1      18.228  44.632  46.437  1.00  0.00     0.029 A 
BRANCH  19  23
HETATM   23  C   UNL     1      22.161  44.330  48.086  1.00  0.00     0.293 C 
HETATM   24  O   UNL     1      23.184  44.636  47.489  1.00  0.00    -0.259 OA
BRANCH  23  25
HETATM   25  O   UNL     1      22.081  43.883  49.361  1.00  0.00    -0.323 OA
HETATM   26  C   UNL     1      22.928  42.770  49.650  1.00  0.00     0.213 C 
ENDBRANCH  23  25
ENDBRANCH  19  23
ENDBRANCH  15  17
ENDBRANCH  13  15
ENDBRANCH  11  13
ENDBRANCH  10  11
ENDBRANCH   4  10
BRANCH   1  27
HETATM   27  C   UNL     1      23.258  48.978  48.676  1.00  0.00     0.038 C 
HETATM   28  N   UNL     1      24.595  49.309  48.622  1.00  0.00    -0.277 N 
HETATM   29  C   UNL     1      25.281  50.437  48.039  1.00  0.00     0.179 C 
HETATM   30  N   UNL     1      25.383  48.411  49.234  1.00  0.00    -0.172 NA
HETATM   31  C   UNL     1      24.595  47.375  49.530  1.00  0.00     0.089 C 
HETATM   32  C   UNL     1      23.259  47.687  49.193  1.00  0.00     0.061 C 
BRANCH  31  33
HETATM   33  C   UNL     1      25.116  46.159  50.150  1.00  0.00    -0.003 A 
HETATM   34  C   UNL     1      24.663  45.765  51.418  1.00  0.00     0.053 A 
HETATM   35  C   UNL     1      25.134  44.590  52.017  1.00  0.00     0.102 A 
HETATM   36  C   UNL     1      26.090  43.803  51.346  1.00  0.00     0.101 A 
HETATM   37  C   UNL     1      26.550  44.199  50.086  1.00  0.00     0.040 A 
HETATM   38  C   UNL     1      26.065  45.368  49.491  1.00  0.00     0.017 A 
BRANCH  35  39
HETATM   39  O   UNL     1      24.726  44.128  53.244  1.00  0.00    -0.353 OA
HETATM   40  C   UNL     1      25.266  44.754  54.399  1.00  0.00     0.210 C 
ENDBRANCH  35  39
BRANCH  36  41
HETATM   41  O   UNL     1      26.500  42.666  51.996  1.00  0.00    -0.353 OA
HETATM   42  C   UNL     1      27.856  42.595  52.412  1.00  0.00     0.210 C 
ENDBRANCH  36  41
ENDBRANCH  31  33
ENDBRANCH   1  27
TORSDOF 11
ENDMDL
MODEL 5
REMARK VINA RESULT:      -8.7      5.585     12.328
REMARK  11 active torsions:
REMARK  status: ('A' for Active; 'I' for Inactive)
REMARK    1  A    between atoms: C_4  and  C_5 
REMARK    2  A    between atoms: C_7  and  O_8 
REMARK    3  A    between atoms: C_10  and  O_11 
REMARK    4  A    between atoms: C_16  and  C_17 
REMARK    5  A    between atoms: C_20  and  C_21 
REMARK    6  A    between atoms: C_21  and  N_22 
REMARK    7  A    between atoms: N_22  and  C_23 
REMARK    8  A    between atoms: C_23  and  N_24 
REMARK    9  A    between atoms: N_24  and  C_25 
REMARK   10  A    between atoms: C_27  and  C_28 
REMARK   11  A    between atoms: C_28  and  O_29 
ROOT
HETATM    1  C   UNL     1      19.441  51.288  49.395  1.00  0.00     0.067 C 
HETATM    2  C   UNL     1      20.215  51.073  48.080  1.00  0.00     0.001 C 
HETATM    3  C   UNL     1      20.093  49.625  47.564  1.00  0.00     0.040 C 
HETATM    4  C   UNL     1      20.683  48.606  48.552  1.00  0.00     0.206 C 
HETATM    5  N   UNL     1      20.981  49.367  49.842  1.00  0.00    -0.065 N 
HETATM    6  H   UNL     1      21.282  48.701  50.567  1.00  0.00     0.280 HD
HETATM    7  C   UNL     1      19.756  50.125  50.362  1.00  0.00     0.246 C 
HETATM    8  C   UNL     1      21.717  51.266  48.423  1.00  0.00     0.033 C 
HETATM    9  C   UNL     1      22.122  50.348  49.588  1.00  0.00     0.236 C 
ENDROOT
BRANCH   4  10
HETATM   10  C   UNL     1      19.780  47.373  48.788  1.00  0.00     0.155 C 
BRANCH  10  11
HETATM   11  N   UNL     1      20.546  46.144  48.996  1.00  0.00    -0.365 N 
HETATM   12  H   UNL     1      20.199  45.496  49.698  1.00  0.00     0.161 HD
BRANCH  11  13
HETATM   13  C   UNL     1      21.324  45.517  48.059  1.00  0.00     0.172 C 
HETATM   14  S   UNL     1      20.749  44.545  46.829  1.00  0.00    -0.041 SA
BRANCH  13  15
HETATM   15  N   UNL     1      22.676  45.680  48.160  1.00  0.00    -0.333 N 
HETATM   16  H   UNL     1      23.126  45.757  47.250  1.00  0.00     0.168 HD
BRANCH  15  17
HETATM   17  C   UNL     1      23.525  45.902  49.266  1.00  0.00     0.035 A 
HETATM   18  C   UNL     1      23.895  44.915  50.180  1.00  0.00     0.047 A 
HETATM   19  C   UNL     1      24.727  45.213  51.272  1.00  0.00     0.041 A 
HETATM   20  C   UNL     1      25.170  46.523  51.466  1.00  0.00     0.018 A 
HETATM   21  C   UNL     1      24.778  47.523  50.577  1.00  0.00     0.003 A 
HETATM   22  C   UNL     1      23.958  47.213  49.488  1.00  0.00     0.029 A 
BRANCH  19  23
HETATM   23  C   UNL     1      25.099  44.091  52.178  1.00  0.00     0.293 C 
HETATM   24  O   UNL     1      24.978  44.153  53.393  1.00  0.00    -0.259 OA
BRANCH  23  25
HETATM   25  O   UNL     1      25.569  43.037  51.472  1.00  0.00    -0.323 OA
HETATM   26  C   UNL     1      26.869  42.595  51.867  1.00  0.00     0.213 C 
ENDBRANCH  23  25
ENDBRANCH  19  23
ENDBRANCH  15  17
ENDBRANCH  13  15
ENDBRANCH  11  13
ENDBRANCH  10  11
ENDBRANCH   4  10
BRANCH   1  27
HETATM   27  C   UNL     1      17.978  51.641  49.396  1.00  0.00     0.038 C 
HETATM   28  N   UNL     1      16.862  50.921  49.030  1.00  0.00    -0.277 N 
HETATM   29  C   UNL     1      16.717  49.651  48.360  1.00  0.00     0.179 C 
HETATM   30  N   UNL     1      15.713  51.524  49.372  1.00  0.00    -0.172 NA
HETATM   31  C   UNL     1      16.052  52.744  49.795  1.00  0.00     0.089 C 
HETATM   32  C   UNL     1      17.459  52.859  49.822  1.00  0.00     0.061 C 
BRANCH  31  33
HETATM   33  C   UNL     1      15.051  53.731  50.195  1.00  0.00    -0.003 A 
HETATM   34  C   UNL     1      15.443  54.904  50.857  1.00  0.00     0.053 A 
HETATM   35  C   UNL     1      14.501  55.871  51.226  1.00  0.00     0.102 A 
HETATM   36  C   UNL     1      13.137  55.655  50.945  1.00  0.00     0.101 A 
HETATM   37  C   UNL     1      12.744  54.483  50.294  1.00  0.00     0.040 A 
HETATM   38  C   UNL     1      13.695  53.527  49.919  1.00  0.00     0.017 A 
BRANCH  35  39
HETATM   39  O   UNL     1      14.807  57.051  51.858  1.00  0.00    -0.353 OA
HETATM   40  C   UNL     1      15.249  56.982  53.207  1.00  0.00     0.210 C 
ENDBRANCH  35  39
BRANCH  36  41
HETATM   41  O   UNL     1      12.276  56.650  51.335  1.00  0.00    -0.353 OA
HETATM   42  C   UNL     1      11.564  56.469  52.551  1.00  0.00     0.210 C 
ENDBRANCH  36  41
ENDBRANCH  31  33
ENDBRANCH   1  27
TORSDOF 11
ENDMDL
MODEL 6
REMARK VINA RESULT:      -8.7      3.974      6.884
REMARK  11 active torsions:
REMARK  status: ('A' for Active; 'I' for Inactive)
REMARK    1  A    between atoms: C_4  and  C_5 
REMARK    2  A    between atoms: C_7  and  O_8 
REMARK    3  A    between atoms: C_10  and  O_11 
REMARK    4  A    between atoms: C_16  and  C_17 
REMARK    5  A    between atoms: C_20  and  C_21 
REMARK    6  A    between atoms: C_21  and  N_22 
REMARK    7  A    between atoms: N_22  and  C_23 
REMARK    8  A    between atoms: C_23  and  N_24 
REMARK    9  A    between atoms: N_24  and  C_25 
REMARK   10  A    between atoms: C_27  and  C_28 
REMARK   11  A    between atoms: C_28  and  O_29 
ROOT
HETATM    1  C   UNL     1      21.854  49.882  48.354  1.00  0.00     0.067 C 
HETATM    2  C   UNL     1      21.102  50.856  49.281  1.00  0.00     0.001 C 
HETATM    3  C   UNL     1      20.098  50.126  50.198  1.00  0.00     0.040 C 
HETATM    4  C   UNL     1      19.004  49.402  49.399  1.00  0.00     0.206 C 
HETATM    5  N   UNL     1      19.425  49.452  47.931  1.00  0.00    -0.065 N 
HETATM    6  H   UNL     1      18.772  48.888  47.370  1.00  0.00     0.280 HD
HETATM    7  C   UNL     1      20.839  48.905  47.718  1.00  0.00     0.246 C 
HETATM    8  C   UNL     1      20.240  51.758  48.358  1.00  0.00     0.033 C 
HETATM    9  C   UNL     1      19.354  50.896  47.443  1.00  0.00     0.236 C 
ENDROOT
BRANCH   4  10
HETATM   10  C   UNL     1      18.727  47.960  49.885  1.00  0.00     0.155 C 
BRANCH  10  11
HETATM   11  N   UNL     1      17.371  47.510  49.573  1.00  0.00    -0.365 N 
HETATM   12  H   UNL     1      16.622  47.853  50.169  1.00  0.00     0.161 HD
BRANCH  11  13
HETATM   13  C   UNL     1      16.914  47.140  48.337  1.00  0.00     0.172 C 
HETATM   14  S   UNL     1      17.519  45.877  47.428  1.00  0.00    -0.041 SA
BRANCH  13  15
HETATM   15  N   UNL     1      15.903  47.883  47.797  1.00  0.00    -0.333 N 
HETATM   16  H   UNL     1      15.043  47.347  47.693  1.00  0.00     0.168 HD
BRANCH  15  17
HETATM   17  C   UNL     1      15.789  49.258  47.503  1.00  0.00     0.035 A 
HETATM   18  C   UNL     1      15.835  50.271  48.462  1.00  0.00     0.047 A 
HETATM   19  C   UNL     1      15.692  51.621  48.099  1.00  0.00     0.041 A 
HETATM   20  C   UNL     1      15.474  51.957  46.761  1.00  0.00     0.018 A 
HETATM   21  C   UNL     1      15.393  50.950  45.801  1.00  0.00     0.003 A 
HETATM   22  C   UNL     1      15.546  49.610  46.171  1.00  0.00     0.029 A 
BRANCH  19  23
HETATM   23  C   UNL     1      15.788  52.637  49.182  1.00  0.00     0.293 C 
HETATM   24  O   UNL     1      16.816  52.837  49.814  1.00  0.00    -0.259 OA
BRANCH  23  25
HETATM   25  O   UNL     1      14.609  53.278  49.348  1.00  0.00    -0.323 OA
HETATM   26  C   UNL     1      14.144  53.319  50.699  1.00  0.00     0.213 C 
ENDBRANCH  23  25
ENDBRANCH  19  23
ENDBRANCH  15  17
ENDBRANCH  13  15
ENDBRANCH  11  13
ENDBRANCH  10  11
ENDBRANCH   4  10
BRANCH   1  27
HETATM   27  C   UNL     1      23.107  49.179  48.804  1.00  0.00     0.038 C 
HETATM   28  N   UNL     1      24.440  49.468  48.610  1.00  0.00    -0.277 N 
HETATM   29  C   UNL     1      25.098  50.440  47.770  1.00  0.00     0.179 C 
HETATM   30  N   UNL     1      25.256  48.700  49.348  1.00  0.00    -0.172 NA
HETATM   31  C   UNL     1      24.481  47.762  49.894  1.00  0.00     0.089 C 
HETATM   32  C   UNL     1      23.130  48.022  49.575  1.00  0.00     0.061 C 
BRANCH  31  33
HETATM   33  C   UNL     1      25.029  46.689  50.721  1.00  0.00    -0.003 A 
HETATM   34  C   UNL     1      25.709  46.994  51.910  1.00  0.00     0.053 A 
HETATM   35  C   UNL     1      26.220  45.979  52.727  1.00  0.00     0.102 A 
HETATM   36  C   UNL     1      26.067  44.632  52.341  1.00  0.00     0.101 A 
HETATM   37  C   UNL     1      25.398  44.327  51.152  1.00  0.00     0.040 A 
HETATM   38  C   UNL     1      24.881  45.349  50.348  1.00  0.00     0.017 A 
BRANCH  35  39
HETATM   39  O   UNL     1      26.879  46.195  53.912  1.00  0.00    -0.353 OA
HETATM   40  C   UNL     1      26.622  47.412  54.599  1.00  0.00     0.210 C 
ENDBRANCH  35  39
BRANCH  36  41
HETATM   41  O   UNL     1      26.593  43.696  53.195  1.00  0.00    -0.353 OA
HETATM   42  C   UNL     1      27.480  42.729  52.652  1.00  0.00     0.210 C 
ENDBRANCH  36  41
ENDBRANCH  31  33
ENDBRANCH   1  27
TORSDOF 11
ENDMDL
MODEL 7
REMARK VINA RESULT:      -8.7      3.631      6.673
REMARK  11 active torsions:
REMARK  status: ('A' for Active; 'I' for Inactive)
REMARK    1  A    between atoms: C_4  and  C_5 
REMARK    2  A    between atoms: C_7  and  O_8 
REMARK    3  A    between atoms: C_10  and  O_11 
REMARK    4  A    between atoms: C_16  and  C_17 
REMARK    5  A    between atoms: C_20  and  C_21 
REMARK    6  A    between atoms: C_21  and  N_22 
REMARK    7  A    between atoms: N_22  and  C_23 
REMARK    8  A    between atoms: C_23  and  N_24 
REMARK    9  A    between atoms: N_24  and  C_25 
REMARK   10  A    between atoms: C_27  and  C_28 
REMARK   11  A    between atoms: C_28  and  O_29 
ROOT
HETATM    1  C   UNL     1      22.437  50.010  48.997  1.00  0.00     0.067 C 
HETATM    2  C   UNL     1      21.178  49.816  49.863  1.00  0.00     0.001 C 
HETATM    3  C   UNL     1      20.190  48.812  49.234  1.00  0.00     0.040 C 
HETATM    4  C   UNL     1      19.672  49.287  47.868  1.00  0.00     0.206 C 
HETATM    5  N   UNL     1      20.510  50.504  47.479  1.00  0.00    -0.065 N 
HETATM    6  H   UNL     1      20.265  50.793  46.522  1.00  0.00     0.280 HD
HETATM    7  C   UNL     1      22.012  50.208  47.525  1.00  0.00     0.246 C 
HETATM    8  C   UNL     1      20.437  51.180  49.866  1.00  0.00     0.033 C 
HETATM    9  C   UNL     1      20.184  51.655  48.426  1.00  0.00     0.236 C 
ENDROOT
BRANCH   4  10
HETATM   10  C   UNL     1      19.685  48.188  46.780  1.00  0.00     0.155 C 
BRANCH  10  11
HETATM   11  N   UNL     1      20.263  46.931  47.255  1.00  0.00    -0.365 N 
HETATM   12  H   UNL     1      19.700  46.378  47.896  1.00  0.00     0.161 HD
BRANCH  11  13
HETATM   13  C   UNL     1      21.177  46.166  46.584  1.00  0.00     0.172 C 
HETATM   14  S   UNL     1      20.975  45.560  45.041  1.00  0.00    -0.041 SA
BRANCH  13  15
HETATM   15  N   UNL     1      22.333  45.853  47.242  1.00  0.00    -0.333 N 
HETATM   16  H   UNL     1      22.942  46.661  47.359  1.00  0.00     0.168 HD
BRANCH  15  17
HETATM   17  C   UNL     1      22.762  44.681  47.900  1.00  0.00     0.035 A 
HETATM   18  C   UNL     1      23.558  43.698  47.310  1.00  0.00     0.047 A 
HETATM   19  C   UNL     1      23.929  42.543  48.019  1.00  0.00     0.041 A 
HETATM   20  C   UNL     1      23.474  42.359  49.326  1.00  0.00     0.018 A 
HETATM   21  C   UNL     1      22.651  43.319  49.912  1.00  0.00     0.003 A 
HETATM   22  C   UNL     1      22.295  44.469  49.201  1.00  0.00     0.029 A 
BRANCH  19  23
HETATM   23  C   UNL     1      24.808  41.564  47.323  1.00  0.00     0.293 C 
HETATM   24  O   UNL     1      24.566  41.134  46.204  1.00  0.00    -0.259 OA
BRANCH  23  25
HETATM   25  O   UNL     1      25.873  41.241  48.092  1.00  0.00    -0.323 OA
HETATM   26  C   UNL     1      26.229  39.857  48.056  1.00  0.00     0.213 C 
ENDBRANCH  23  25
ENDBRANCH  19  23
ENDBRANCH  15  17
ENDBRANCH  13  15
ENDBRANCH  11  13
ENDBRANCH  10  11
ENDBRANCH   4  10
BRANCH   1  27
HETATM   27  C   UNL     1      23.625  49.095  49.121  1.00  0.00     0.038 C 
HETATM   28  N   UNL     1      24.939  49.240  48.732  1.00  0.00    -0.277 N 
HETATM   29  C   UNL     1      25.594  50.238  47.921  1.00  0.00     0.179 C 
HETATM   30  N   UNL     1      25.737  48.271  49.208  1.00  0.00    -0.172 NA
HETATM   31  C   UNL     1      24.926  47.365  49.757  1.00  0.00     0.089 C 
HETATM   32  C   UNL     1      23.596  47.840  49.720  1.00  0.00     0.061 C 
BRANCH  31  33
HETATM   33  C   UNL     1      25.431  46.119  50.327  1.00  0.00    -0.003 A 
HETATM   34  C   UNL     1      24.926  45.647  51.548  1.00  0.00     0.053 A 
HETATM   35  C   UNL     1      25.381  44.442  52.098  1.00  0.00     0.102 A 
HETATM   36  C   UNL     1      26.375  43.703  51.426  1.00  0.00     0.101 A 
HETATM   37  C   UNL     1      26.886  44.177  50.214  1.00  0.00     0.040 A 
HETATM   38  C   UNL     1      26.416  45.376  49.667  1.00  0.00     0.017 A 
BRANCH  35  39
HETATM   39  O   UNL     1      24.924  43.905  53.276  1.00  0.00    -0.353 OA
HETATM   40  C   UNL     1      25.250  44.582  54.482  1.00  0.00     0.210 C 
ENDBRANCH  35  39
BRANCH  36  41
HETATM   41  O   UNL     1      26.767  42.534  52.026  1.00  0.00    -0.353 OA
HETATM   42  C   UNL     1      27.408  41.557  51.219  1.00  0.00     0.210 C 
ENDBRANCH  36  41
ENDBRANCH  31  33
ENDBRANCH   1  27
TORSDOF 11
ENDMDL
MODEL 8
REMARK VINA RESULT:      -8.5      5.429     12.172
REMARK  11 active torsions:
REMARK  status: ('A' for Active; 'I' for Inactive)
REMARK    1  A    between atoms: C_4  and  C_5 
REMARK    2  A    between atoms: C_7  and  O_8 
REMARK    3  A    between atoms: C_10  and  O_11 
REMARK    4  A    between atoms: C_16  and  C_17 
REMARK    5  A    between atoms: C_20  and  C_21 
REMARK    6  A    between atoms: C_21  and  N_22 
REMARK    7  A    between atoms: N_22  and  C_23 
REMARK    8  A    between atoms: C_23  and  N_24 
REMARK    9  A    between atoms: N_24  and  C_25 
REMARK   10  A    between atoms: C_27  and  C_28 
REMARK   11  A    between atoms: C_28  and  O_29 
ROOT
HETATM    1  C   UNL     1      19.434  51.187  49.536  1.00  0.00     0.067 C 
HETATM    2  C   UNL     1      20.329  51.161  48.282  1.00  0.00     0.001 C 
HETATM    3  C   UNL     1      20.242  49.815  47.534  1.00  0.00     0.040 C 
HETATM    4  C   UNL     1      20.724  48.639  48.398  1.00  0.00     0.206 C 
HETATM    5  N   UNL     1      20.904  49.181  49.815  1.00  0.00    -0.065 N 
HETATM    6  H   UNL     1      21.127  48.402  50.450  1.00  0.00     0.280 HD
HETATM    7  C   UNL     1      19.643  49.878  50.331  1.00  0.00     0.246 C 
HETATM    8  C   UNL     1      21.793  51.259  48.790  1.00  0.00     0.033 C 
HETATM    9  C   UNL     1      22.074  50.160  49.827  1.00  0.00     0.236 C 
ENDROOT
BRANCH   4  10
HETATM   10  C   UNL     1      19.790  47.407  48.351  1.00  0.00     0.155 C 
BRANCH  10  11
HETATM   11  N   UNL     1      20.395  46.218  48.949  1.00  0.00    -0.365 N 
HETATM   12  H   UNL     1      19.768  45.562  49.408  1.00  0.00     0.161 HD
BRANCH  11  13
HETATM   13  C   UNL     1      21.555  45.618  48.540  1.00  0.00     0.172 C 
HETATM   14  S   UNL     1      21.945  45.260  46.956  1.00  0.00    -0.041 SA
BRANCH  13  15
HETATM   15  N   UNL     1      22.448  45.260  49.510  1.00  0.00    -0.333 N 
HETATM   16  H   UNL     1      22.056  44.590  50.169  1.00  0.00     0.168 HD
BRANCH  15  17
HETATM   17  C   UNL     1      23.824  45.528  49.678  1.00  0.00     0.035 A 
HETATM   18  C   UNL     1      24.411  46.774  49.457  1.00  0.00     0.047 A 
HETATM   19  C   UNL     1      25.794  46.963  49.622  1.00  0.00     0.041 A 
HETATM   20  C   UNL     1      26.601  45.883  49.987  1.00  0.00     0.018 A 
HETATM   21  C   UNL     1      26.027  44.627  50.177  1.00  0.00     0.003 A 
HETATM   22  C   UNL     1      24.649  44.451  50.019  1.00  0.00     0.029 A 
BRANCH  19  23
HETATM   23  C   UNL     1      26.330  48.334  49.399  1.00  0.00     0.293 C 
HETATM   24  O   UNL     1      27.528  48.575  49.342  1.00  0.00    -0.259 OA
BRANCH  23  25
HETATM   25  O   UNL     1      25.326  49.230  49.270  1.00  0.00    -0.323 OA
HETATM   26  C   UNL     1      25.373  50.001  48.067  1.00  0.00     0.213 C 
ENDBRANCH  23  25
ENDBRANCH  19  23
ENDBRANCH  15  17
ENDBRANCH  13  15
ENDBRANCH  11  13
ENDBRANCH  10  11
ENDBRANCH   4  10
BRANCH   1  27
HETATM   27  C   UNL     1      17.982  51.572  49.457  1.00  0.00     0.038 C 
HETATM   28  N   UNL     1      16.883  50.905  48.960  1.00  0.00    -0.277 N 
HETATM   29  C   UNL     1      16.765  49.689  48.191  1.00  0.00     0.179 C 
HETATM   30  N   UNL     1      15.722  51.509  49.260  1.00  0.00    -0.172 NA
HETATM   31  C   UNL     1      16.051  52.687  49.794  1.00  0.00     0.089 C 
HETATM   32  C   UNL     1      17.454  52.768  49.930  1.00  0.00     0.061 C 
BRANCH  31  33
HETATM   33  C   UNL     1      15.041  53.666  50.189  1.00  0.00    -0.003 A 
HETATM   34  C   UNL     1      15.416  54.819  50.896  1.00  0.00     0.053 A 
HETATM   35  C   UNL     1      14.465  55.779  51.263  1.00  0.00     0.102 A 
HETATM   36  C   UNL     1      13.110  55.576  50.934  1.00  0.00     0.101 A 
HETATM   37  C   UNL     1      12.734  54.423  50.238  1.00  0.00     0.040 A 
HETATM   38  C   UNL     1      13.693  53.476  49.866  1.00  0.00     0.017 A 
BRANCH  35  39
HETATM   39  O   UNL     1      14.754  56.939  51.937  1.00  0.00    -0.353 OA
HETATM   40  C   UNL     1      15.255  56.826  53.262  1.00  0.00     0.210 C 
ENDBRANCH  35  39
BRANCH  36  41
HETATM   41  O   UNL     1      12.240  56.562  51.326  1.00  0.00    -0.353 OA
HETATM   42  C   UNL     1      11.518  56.367  52.533  1.00  0.00     0.210 C 
ENDBRANCH  36  41
ENDBRANCH  31  33
ENDBRANCH   1  27
TORSDOF 11
ENDMDL
MODEL 9
REMARK VINA RESULT:      -8.4      5.171      7.004
REMARK  11 active torsions:
REMARK  status: ('A' for Active; 'I' for Inactive)
REMARK    1  A    between atoms: C_4  and  C_5 
REMARK    2  A    between atoms: C_7  and  O_8 
REMARK    3  A    between atoms: C_10  and  O_11 
REMARK    4  A    between atoms: C_16  and  C_17 
REMARK    5  A    between atoms: C_20  and  C_21 
REMARK    6  A    between atoms: C_21  and  N_22 
REMARK    7  A    between atoms: N_22  and  C_23 
REMARK    8  A    between atoms: C_23  and  N_24 
REMARK    9  A    between atoms: N_24  and  C_25 
REMARK   10  A    between atoms: C_27  and  C_28 
REMARK   11  A    between atoms: C_28  and  O_29 
ROOT
HETATM    1  C   UNL     1      27.997  40.153  50.615  1.00  0.00     0.067 C 
HETATM    2  C   UNL     1      28.637  39.869  49.242  1.00  0.00     0.001 C 
HETATM    3  C   UNL     1      27.717  40.285  48.076  1.00  0.00     0.040 C 
HETATM    4  C   UNL     1      26.394  39.503  48.074  1.00  0.00     0.206 C 
HETATM    5  N   UNL     1      26.337  38.734  49.393  1.00  0.00    -0.065 N 
HETATM    6  H   UNL     1      25.418  38.277  49.480  1.00  0.00     0.280 HD
HETATM    7  C   UNL     1      26.536  39.650  50.604  1.00  0.00     0.246 C 
HETATM    8  C   UNL     1      28.771  38.327  49.136  1.00  0.00     0.033 C 
HETATM    9  C   UNL     1      27.413  37.652  49.386  1.00  0.00     0.236 C 
ENDROOT
BRANCH   4  10
HETATM   10  C   UNL     1      25.147  40.389  47.852  1.00  0.00     0.155 C 
BRANCH  10  11
HETATM   11  N   UNL     1      25.377  41.452  46.873  1.00  0.00    -0.365 N 
HETATM   12  H   UNL     1      26.288  41.904  46.889  1.00  0.00     0.161 HD
BRANCH  11  13
HETATM   13  C   UNL     1      24.772  41.560  45.651  1.00  0.00     0.172 C 
HETATM   14  S   UNL     1      23.408  42.471  45.332  1.00  0.00    -0.041 SA
BRANCH  13  15
HETATM   15  N   UNL     1      25.312  40.844  44.621  1.00  0.00    -0.333 N 
HETATM   16  H   UNL     1      24.667  40.145  44.256  1.00  0.00     0.168 HD
BRANCH  15  17
HETATM   17  C   UNL     1      26.512  40.989  43.892  1.00  0.00     0.035 A 
HETATM   18  C   UNL     1      26.630  41.733  42.718  1.00  0.00     0.047 A 
HETATM   19  C   UNL     1      27.853  41.816  42.031  1.00  0.00     0.041 A 
HETATM   20  C   UNL     1      28.964  41.121  42.513  1.00  0.00     0.018 A 
HETATM   21  C   UNL     1      28.847  40.347  43.666  1.00  0.00     0.003 A 
HETATM   22  C   UNL     1      27.628  40.280  44.348  1.00  0.00     0.029 A 
BRANCH  19  23
HETATM   23  C   UNL     1      27.896  42.660  40.806  1.00  0.00     0.293 C 
HETATM   24  O   UNL     1      28.805  42.596  39.989  1.00  0.00    -0.259 OA
BRANCH  23  25
HETATM   25  O   UNL     1      26.816  43.472  40.740  1.00  0.00    -0.323 OA
HETATM   26  C   UNL     1      27.122  44.841  40.470  1.00  0.00     0.213 C 
ENDBRANCH  23  25
ENDBRANCH  19  23
ENDBRANCH  15  17
ENDBRANCH  13  15
ENDBRANCH  11  13
ENDBRANCH  10  11
ENDBRANCH   4  10
BRANCH   1  27
HETATM   27  C   UNL     1      28.124  41.499  51.278  1.00  0.00     0.038 C 
HETATM   28  N   UNL     1      27.585  42.728  50.966  1.00  0.00    -0.277 N 
HETATM   29  C   UNL     1      26.857  43.191  49.809  1.00  0.00     0.179 C 
HETATM   30  N   UNL     1      27.778  43.644  51.928  1.00  0.00    -0.172 NA
HETATM   31  C   UNL     1      28.617  43.085  52.803  1.00  0.00     0.089 C 
HETATM   32  C   UNL     1      28.862  41.745  52.431  1.00  0.00     0.061 C 
BRANCH  31  33
HETATM   33  C   UNL     1      29.119  43.812  53.967  1.00  0.00    -0.003 A 
HETATM   34  C   UNL     1      28.467  44.973  54.408  1.00  0.00     0.053 A 
HETATM   35  C   UNL     1      28.920  45.668  55.535  1.00  0.00     0.102 A 
HETATM   36  C   UNL     1      30.058  45.206  56.226  1.00  0.00     0.101 A 
HETATM   37  C   UNL     1      30.714  44.055  55.782  1.00  0.00     0.040 A 
HETATM   38  C   UNL     1      30.247  43.361  54.661  1.00  0.00     0.017 A 
BRANCH  35  39
HETATM   39  O   UNL     1      28.326  46.799  56.040  1.00  0.00    -0.353 OA
HETATM   40  C   UNL     1      27.454  47.525  55.184  1.00  0.00     0.210 C 
ENDBRANCH  35  39
BRANCH  36  41
HETATM   41  O   UNL     1      30.438  45.940  57.321  1.00  0.00    -0.353 OA
HETATM   42  C   UNL     1      30.600  45.254  58.554  1.00  0.00     0.210 C 
ENDBRANCH  36  41
ENDBRANCH  31  33
ENDBRANCH   1  27
TORSDOF 11
ENDMDL
MODEL 10
REMARK VINA RESULT:      -8.4      3.963      5.095
REMARK  11 active torsions:
REMARK  status: ('A' for Active; 'I' for Inactive)
REMARK    1  A    between atoms: C_4  and  C_5 
REMARK    2  A    between atoms: C_7  and  O_8 
REMARK    3  A    between atoms: C_10  and  O_11 
REMARK    4  A    between atoms: C_16  and  C_17 
REMARK    5  A    between atoms: C_20  and  C_21 
REMARK    6  A    between atoms: C_21  and  N_22 
REMARK    7  A    between atoms: N_22  and  C_23 
REMARK    8  A    between atoms: C_23  and  N_24 
REMARK    9  A    between atoms: N_24  and  C_25 
REMARK   10  A    between atoms: C_27  and  C_28 
REMARK   11  A    between atoms: C_28  and  O_29 
ROOT
HETATM    1  C   UNL     1      27.853  40.217  50.419  1.00  0.00     0.067 C 
HETATM    2  C   UNL     1      28.718  39.831  49.204  1.00  0.00     0.001 C 
HETATM    3  C   UNL     1      28.122  40.350  47.879  1.00  0.00     0.040 C 
HETATM    4  C   UNL     1      26.736  39.750  47.593  1.00  0.00     0.206 C 
HETATM    5  N   UNL     1      26.306  39.015  48.861  1.00  0.00    -0.065 N 
HETATM    6  H   UNL     1      25.337  38.685  48.751  1.00  0.00     0.280 HD
HETATM    7  C   UNL     1      26.371  39.912  50.100  1.00  0.00     0.246 C 
HETATM    8  C   UNL     1      28.665  38.283  49.105  1.00  0.00     0.033 C 
HETATM    9  C   UNL     1      27.207  37.799  49.060  1.00  0.00     0.236 C 
ENDROOT
BRANCH   4  10
HETATM   10  C   UNL     1      25.690  40.792  47.131  1.00  0.00     0.155 C 
BRANCH  10  11
HETATM   11  N   UNL     1      25.868  41.187  45.734  1.00  0.00    -0.365 N 
HETATM   12  H   UNL     1      26.754  40.950  45.296  1.00  0.00     0.161 HD
BRANCH  11  13
HETATM   13  C   UNL     1      24.867  41.347  44.814  1.00  0.00     0.172 C 
HETATM   14  S   UNL     1      24.055  40.102  44.053  1.00  0.00    -0.041 SA
BRANCH  13  15
HETATM   15  N   UNL     1      24.529  42.626  44.474  1.00  0.00    -0.333 N 
HETATM   16  H   UNL     1      24.992  42.934  43.620  1.00  0.00     0.168 HD
BRANCH  15  17
HETATM   17  C   UNL     1      23.572  43.523  44.992  1.00  0.00     0.035 A 
HETATM   18  C   UNL     1      23.165  43.550  46.327  1.00  0.00     0.047 A 
HETATM   19  C   UNL     1      22.189  44.458  46.770  1.00  0.00     0.041 A 
HETATM   20  C   UNL     1      21.592  45.331  45.858  1.00  0.00     0.018 A 
HETATM   21  C   UNL     1      21.967  45.288  44.515  1.00  0.00     0.003 A 
HETATM   22  C   UNL     1      22.948  44.388  44.087  1.00  0.00     0.029 A 
BRANCH  19  23
HETATM   23  C   UNL     1      21.841  44.440  48.217  1.00  0.00     0.293 C 
HETATM   24  O   UNL     1      20.694  44.558  48.624  1.00  0.00    -0.259 OA
BRANCH  23  25
HETATM   25  O   UNL     1      22.948  44.276  48.977  1.00  0.00    -0.323 OA
HETATM   26  C   UNL     1      22.714  43.623  50.227  1.00  0.00     0.213 C 
ENDBRANCH  23  25
ENDBRANCH  19  23
ENDBRANCH  15  17
ENDBRANCH  13  15
ENDBRANCH  11  13
ENDBRANCH  10  11
ENDBRANCH   4  10
BRANCH   1  27
HETATM   27  C   UNL     1      28.018  41.542  51.113  1.00  0.00     0.038 C 
HETATM   28  N   UNL     1      27.493  42.788  50.846  1.00  0.00    -0.277 N 
HETATM   29  C   UNL     1      26.747  43.293  49.719  1.00  0.00     0.179 C 
HETATM   30  N   UNL     1      27.724  43.675  51.826  1.00  0.00    -0.172 NA
HETATM   31  C   UNL     1      28.573  43.079  52.666  1.00  0.00     0.089 C 
HETATM   32  C   UNL     1      28.786  41.745  52.254  1.00  0.00     0.061 C 
BRANCH  31  33
HETATM   33  C   UNL     1      29.115  43.767  53.836  1.00  0.00    -0.003 A 
HETATM   34  C   UNL     1      28.512  44.945  54.303  1.00  0.00     0.053 A 
HETATM   35  C   UNL     1      29.003  45.604  55.437  1.00  0.00     0.102 A 
HETATM   36  C   UNL     1      30.129  45.088  56.107  1.00  0.00     0.101 A 
HETATM   37  C   UNL     1      30.736  43.919  55.638  1.00  0.00     0.040 A 
HETATM   38  C   UNL     1      30.232  43.262  54.511  1.00  0.00     0.017 A 
BRANCH  35  39
HETATM   39  O   UNL     1      28.458  46.748  55.965  1.00  0.00    -0.353 OA
HETATM   40  C   UNL     1      27.627  47.534  55.123  1.00  0.00     0.210 C 
ENDBRANCH  35  39
BRANCH  36  41
HETATM   41  O   UNL     1      30.548  45.788  57.210  1.00  0.00    -0.353 OA
HETATM   42  C   UNL     1      30.353  45.194  58.485  1.00  0.00     0.210 C 
ENDBRANCH  36  41
ENDBRANCH  31  33
ENDBRANCH   1  27
TORSDOF 11
ENDMDL
