MODEL 1
REMARK VINA RESULT:      -9.9      0.000      0.000
REMARK  7 active torsions:
REMARK  status: ('A' for Active; 'I' for Inactive)
REMARK    1  A    between atoms: C_3  and  N_4 
REMARK    2  A    between atoms: C_5  and  S_6 
REMARK    3  A    between atoms: S_6  and  C_7 
REMARK    4  A    between atoms: C_7  and  C_8 
REMARK       I    between atoms: C_8  and  N_9 
REMARK    5  A    between atoms: N_9  and  C_10 
REMARK    6  A    between atoms: C_13  and  C_14 
REMARK       I    between atoms: C_14  and  N_15 
REMARK    7  A    between atoms: C_22  and  C_23 
ROOT
HETATM    1  N   UNL     1      24.853  45.635  51.020  1.00  0.00    -0.271 N 
HETATM    2  C   UNL     1      23.945  44.669  50.623  1.00  0.00     0.197 C 
HETATM    3  N   UNL     1      23.942  43.676  51.483  1.00  0.00    -0.122 NA
HETATM    4  N   UNL     1      24.757  44.020  52.522  1.00  0.00    -0.128 NA
HETATM    5  C   UNL     1      25.240  45.230  52.292  1.00  0.00     0.171 C 
ENDROOT
BRANCH   2   6
HETATM    6  S   UNL     1      23.046  44.686  49.140  1.00  0.00    -0.080 SA
BRANCH   6   7
HETATM    7  C   UNL     1      24.195  43.873  47.998  1.00  0.00     0.185 C 
BRANCH   7   8
HETATM    8  C   UNL     1      24.767  42.588  48.580  1.00  0.00     0.231 C 
HETATM    9  N   UNL     1      26.143  42.621  48.715  1.00  0.00    -0.327 N 
HETATM   10  H   UNL     1      26.576  43.544  48.653  1.00  0.00     0.169 HD
HETATM   11  O   UNL     1      24.036  41.638  48.849  1.00  0.00    -0.272 OA
BRANCH   9  12
HETATM   12  C   UNL     1      27.014  41.559  49.023  1.00  0.00     0.034 A 
HETATM   13  C   UNL     1      27.496  40.804  47.946  1.00  0.00     0.030 A 
HETATM   14  C   UNL     1      28.314  39.689  48.161  1.00  0.00     0.019 A 
HETATM   15  C   UNL     1      28.658  39.318  49.464  1.00  0.00     0.032 A 
HETATM   16  C   UNL     1      28.207  40.091  50.539  1.00  0.00     0.019 A 
HETATM   17  C   UNL     1      27.383  41.202  50.320  1.00  0.00     0.030 A 
BRANCH  15  18
HETATM   18  C   UNL     1      29.499  38.127  49.750  1.00  0.00     0.249 C 
HETATM   19  N   UNL     1      28.899  37.077  50.391  1.00  0.00    -0.366 N 
HETATM   20  H   UNL     1      28.011  37.167  50.862  1.00  0.00     0.159 HD
HETATM   21  H   UNL     1      29.514  36.329  50.687  1.00  0.00     0.159 HD
HETATM   22  O   UNL     1      30.689  38.092  49.470  1.00  0.00    -0.268 OA
ENDBRANCH  15  18
ENDBRANCH   9  12
ENDBRANCH   7   8
ENDBRANCH   6   7
ENDBRANCH   2   6
BRANCH   1  23
HETATM   23  C   UNL     1      25.364  46.712  50.253  1.00  0.00     0.049 A 
HETATM   24  C   UNL     1      26.690  46.695  49.766  1.00  0.00    -0.035 A 
HETATM   25  C   UNL     1      27.641  45.541  49.944  1.00  0.00     0.050 C 
HETATM   26  C   UNL     1      27.149  47.817  49.055  1.00  0.00     0.009 A 
HETATM   27  C   UNL     1      26.307  48.900  48.797  1.00  0.00     0.001 A 
HETATM   28  C   UNL     1      24.991  48.886  49.252  1.00  0.00     0.002 A 
HETATM   29  C   UNL     1      24.516  47.796  49.979  1.00  0.00     0.031 A 
ENDBRANCH   1  23
BRANCH   5  30
HETATM   30  C   UNL     1      26.001  46.002  53.327  1.00  0.00     0.040 A 
HETATM   31  C   UNL     1      27.170  45.565  54.025  1.00  0.00     0.006 A 
HETATM   32  C   UNL     1      27.530  46.589  54.905  1.00  0.00     0.043 A 
HETATM   33  C   UNL     1      27.974  44.405  53.993  1.00  0.00     0.015 A 
HETATM   34  C   UNL     1      28.644  46.511  55.749  1.00  0.00     0.030 A 
HETATM   35  N   UNL     1      26.605  47.597  54.756  1.00  0.00    -0.364 N 
HETATM   36  C   UNL     1      29.420  45.350  55.694  1.00  0.00     0.002 A 
HETATM   37  C   UNL     1      29.092  44.311  54.830  1.00  0.00     0.001 A 
HETATM   38  H   UNL     1      26.611  48.460  55.282  1.00  0.00     0.165 HD
HETATM   39  C   UNL     1      25.675  47.251  53.812  1.00  0.00     0.104 A 
ENDBRANCH   5  30
TORSDOF 7
ENDMDL
MODEL 2
REMARK VINA RESULT:      -9.7      4.064      7.827
REMARK  7 active torsions:
REMARK  status: ('A' for Active; 'I' for Inactive)
REMARK    1  A    between atoms: C_3  and  N_4 
REMARK    2  A    between atoms: C_5  and  S_6 
REMARK    3  A    between atoms: S_6  and  C_7 
REMARK    4  A    between atoms: C_7  and  C_8 
REMARK       I    between atoms: C_8  and  N_9 
REMARK    5  A    between atoms: N_9  and  C_10 
REMARK    6  A    between atoms: C_13  and  C_14 
REMARK       I    between atoms: C_14  and  N_15 
REMARK    7  A    between atoms: C_22  and  C_23 
ROOT
HETATM    1  N   UNL     1      24.859  45.899  50.607  1.00  0.00    -0.271 N 
HETATM    2  C   UNL     1      23.968  44.975  50.091  1.00  0.00     0.197 C 
HETATM    3  N   UNL     1      23.864  43.949  50.905  1.00  0.00    -0.122 NA
HETATM    4  N   UNL     1      24.590  44.231  52.027  1.00  0.00    -0.128 NA
HETATM    5  C   UNL     1      25.120  45.435  51.891  1.00  0.00     0.171 C 
ENDROOT
BRANCH   2   6
HETATM    6  S   UNL     1      23.207  45.074  48.536  1.00  0.00    -0.080 SA
BRANCH   6   7
HETATM    7  C   UNL     1      21.459  44.850  48.961  1.00  0.00     0.185 C 
BRANCH   7   8
HETATM    8  C   UNL     1      20.621  46.068  48.595  1.00  0.00     0.231 C 
HETATM    9  N   UNL     1      21.128  47.248  49.108  1.00  0.00    -0.327 N 
HETATM   10  H   UNL     1      22.092  47.212  49.442  1.00  0.00     0.169 HD
HETATM   11  O   UNL     1      19.590  45.947  47.939  1.00  0.00    -0.272 OA
BRANCH   9  12
HETATM   12  C   UNL     1      20.519  48.516  49.141  1.00  0.00     0.034 A 
HETATM   13  C   UNL     1      19.215  48.578  49.651  1.00  0.00     0.030 A 
HETATM   14  C   UNL     1      18.506  49.786  49.662  1.00  0.00     0.019 A 
HETATM   15  C   UNL     1      19.100  50.946  49.158  1.00  0.00     0.032 A 
HETATM   16  C   UNL     1      20.414  50.894  48.682  1.00  0.00     0.019 A 
HETATM   17  C   UNL     1      21.118  49.683  48.667  1.00  0.00     0.030 A 
BRANCH  15  18
HETATM   18  C   UNL     1      18.382  52.246  49.119  1.00  0.00     0.249 C 
HETATM   19  N   UNL     1      18.465  52.972  47.962  1.00  0.00    -0.366 N 
HETATM   20  H   UNL     1      19.153  52.777  47.249  1.00  0.00     0.159 HD
HETATM   21  H   UNL     1      18.076  53.907  47.995  1.00  0.00     0.159 HD
HETATM   22  O   UNL     1      17.777  52.682  50.089  1.00  0.00    -0.268 OA
ENDBRANCH  15  18
ENDBRANCH   9  12
ENDBRANCH   7   8
ENDBRANCH   6   7
ENDBRANCH   2   6
BRANCH   1  23
HETATM   23  C   UNL     1      25.462  46.991  49.933  1.00  0.00     0.049 A 
HETATM   24  C   UNL     1      26.831  46.967  49.587  1.00  0.00    -0.035 A 
HETATM   25  C   UNL     1      27.743  45.792  49.825  1.00  0.00     0.050 C 
HETATM   26  C   UNL     1      27.378  48.103  48.965  1.00  0.00     0.009 A 
HETATM   27  C   UNL     1      26.583  49.207  48.657  1.00  0.00     0.001 A 
HETATM   28  C   UNL     1      25.226  49.202  48.971  1.00  0.00     0.002 A 
HETATM   29  C   UNL     1      24.662  48.098  49.608  1.00  0.00     0.031 A 
ENDBRANCH   1  23
BRANCH   5  30
HETATM   30  C   UNL     1      25.803  46.145  53.020  1.00  0.00     0.040 A 
HETATM   31  C   UNL     1      26.943  45.684  53.750  1.00  0.00     0.006 A 
HETATM   32  C   UNL     1      27.227  46.648  54.721  1.00  0.00     0.043 A 
HETATM   33  C   UNL     1      27.776  44.547  53.680  1.00  0.00     0.015 A 
HETATM   34  C   UNL     1      28.295  46.532  55.619  1.00  0.00     0.030 A 
HETATM   35  N   UNL     1      26.287  47.643  54.593  1.00  0.00    -0.364 N 
HETATM   36  C   UNL     1      29.102  45.396  55.524  1.00  0.00     0.002 A 
HETATM   37  C   UNL     1      28.849  44.416  54.569  1.00  0.00     0.001 A 
HETATM   38  H   UNL     1      26.241  48.466  55.178  1.00  0.00     0.165 HD
HETATM   39  C   UNL     1      25.419  47.348  53.574  1.00  0.00     0.104 A 
ENDBRANCH   5  30
TORSDOF 7
ENDMDL
MODEL 3
REMARK VINA RESULT:      -9.3      7.682     10.942
REMARK  7 active torsions:
REMARK  status: ('A' for Active; 'I' for Inactive)
REMARK    1  A    between atoms: C_3  and  N_4 
REMARK    2  A    between atoms: C_5  and  S_6 
REMARK    3  A    between atoms: S_6  and  C_7 
REMARK    4  A    between atoms: C_7  and  C_8 
REMARK       I    between atoms: C_8  and  N_9 
REMARK    5  A    between atoms: N_9  and  C_10 
REMARK    6  A    between atoms: C_13  and  C_14 
REMARK       I    between atoms: C_14  and  N_15 
REMARK    7  A    between atoms: C_22  and  C_23 
ROOT
HETATM    1  N   UNL     1      17.244  49.360  48.271  1.00  0.00    -0.271 N 
HETATM    2  C   UNL     1      17.056  47.994  48.156  1.00  0.00     0.197 C 
HETATM    3  N   UNL     1      15.775  47.724  48.050  1.00  0.00    -0.122 NA
HETATM    4  N   UNL     1      15.104  48.910  47.974  1.00  0.00    -0.128 NA
HETATM    5  C   UNL     1      15.986  49.895  48.020  1.00  0.00     0.171 C 
ENDROOT
BRANCH   2   6
HETATM    6  S   UNL     1      18.304  46.796  48.277  1.00  0.00    -0.080 SA
BRANCH   6   7
HETATM    7  C   UNL     1      19.174  47.001  46.701  1.00  0.00     0.185 C 
BRANCH   7   8
HETATM    8  C   UNL     1      20.686  46.921  46.867  1.00  0.00     0.231 C 
HETATM    9  N   UNL     1      21.111  47.288  48.131  1.00  0.00    -0.327 N 
HETATM   10  H   UNL     1      20.389  47.324  48.852  1.00  0.00     0.169 HD
HETATM   11  O   UNL     1      21.405  46.593  45.928  1.00  0.00    -0.272 OA
BRANCH   9  12
HETATM   12  C   UNL     1      22.426  47.524  48.573  1.00  0.00     0.034 A 
HETATM   13  C   UNL     1      22.970  48.784  48.296  1.00  0.00     0.030 A 
HETATM   14  C   UNL     1      24.294  49.086  48.640  1.00  0.00     0.019 A 
HETATM   15  C   UNL     1      25.087  48.121  49.266  1.00  0.00     0.032 A 
HETATM   16  C   UNL     1      24.536  46.874  49.575  1.00  0.00     0.019 A 
HETATM   17  C   UNL     1      23.213  46.574  49.225  1.00  0.00     0.030 A 
BRANCH  15  18
HETATM   18  C   UNL     1      26.506  48.379  49.625  1.00  0.00     0.249 C 
HETATM   19  N   UNL     1      27.302  48.943  48.665  1.00  0.00    -0.366 N 
HETATM   20  H   UNL     1      27.035  48.977  47.692  1.00  0.00     0.159 HD
HETATM   21  H   UNL     1      28.290  48.996  48.883  1.00  0.00     0.159 HD
HETATM   22  O   UNL     1      26.967  48.061  50.713  1.00  0.00    -0.268 OA
ENDBRANCH  15  18
ENDBRANCH   9  12
ENDBRANCH   7   8
ENDBRANCH   6   7
ENDBRANCH   2   6
BRANCH   1  23
HETATM   23  C   UNL     1      18.418  50.042  48.680  1.00  0.00     0.049 A 
HETATM   24  C   UNL     1      19.305  50.598  47.732  1.00  0.00    -0.035 A 
HETATM   25  C   UNL     1      19.068  50.588  46.245  1.00  0.00     0.050 C 
HETATM   26  C   UNL     1      20.476  51.217  48.203  1.00  0.00     0.009 A 
HETATM   27  C   UNL     1      20.736  51.319  49.571  1.00  0.00     0.001 A 
HETATM   28  C   UNL     1      19.834  50.799  50.495  1.00  0.00     0.002 A 
HETATM   29  C   UNL     1      18.675  50.160  50.055  1.00  0.00     0.031 A 
ENDBRANCH   1  23
BRANCH   5  30
HETATM   30  C   UNL     1      15.615  51.321  47.749  1.00  0.00     0.040 A 
HETATM   31  C   UNL     1      15.168  52.281  48.710  1.00  0.00     0.006 A 
HETATM   32  C   UNL     1      14.917  53.469  48.019  1.00  0.00     0.043 A 
HETATM   33  C   UNL     1      14.962  52.270  50.107  1.00  0.00     0.015 A 
HETATM   34  C   UNL     1      14.472  54.637  48.649  1.00  0.00     0.030 A 
HETATM   35  N   UNL     1      15.185  53.231  46.691  1.00  0.00    -0.364 N 
HETATM   36  C   UNL     1      14.277  54.595  50.032  1.00  0.00     0.002 A 
HETATM   37  C   UNL     1      14.518  53.430  50.753  1.00  0.00     0.001 A 
HETATM   38  H   UNL     1      15.077  53.914  45.954  1.00  0.00     0.165 HD
HETATM   39  C   UNL     1      15.601  51.937  46.516  1.00  0.00     0.104 A 
ENDBRANCH   5  30
TORSDOF 7
ENDMDL
MODEL 4
REMARK VINA RESULT:      -9.3      4.567      8.839
REMARK  7 active torsions:
REMARK  status: ('A' for Active; 'I' for Inactive)
REMARK    1  A    between atoms: C_3  and  N_4 
REMARK    2  A    between atoms: C_5  and  S_6 
REMARK    3  A    between atoms: S_6  and  C_7 
REMARK    4  A    between atoms: C_7  and  C_8 
REMARK       I    between atoms: C_8  and  N_9 
REMARK    5  A    between atoms: N_9  and  C_10 
REMARK    6  A    between atoms: C_13  and  C_14 
REMARK       I    between atoms: C_14  and  N_15 
REMARK    7  A    between atoms: C_22  and  C_23 
ROOT
HETATM    1  N   UNL     1      24.870  45.548  51.064  1.00  0.00    -0.271 N 
HETATM    2  C   UNL     1      24.743  46.845  50.598  1.00  0.00     0.197 C 
HETATM    3  N   UNL     1      24.929  47.695  51.582  1.00  0.00    -0.122 NA
HETATM    4  N   UNL     1      25.298  46.982  52.686  1.00  0.00    -0.128 NA
HETATM    5  C   UNL     1      25.347  45.701  52.360  1.00  0.00     0.171 C 
ENDROOT
BRANCH   2   6
HETATM    6  S   UNL     1      24.268  47.292  48.992  1.00  0.00    -0.080 SA
BRANCH   6   7
HETATM    7  C   UNL     1      24.738  49.041  48.936  1.00  0.00     0.185 C 
BRANCH   7   8
HETATM    8  C   UNL     1      23.548  49.944  48.640  1.00  0.00     0.231 C 
HETATM    9  N   UNL     1      22.528  49.816  49.565  1.00  0.00    -0.327 N 
HETATM   10  H   UNL     1      22.774  49.347  50.438  1.00  0.00     0.169 HD
HETATM   11  O   UNL     1      23.537  50.665  47.646  1.00  0.00    -0.272 OA
BRANCH   9  12
HETATM   12  C   UNL     1      21.222  50.335  49.498  1.00  0.00     0.034 A 
HETATM   13  C   UNL     1      21.004  51.385  48.598  1.00  0.00     0.030 A 
HETATM   14  C   UNL     1      19.752  52.007  48.510  1.00  0.00     0.019 A 
HETATM   15  C   UNL     1      18.704  51.580  49.329  1.00  0.00     0.032 A 
HETATM   16  C   UNL     1      18.908  50.508  50.204  1.00  0.00     0.019 A 
HETATM   17  C   UNL     1      20.164  49.893  50.293  1.00  0.00     0.030 A 
BRANCH  15  18
HETATM   18  C   UNL     1      17.365  52.224  49.297  1.00  0.00     0.249 C 
HETATM   19  N   UNL     1      16.961  52.771  48.110  1.00  0.00    -0.366 N 
HETATM   20  H   UNL     1      17.603  52.951  47.352  1.00  0.00     0.159 HD
HETATM   21  H   UNL     1      16.105  53.312  48.139  1.00  0.00     0.159 HD
HETATM   22  O   UNL     1      16.664  52.308  50.297  1.00  0.00    -0.268 OA
ENDBRANCH  15  18
ENDBRANCH   9  12
ENDBRANCH   7   8
ENDBRANCH   6   7
ENDBRANCH   2   6
BRANCH   1  23
HETATM   23  C   UNL     1      24.478  44.351  50.413  1.00  0.00     0.049 A 
HETATM   24  C   UNL     1      25.391  43.619  49.622  1.00  0.00    -0.035 A 
HETATM   25  C   UNL     1      26.843  43.981  49.454  1.00  0.00     0.050 C 
HETATM   26  C   UNL     1      24.924  42.468  48.964  1.00  0.00     0.009 A 
HETATM   27  C   UNL     1      23.607  42.035  49.120  1.00  0.00     0.001 A 
HETATM   28  C   UNL     1      22.728  42.746  49.932  1.00  0.00     0.002 A 
HETATM   29  C   UNL     1      23.158  43.904  50.579  1.00  0.00     0.031 A 
ENDBRANCH   1  23
BRANCH   5  30
HETATM   30  C   UNL     1      25.921  44.661  53.273  1.00  0.00     0.040 A 
HETATM   31  C   UNL     1      27.202  44.036  53.153  1.00  0.00     0.006 A 
HETATM   32  C   UNL     1      27.312  43.119  54.202  1.00  0.00     0.043 A 
HETATM   33  C   UNL     1      28.291  44.162  52.264  1.00  0.00     0.015 A 
HETATM   34  C   UNL     1      28.449  42.328  54.404  1.00  0.00     0.030 A 
HETATM   35  N   UNL     1      26.139  43.176  54.917  1.00  0.00    -0.364 N 
HETATM   36  C   UNL     1      29.511  42.476  53.508  1.00  0.00     0.002 A 
HETATM   37  C   UNL     1      29.436  43.380  52.453  1.00  0.00     0.001 A 
HETATM   38  H   UNL     1      25.934  42.607  55.727  1.00  0.00     0.165 HD
HETATM   39  C   UNL     1      25.290  44.098  54.362  1.00  0.00     0.104 A 
ENDBRANCH   5  30
TORSDOF 7
ENDMDL
MODEL 5
REMARK VINA RESULT:      -9.2      8.724     13.030
REMARK  7 active torsions:
REMARK  status: ('A' for Active; 'I' for Inactive)
REMARK    1  A    between atoms: C_3  and  N_4 
REMARK    2  A    between atoms: C_5  and  S_6 
REMARK    3  A    between atoms: S_6  and  C_7 
REMARK    4  A    between atoms: C_7  and  C_8 
REMARK       I    between atoms: C_8  and  N_9 
REMARK    5  A    between atoms: N_9  and  C_10 
REMARK    6  A    between atoms: C_13  and  C_14 
REMARK       I    between atoms: C_14  and  N_15 
REMARK    7  A    between atoms: C_22  and  C_23 
ROOT
HETATM    1  N   UNL     1      19.098  48.664  47.208  1.00  0.00    -0.271 N 
HETATM    2  C   UNL     1      18.144  48.274  46.284  1.00  0.00     0.197 C 
HETATM    3  N   UNL     1      18.662  47.411  45.440  1.00  0.00    -0.122 NA
HETATM    4  N   UNL     1      19.929  47.125  45.861  1.00  0.00    -0.128 NA
HETATM    5  C   UNL     1      20.167  47.808  46.969  1.00  0.00     0.171 C 
ENDROOT
BRANCH   2   6
HETATM    6  S   UNL     1      16.543  48.929  46.158  1.00  0.00    -0.080 SA
BRANCH   6   7
HETATM    7  C   UNL     1      16.826  50.420  45.168  1.00  0.00     0.185 C 
BRANCH   7   8
HETATM    8  C   UNL     1      16.506  51.691  45.942  1.00  0.00     0.231 C 
HETATM    9  N   UNL     1      15.881  51.444  47.152  1.00  0.00    -0.327 N 
HETATM   10  H   UNL     1      15.931  50.483  47.492  1.00  0.00     0.169 HD
HETATM   11  O   UNL     1      16.765  52.796  45.474  1.00  0.00    -0.272 OA
BRANCH   9  12
HETATM   12  C   UNL     1      15.270  52.368  48.020  1.00  0.00     0.034 A 
HETATM   13  C   UNL     1      15.322  52.078  49.390  1.00  0.00     0.030 A 
HETATM   14  C   UNL     1      14.685  52.905  50.323  1.00  0.00     0.019 A 
HETATM   15  C   UNL     1      13.987  54.035  49.889  1.00  0.00     0.032 A 
HETATM   16  C   UNL     1      13.963  54.346  48.526  1.00  0.00     0.019 A 
HETATM   17  C   UNL     1      14.597  53.513  47.595  1.00  0.00     0.030 A 
BRANCH  15  18
HETATM   18  C   UNL     1      13.268  54.929  50.834  1.00  0.00     0.249 C 
HETATM   19  N   UNL     1      14.012  55.868  51.496  1.00  0.00    -0.366 N 
HETATM   20  H   UNL     1      15.020  55.826  51.540  1.00  0.00     0.159 HD
HETATM   21  H   UNL     1      13.531  56.383  52.223  1.00  0.00     0.159 HD
HETATM   22  O   UNL     1      12.071  54.811  51.053  1.00  0.00    -0.268 OA
ENDBRANCH  15  18
ENDBRANCH   9  12
ENDBRANCH   7   8
ENDBRANCH   6   7
ENDBRANCH   2   6
BRANCH   1  23
HETATM   23  C   UNL     1      19.043  49.765  48.099  1.00  0.00     0.049 A 
HETATM   24  C   UNL     1      18.608  49.601  49.433  1.00  0.00    -0.035 A 
HETATM   25  C   UNL     1      18.241  48.276  50.046  1.00  0.00     0.050 C 
HETATM   26  C   UNL     1      18.530  50.743  50.249  1.00  0.00     0.009 A 
HETATM   27  C   UNL     1      18.911  51.997  49.771  1.00  0.00     0.001 A 
HETATM   28  C   UNL     1      19.372  52.137  48.465  1.00  0.00     0.002 A 
HETATM   29  C   UNL     1      19.439  51.025  47.626  1.00  0.00     0.031 A 
ENDBRANCH   1  23
BRANCH   5  30
HETATM   30  C   UNL     1      21.381  47.571  47.814  1.00  0.00     0.040 A 
HETATM   31  C   UNL     1      22.465  48.481  48.021  1.00  0.00     0.006 A 
HETATM   32  C   UNL     1      23.383  47.843  48.858  1.00  0.00     0.043 A 
HETATM   33  C   UNL     1      22.758  49.794  47.591  1.00  0.00     0.015 A 
HETATM   34  C   UNL     1      24.572  48.448  49.284  1.00  0.00     0.030 A 
HETATM   35  N   UNL     1      22.883  46.592  49.133  1.00  0.00    -0.364 N 
HETATM   36  C   UNL     1      24.834  49.747  48.842  1.00  0.00     0.002 A 
HETATM   37  C   UNL     1      23.942  50.413  48.008  1.00  0.00     0.001 A 
HETATM   38  H   UNL     1      23.348  45.903  49.708  1.00  0.00     0.165 HD
HETATM   39  C   UNL     1      21.679  46.415  48.504  1.00  0.00     0.104 A 
ENDBRANCH   5  30
TORSDOF 7
ENDMDL
MODEL 6
REMARK VINA RESULT:      -9.2     11.610     13.579
REMARK  7 active torsions:
REMARK  status: ('A' for Active; 'I' for Inactive)
REMARK    1  A    between atoms: C_3  and  N_4 
REMARK    2  A    between atoms: C_5  and  S_6 
REMARK    3  A    between atoms: S_6  and  C_7 
REMARK    4  A    between atoms: C_7  and  C_8 
REMARK       I    between atoms: C_8  and  N_9 
REMARK    5  A    between atoms: N_9  and  C_10 
REMARK    6  A    between atoms: C_13  and  C_14 
REMARK       I    between atoms: C_14  and  N_15 
REMARK    7  A    between atoms: C_22  and  C_23 
ROOT
HETATM    1  N   UNL     1      31.099  48.800  40.157  1.00  0.00    -0.271 N 
HETATM    2  C   UNL     1      30.965  47.472  39.793  1.00  0.00     0.197 C 
HETATM    3  N   UNL     1      31.906  46.753  40.361  1.00  0.00    -0.122 NA
HETATM    4  N   UNL     1      32.605  47.571  41.202  1.00  0.00    -0.128 NA
HETATM    5  C   UNL     1      32.073  48.781  41.148  1.00  0.00     0.171 C 
ENDROOT
BRANCH   2   6
HETATM    6  S   UNL     1      29.819  46.856  38.646  1.00  0.00    -0.080 SA
BRANCH   6   7
HETATM    7  C   UNL     1      28.778  45.800  39.687  1.00  0.00     0.185 C 
BRANCH   7   8
HETATM    8  C   UNL     1      27.498  46.504  40.117  1.00  0.00     0.231 C 
HETATM    9  N   UNL     1      26.747  46.961  39.049  1.00  0.00    -0.327 N 
HETATM   10  H   UNL     1      26.988  46.574  38.136  1.00  0.00     0.169 HD
HETATM   11  O   UNL     1      27.232  46.655  41.307  1.00  0.00    -0.272 OA
BRANCH   9  12
HETATM   12  C   UNL     1      25.629  47.816  39.073  1.00  0.00     0.034 A 
HETATM   13  C   UNL     1      25.786  49.078  38.486  1.00  0.00     0.030 A 
HETATM   14  C   UNL     1      24.750  50.019  38.521  1.00  0.00     0.019 A 
HETATM   15  C   UNL     1      23.542  49.701  39.148  1.00  0.00     0.032 A 
HETATM   16  C   UNL     1      23.370  48.430  39.704  1.00  0.00     0.019 A 
HETATM   17  C   UNL     1      24.412  47.493  39.673  1.00  0.00     0.030 A 
BRANCH  15  18
HETATM   18  C   UNL     1      22.421  50.673  39.239  1.00  0.00     0.249 C 
HETATM   19  N   UNL     1      22.389  51.491  40.336  1.00  0.00    -0.366 N 
HETATM   20  H   UNL     1      22.942  51.310  41.161  1.00  0.00     0.159 HD
HETATM   21  H   UNL     1      21.556  52.056  40.444  1.00  0.00     0.159 HD
HETATM   22  O   UNL     1      21.533  50.717  38.399  1.00  0.00    -0.268 OA
ENDBRANCH  15  18
ENDBRANCH   9  12
ENDBRANCH   7   8
ENDBRANCH   6   7
ENDBRANCH   2   6
BRANCH   1  23
HETATM   23  C   UNL     1      30.480  49.928  39.561  1.00  0.00     0.049 A 
HETATM   24  C   UNL     1      29.244  50.418  40.038  1.00  0.00    -0.035 A 
HETATM   25  C   UNL     1      28.516  49.857  41.231  1.00  0.00     0.050 C 
HETATM   26  C   UNL     1      28.661  51.509  39.371  1.00  0.00     0.009 A 
HETATM   27  C   UNL     1      29.305  52.121  38.294  1.00  0.00     0.001 A 
HETATM   28  C   UNL     1      30.540  51.651  37.858  1.00  0.00     0.002 A 
HETATM   29  C   UNL     1      31.131  50.556  38.487  1.00  0.00     0.031 A 
ENDBRANCH   1  23
BRANCH   5  30
HETATM   30  C   UNL     1      32.458  49.872  42.100  1.00  0.00     0.040 A 
HETATM   31  C   UNL     1      33.768  50.412  42.290  1.00  0.00     0.006 A 
HETATM   32  C   UNL     1      33.670  51.389  43.284  1.00  0.00     0.043 A 
HETATM   33  C   UNL     1      35.034  50.180  41.710  1.00  0.00     0.015 A 
HETATM   34  C   UNL     1      34.766  52.141  43.724  1.00  0.00     0.030 A 
HETATM   35  N   UNL     1      32.356  51.426  43.690  1.00  0.00    -0.364 N 
HETATM   36  C   UNL     1      36.006  51.889  43.130  1.00  0.00     0.002 A 
HETATM   37  C   UNL     1      36.141  50.924  42.137  1.00  0.00     0.001 A 
HETATM   38  H   UNL     1      31.997  52.035  44.412  1.00  0.00     0.165 HD
HETATM   39  C   UNL     1      31.617  50.511  42.987  1.00  0.00     0.104 A 
ENDBRANCH   5  30
TORSDOF 7
ENDMDL
MODEL 7
REMARK VINA RESULT:      -9.1      6.211      9.663
REMARK  7 active torsions:
REMARK  status: ('A' for Active; 'I' for Inactive)
REMARK    1  A    between atoms: C_3  and  N_4 
REMARK    2  A    between atoms: C_5  and  S_6 
REMARK    3  A    between atoms: S_6  and  C_7 
REMARK    4  A    between atoms: C_7  and  C_8 
REMARK       I    between atoms: C_8  and  N_9 
REMARK    5  A    between atoms: N_9  and  C_10 
REMARK    6  A    between atoms: C_13  and  C_14 
REMARK       I    between atoms: C_14  and  N_15 
REMARK    7  A    between atoms: C_22  and  C_23 
ROOT
HETATM    1  N   UNL     1      20.422  48.555  47.760  1.00  0.00    -0.271 N 
HETATM    2  C   UNL     1      21.603  47.885  48.028  1.00  0.00     0.197 C 
HETATM    3  N   UNL     1      21.601  46.715  47.431  1.00  0.00    -0.122 NA
HETATM    4  N   UNL     1      20.475  46.641  46.662  1.00  0.00    -0.128 NA
HETATM    5  C   UNL     1      19.806  47.775  46.788  1.00  0.00     0.171 C 
ENDROOT
BRANCH   2   6
HETATM    6  S   UNL     1      22.844  48.433  49.108  1.00  0.00    -0.080 SA
BRANCH   6   7
HETATM    7  C   UNL     1      23.665  46.879  49.553  1.00  0.00     0.185 C 
BRANCH   7   8
HETATM    8  C   UNL     1      24.897  47.110  50.416  1.00  0.00     0.231 C 
HETATM    9  N   UNL     1      25.083  46.125  51.369  1.00  0.00    -0.327 N 
HETATM   10  H   UNL     1      24.549  45.265  51.232  1.00  0.00     0.169 HD
HETATM   11  O   UNL     1      25.597  48.107  50.259  1.00  0.00    -0.272 OA
BRANCH   9  12
HETATM   12  C   UNL     1      25.984  46.118  52.450  1.00  0.00     0.034 A 
HETATM   13  C   UNL     1      26.772  44.971  52.609  1.00  0.00     0.030 A 
HETATM   14  C   UNL     1      27.649  44.847  53.693  1.00  0.00     0.019 A 
HETATM   15  C   UNL     1      27.744  45.877  54.633  1.00  0.00     0.032 A 
HETATM   16  C   UNL     1      26.984  47.038  54.458  1.00  0.00     0.019 A 
HETATM   17  C   UNL     1      26.103  47.155  53.375  1.00  0.00     0.030 A 
BRANCH  15  18
HETATM   18  C   UNL     1      28.636  45.785  55.817  1.00  0.00     0.249 C 
HETATM   19  N   UNL     1      29.719  44.954  55.722  1.00  0.00    -0.366 N 
HETATM   20  H   UNL     1      29.804  44.257  54.997  1.00  0.00     0.159 HD
HETATM   21  H   UNL     1      30.243  44.809  56.577  1.00  0.00     0.159 HD
HETATM   22  O   UNL     1      28.397  46.386  56.856  1.00  0.00    -0.268 OA
ENDBRANCH  15  18
ENDBRANCH   9  12
ENDBRANCH   7   8
ENDBRANCH   6   7
ENDBRANCH   2   6
BRANCH   1  23
HETATM   23  C   UNL     1      19.905  49.699  48.419  1.00  0.00     0.049 A 
HETATM   24  C   UNL     1      19.180  49.579  49.625  1.00  0.00    -0.035 A 
HETATM   25  C   UNL     1      18.951  48.278  50.349  1.00  0.00     0.050 C 
HETATM   26  C   UNL     1      18.652  50.748  50.201  1.00  0.00     0.009 A 
HETATM   27  C   UNL     1      18.874  51.998  49.621  1.00  0.00     0.001 A 
HETATM   28  C   UNL     1      19.622  52.104  48.452  1.00  0.00     0.002 A 
HETATM   29  C   UNL     1      20.138  50.959  47.848  1.00  0.00     0.031 A 
ENDBRANCH   1  23
BRANCH   5  30
HETATM   30  C   UNL     1      18.633  48.117  45.921  1.00  0.00     0.040 A 
HETATM   31  C   UNL     1      17.289  48.340  46.357  1.00  0.00     0.006 A 
HETATM   32  C   UNL     1      16.527  48.609  45.217  1.00  0.00     0.043 A 
HETATM   33  C   UNL     1      16.638  48.353  47.610  1.00  0.00     0.015 A 
HETATM   34  C   UNL     1      15.156  48.888  45.267  1.00  0.00     0.030 A 
HETATM   35  N   UNL     1      17.373  48.536  44.135  1.00  0.00    -0.364 N 
HETATM   36  C   UNL     1      14.540  48.894  46.521  1.00  0.00     0.002 A 
HETATM   37  C   UNL     1      15.268  48.631  47.677  1.00  0.00     0.001 A 
HETATM   38  H   UNL     1      17.087  48.674  43.175  1.00  0.00     0.165 HD
HETATM   39  C   UNL     1      18.644  48.234  44.547  1.00  0.00     0.104 A 
ENDBRANCH   5  30
TORSDOF 7
ENDMDL
MODEL 8
REMARK VINA RESULT:      -8.8      5.192      8.247
REMARK  7 active torsions:
REMARK  status: ('A' for Active; 'I' for Inactive)
REMARK    1  A    between atoms: C_3  and  N_4 
REMARK    2  A    between atoms: C_5  and  S_6 
REMARK    3  A    between atoms: S_6  and  C_7 
REMARK    4  A    between atoms: C_7  and  C_8 
REMARK       I    between atoms: C_8  and  N_9 
REMARK    5  A    between atoms: N_9  and  C_10 
REMARK    6  A    between atoms: C_13  and  C_14 
REMARK       I    between atoms: C_14  and  N_15 
REMARK    7  A    between atoms: C_22  and  C_23 
ROOT
HETATM    1  N   UNL     1      21.578  49.106  48.803  1.00  0.00    -0.271 N 
HETATM    2  C   UNL     1      22.863  49.045  49.313  1.00  0.00     0.197 C 
HETATM    3  N   UNL     1      23.375  50.252  49.387  1.00  0.00    -0.122 NA
HETATM    4  N   UNL     1      22.399  51.141  49.039  1.00  0.00    -0.128 NA
HETATM    5  C   UNL     1      21.294  50.466  48.770  1.00  0.00     0.171 C 
ENDROOT
BRANCH   2   6
HETATM    6  S   UNL     1      23.732  47.587  49.671  1.00  0.00    -0.080 SA
BRANCH   6   7
HETATM    7  C   UNL     1      25.453  48.125  49.490  1.00  0.00     0.185 C 
BRANCH   7   8
HETATM    8  C   UNL     1      26.431  46.964  49.611  1.00  0.00     0.231 C 
HETATM    9  N   UNL     1      25.923  45.903  50.339  1.00  0.00    -0.327 N 
HETATM   10  H   UNL     1      24.913  45.907  50.490  1.00  0.00     0.169 HD
HETATM   11  O   UNL     1      27.555  47.035  49.123  1.00  0.00    -0.272 OA
BRANCH   9  12
HETATM   12  C   UNL     1      26.606  44.768  50.815  1.00  0.00     0.034 A 
HETATM   13  C   UNL     1      26.721  43.684  49.935  1.00  0.00     0.030 A 
HETATM   14  C   UNL     1      27.326  42.489  50.344  1.00  0.00     0.019 A 
HETATM   15  C   UNL     1      27.822  42.370  51.645  1.00  0.00     0.032 A 
HETATM   16  C   UNL     1      27.741  43.463  52.514  1.00  0.00     0.019 A 
HETATM   17  C   UNL     1      27.129  44.654  52.103  1.00  0.00     0.030 A 
BRANCH  15  18
HETATM   18  C   UNL     1      28.447  41.115  52.140  1.00  0.00     0.249 C 
HETATM   19  N   UNL     1      28.714  40.143  51.215  1.00  0.00    -0.366 N 
HETATM   20  H   UNL     1      28.311  40.151  50.290  1.00  0.00     0.159 HD
HETATM   21  H   UNL     1      29.022  39.252  51.585  1.00  0.00     0.159 HD
HETATM   22  O   UNL     1      28.674  40.930  53.327  1.00  0.00    -0.268 OA
ENDBRANCH  15  18
ENDBRANCH   9  12
ENDBRANCH   7   8
ENDBRANCH   6   7
ENDBRANCH   2   6
BRANCH   1  23
HETATM   23  C   UNL     1      20.790  48.037  48.308  1.00  0.00     0.049 A 
HETATM   24  C   UNL     1      19.641  47.597  49.002  1.00  0.00    -0.035 A 
HETATM   25  C   UNL     1      19.111  48.241  50.255  1.00  0.00     0.050 C 
HETATM   26  C   UNL     1      18.933  46.499  48.482  1.00  0.00     0.009 A 
HETATM   27  C   UNL     1      19.327  45.887  47.292  1.00  0.00     0.001 A 
HETATM   28  C   UNL     1      20.441  46.355  46.600  1.00  0.00     0.002 A 
HETATM   29  C   UNL     1      21.175  47.428  47.103  1.00  0.00     0.031 A 
ENDBRANCH   1  23
BRANCH   5  30
HETATM   30  C   UNL     1      19.972  51.139  48.560  1.00  0.00     0.040 A 
HETATM   31  C   UNL     1      19.173  51.095  47.375  1.00  0.00     0.006 A 
HETATM   32  C   UNL     1      18.039  51.876  47.613  1.00  0.00     0.043 A 
HETATM   33  C   UNL     1      19.289  50.459  46.120  1.00  0.00     0.015 A 
HETATM   34  C   UNL     1      17.024  52.052  46.666  1.00  0.00     0.030 A 
HETATM   35  N   UNL     1      18.156  52.385  48.885  1.00  0.00    -0.364 N 
HETATM   36  C   UNL     1      17.167  51.410  45.433  1.00  0.00     0.002 A 
HETATM   37  C   UNL     1      18.282  50.624  45.161  1.00  0.00     0.001 A 
HETATM   38  H   UNL     1      17.482  53.000  49.320  1.00  0.00     0.165 HD
HETATM   39  C   UNL     1      19.321  51.952  49.464  1.00  0.00     0.104 A 
ENDBRANCH   5  30
TORSDOF 7
ENDMDL
MODEL 9
REMARK VINA RESULT:      -8.7     12.283     15.374
REMARK  7 active torsions:
REMARK  status: ('A' for Active; 'I' for Inactive)
REMARK    1  A    between atoms: C_3  and  N_4 
REMARK    2  A    between atoms: C_5  and  S_6 
REMARK    3  A    between atoms: S_6  and  C_7 
REMARK    4  A    between atoms: C_7  and  C_8 
REMARK       I    between atoms: C_8  and  N_9 
REMARK    5  A    between atoms: N_9  and  C_10 
REMARK    6  A    between atoms: C_13  and  C_14 
REMARK       I    between atoms: C_14  and  N_15 
REMARK    7  A    between atoms: C_22  and  C_23 
ROOT
HETATM    1  N   UNL     1      31.585  51.385  39.660  1.00  0.00    -0.271 N 
HETATM    2  C   UNL     1      32.518  51.776  38.716  1.00  0.00     0.197 C 
HETATM    3  N   UNL     1      32.155  51.357  37.525  1.00  0.00    -0.122 NA
HETATM    4  N   UNL     1      30.920  50.786  37.642  1.00  0.00    -0.128 NA
HETATM    5  C   UNL     1      30.535  50.876  38.904  1.00  0.00     0.171 C 
ENDROOT
BRANCH   2   6
HETATM    6  S   UNL     1      34.019  52.573  39.060  1.00  0.00    -0.080 SA
BRANCH   6   7
HETATM    7  C   UNL     1      35.156  51.172  39.230  1.00  0.00     0.185 C 
BRANCH   7   8
HETATM    8  C   UNL     1      35.953  51.237  40.526  1.00  0.00     0.231 C 
HETATM    9  N   UNL     1      35.635  52.337  41.303  1.00  0.00    -0.327 N 
HETATM   10  H   UNL     1      34.769  52.819  41.059  1.00  0.00     0.169 HD
HETATM   11  O   UNL     1      36.805  50.391  40.783  1.00  0.00    -0.272 OA
BRANCH   9  12
HETATM   12  C   UNL     1      36.301  52.818  42.445  1.00  0.00     0.034 A 
HETATM   13  C   UNL     1      35.905  52.287  43.679  1.00  0.00     0.030 A 
HETATM   14  C   UNL     1      36.466  52.753  44.874  1.00  0.00     0.019 A 
HETATM   15  C   UNL     1      37.433  53.761  44.842  1.00  0.00     0.032 A 
HETATM   16  C   UNL     1      37.856  54.269  43.610  1.00  0.00     0.019 A 
HETATM   17  C   UNL     1      37.288  53.804  42.417  1.00  0.00     0.030 A 
BRANCH  15  18
HETATM   18  C   UNL     1      38.039  54.313  46.082  1.00  0.00     0.249 C 
HETATM   19  N   UNL     1      38.575  53.419  46.968  1.00  0.00    -0.366 N 
HETATM   20  H   UNL     1      38.378  52.430  46.925  1.00  0.00     0.159 HD
HETATM   21  H   UNL     1      38.870  53.800  47.859  1.00  0.00     0.159 HD
HETATM   22  O   UNL     1      38.024  55.510  46.332  1.00  0.00    -0.268 OA
ENDBRANCH  15  18
ENDBRANCH   9  12
ENDBRANCH   7   8
ENDBRANCH   6   7
ENDBRANCH   2   6
BRANCH   1  23
HETATM   23  C   UNL     1      31.726  51.385  41.071  1.00  0.00     0.049 A 
HETATM   24  C   UNL     1      31.298  52.486  41.845  1.00  0.00    -0.035 A 
HETATM   25  C   UNL     1      30.604  53.698  41.282  1.00  0.00     0.050 C 
HETATM   26  C   UNL     1      31.513  52.443  43.234  1.00  0.00     0.009 A 
HETATM   27  C   UNL     1      32.094  51.326  43.837  1.00  0.00     0.001 A 
HETATM   28  C   UNL     1      32.478  50.234  43.065  1.00  0.00     0.002 A 
HETATM   29  C   UNL     1      32.297  50.259  41.683  1.00  0.00     0.031 A 
ENDBRANCH   1  23
BRANCH   5  30
HETATM   30  C   UNL     1      29.143  50.541  39.346  1.00  0.00     0.040 A 
HETATM   31  C   UNL     1      28.683  49.273  39.822  1.00  0.00     0.006 A 
HETATM   32  C   UNL     1      27.320  49.408  40.100  1.00  0.00     0.043 A 
HETATM   33  C   UNL     1      29.289  48.020  40.059  1.00  0.00     0.015 A 
HETATM   34  C   UNL     1      26.538  48.360  40.599  1.00  0.00     0.030 A 
HETATM   35  N   UNL     1      26.968  50.700  39.788  1.00  0.00    -0.364 N 
HETATM   36  C   UNL     1      27.166  47.132  40.824  1.00  0.00     0.002 A 
HETATM   37  C   UNL     1      28.521  46.962  40.559  1.00  0.00     0.001 A 
HETATM   38  H   UNL     1      26.033  51.076  39.878  1.00  0.00     0.165 HD
HETATM   39  C   UNL     1      28.057  51.391  39.327  1.00  0.00     0.104 A 
ENDBRANCH   5  30
TORSDOF 7
ENDMDL
MODEL 10
REMARK VINA RESULT:      -8.7      3.876      9.335
REMARK  7 active torsions:
REMARK  status: ('A' for Active; 'I' for Inactive)
REMARK    1  A    between atoms: C_3  and  N_4 
REMARK    2  A    between atoms: C_5  and  S_6 
REMARK    3  A    between atoms: S_6  and  C_7 
REMARK    4  A    between atoms: C_7  and  C_8 
REMARK       I    between atoms: C_8  and  N_9 
REMARK    5  A    between atoms: N_9  and  C_10 
REMARK    6  A    between atoms: C_13  and  C_14 
REMARK       I    between atoms: C_14  and  N_15 
REMARK    7  A    between atoms: C_22  and  C_23 
ROOT
HETATM    1  N   UNL     1      26.602  44.001  50.868  1.00  0.00    -0.271 N 
HETATM    2  C   UNL     1      26.070  45.156  50.323  1.00  0.00     0.197 C 
HETATM    3  N   UNL     1      25.713  44.942  49.078  1.00  0.00    -0.122 NA
HETATM    4  N   UNL     1      25.893  43.614  48.814  1.00  0.00    -0.128 NA
HETATM    5  C   UNL     1      26.345  43.028  49.910  1.00  0.00     0.171 C 
ENDROOT
BRANCH   2   6
HETATM    6  S   UNL     1      26.010  46.701  51.109  1.00  0.00    -0.080 SA
BRANCH   6   7
HETATM    7  C   UNL     1      25.747  47.822  49.709  1.00  0.00     0.185 C 
BRANCH   7   8
HETATM    8  C   UNL     1      24.272  48.130  49.492  1.00  0.00     0.231 C 
HETATM    9  N   UNL     1      24.042  49.442  49.120  1.00  0.00    -0.327 N 
HETATM   10  H   UNL     1      24.859  49.965  48.800  1.00  0.00     0.169 HD
HETATM   11  O   UNL     1      23.415  47.270  49.679  1.00  0.00    -0.272 OA
BRANCH   9  12
HETATM   12  C   UNL     1      22.812  50.120  49.033  1.00  0.00     0.034 A 
HETATM   13  C   UNL     1      22.247  50.562  50.237  1.00  0.00     0.030 A 
HETATM   14  C   UNL     1      20.995  51.188  50.254  1.00  0.00     0.019 A 
HETATM   15  C   UNL     1      20.294  51.376  49.060  1.00  0.00     0.032 A 
HETATM   16  C   UNL     1      20.871  50.968  47.854  1.00  0.00     0.019 A 
HETATM   17  C   UNL     1      22.122  50.337  47.841  1.00  0.00     0.030 A 
BRANCH  15  18
HETATM   18  C   UNL     1      18.949  52.007  49.026  1.00  0.00     0.249 C 
HETATM   19  N   UNL     1      18.568  52.605  47.856  1.00  0.00    -0.366 N 
HETATM   20  H   UNL     1      19.225  52.827  47.123  1.00  0.00     0.159 HD
HETATM   21  H   UNL     1      17.705  53.135  47.889  1.00  0.00     0.159 HD
HETATM   22  O   UNL     1      18.223  52.038  50.010  1.00  0.00    -0.268 OA
ENDBRANCH  15  18
ENDBRANCH   9  12
ENDBRANCH   7   8
ENDBRANCH   6   7
ENDBRANCH   2   6
BRANCH   1  23
HETATM   23  C   UNL     1      27.350  43.872  52.066  1.00  0.00     0.049 A 
HETATM   24  C   UNL     1      26.729  43.990  53.329  1.00  0.00    -0.035 A 
HETATM   25  C   UNL     1      25.249  44.184  53.529  1.00  0.00     0.050 C 
HETATM   26  C   UNL     1      27.537  43.902  54.476  1.00  0.00     0.009 A 
HETATM   27  C   UNL     1      28.908  43.662  54.373  1.00  0.00     0.001 A 
HETATM   28  C   UNL     1      29.500  43.512  53.122  1.00  0.00     0.002 A 
HETATM   29  C   UNL     1      28.726  43.617  51.967  1.00  0.00     0.031 A 
ENDBRANCH   1  23
BRANCH   5  30
HETATM   30  C   UNL     1      26.451  41.539  50.040  1.00  0.00     0.040 A 
HETATM   31  C   UNL     1      27.088  40.648  49.120  1.00  0.00     0.006 A 
HETATM   32  C   UNL     1      26.931  39.354  49.625  1.00  0.00     0.043 A 
HETATM   33  C   UNL     1      27.798  40.807  47.910  1.00  0.00     0.015 A 
HETATM   34  C   UNL     1      27.443  38.220  48.984  1.00  0.00     0.030 A 
HETATM   35  N   UNL     1      26.212  39.458  50.793  1.00  0.00    -0.364 N 
HETATM   36  C   UNL     1      28.141  38.409  47.789  1.00  0.00     0.002 A 
HETATM   37  C   UNL     1      28.318  39.683  47.257  1.00  0.00     0.001 A 
HETATM   38  H   UNL     1      25.938  38.673  51.368  1.00  0.00     0.165 HD
HETATM   39  C   UNL     1      25.912  40.770  51.050  1.00  0.00     0.104 A 
ENDBRANCH   5  30
TORSDOF 7
ENDMDL
