MODEL 1
REMARK VINA RESULT:      -8.6      0.000      0.000
REMARK  8 active torsions:
REMARK  status: ('A' for Active; 'I' for Inactive)
REMARK    1  A    between atoms: N_3  and  C_4 
REMARK    2  A    between atoms: C_4  and  C_5 
REMARK    3  A    between atoms: C_5  and  O_6 
REMARK    4  A    between atoms: C_11  and  C_12 
REMARK    5  A    between atoms: C_13  and  C_14 
REMARK    6  A    between atoms: C_22  and  C_23 
REMARK       I    between atoms: C_23  and  N_24 
REMARK    7  A    between atoms: N_24  and  C_25 
REMARK    8  A    between atoms: C_26  and  O_27 
ROOT
HETATM    1  C   UNL     1      25.746  46.392  53.917  1.00  0.00     0.069 C 
HETATM    2  C   UNL     1      26.414  45.820  52.688  1.00  0.00     0.026 C 
HETATM    3  N   UNL     1      26.149  46.371  51.424  1.00  0.00    -0.301 N 
HETATM    4  C   UNL     1      26.814  45.944  50.269  1.00  0.00     0.323 C 
HETATM    5  O   UNL     1      26.646  46.408  49.143  1.00  0.00    -0.247 OA
HETATM    6  N   UNL     1      27.722  44.941  50.424  1.00  0.00    -0.330 N 
HETATM    7  C   UNL     1      27.788  44.059  51.562  1.00  0.00     0.161 C 
HETATM    8  C   UNL     1      27.244  44.757  52.763  1.00  0.00     0.059 C 
HETATM    9  H   UNL     1      28.128  44.634  49.551  1.00  0.00     0.165 HD
ENDROOT
BRANCH   8  10
HETATM   10  C   UNL     1      27.724  44.238  54.070  1.00  0.00     0.256 C 
HETATM   11  N   UNL     1      29.047  44.577  54.284  1.00  0.00    -0.321 N 
HETATM   12  H   UNL     1      29.571  44.874  53.470  1.00  0.00     0.169 HD
HETATM   13  O   UNL     1      27.014  43.503  54.741  1.00  0.00    -0.267 OA
BRANCH  11  14
HETATM   14  C   UNL     1      29.791  44.412  55.472  1.00  0.00     0.068 A 
HETATM   15  C   UNL     1      29.695  45.242  56.600  1.00  0.00     0.095 A 
HETATM   16  C   UNL     1      30.513  45.006  57.713  1.00  0.00     0.039 A 
HETATM   17  C   UNL     1      31.417  43.944  57.716  1.00  0.00     0.003 A 
HETATM   18  C   UNL     1      31.533  43.131  56.593  1.00  0.00     0.002 A 
HETATM   19  C   UNL     1      30.735  43.374  55.472  1.00  0.00     0.032 A 
BRANCH  15  20
HETATM   20  O   UNL     1      28.953  46.394  56.539  1.00  0.00    -0.354 OA
HETATM   21  C   UNL     1      28.236  46.644  57.748  1.00  0.00     0.210 C 
ENDBRANCH  15  20
ENDBRANCH  11  14
ENDBRANCH   8  10
BRANCH   7  22
HETATM   22  C   UNL     1      27.101  42.731  51.233  1.00  0.00    -0.016 A 
HETATM   23  C   UNL     1      27.637  41.484  51.642  1.00  0.00     0.056 A 
HETATM   24  C   UNL     1      26.958  40.296  51.302  1.00  0.00     0.017 A 
HETATM   25  C   UNL     1      25.776  40.327  50.565  1.00  0.00     0.001 A 
HETATM   26  C   UNL     1      25.253  41.546  50.150  1.00  0.00     0.001 A 
HETATM   27  C   UNL     1      25.907  42.732  50.479  1.00  0.00     0.010 A 
BRANCH  23  28
HETATM   28  C   UNL     1      28.935  41.383  52.414  1.00  0.00     0.418 C 
HETATM   29  F   UNL     1      28.721  41.343  53.761  1.00  0.00    -0.166 F 
HETATM   30  F   UNL     1      29.650  40.264  52.121  1.00  0.00    -0.166 F 
HETATM   31  F   UNL     1      29.783  42.430  52.210  1.00  0.00    -0.166 F 
ENDBRANCH  23  28
ENDBRANCH   7  22
BRANCH   3  32
HETATM   32  C   UNL     1      25.244  47.519  51.250  1.00  0.00     0.160 C 
BRANCH  32  33
HETATM   33  C   UNL     1      24.187  47.337  50.150  1.00  0.00     0.187 C 
BRANCH  33  34
HETATM   34  O   UNL     1      23.650  48.593  49.739  1.00  0.00    -0.394 OA
HETATM   35  C   UNL     1      24.466  49.222  48.760  1.00  0.00     0.201 C 
ENDBRANCH  33  34
ENDBRANCH  32  33
ENDBRANCH   3  32
TORSDOF 8
ENDMDL
MODEL 2
REMARK VINA RESULT:      -8.1      5.577      9.718
REMARK  8 active torsions:
REMARK  status: ('A' for Active; 'I' for Inactive)
REMARK    1  A    between atoms: N_3  and  C_4 
REMARK    2  A    between atoms: C_4  and  C_5 
REMARK    3  A    between atoms: C_5  and  O_6 
REMARK    4  A    between atoms: C_11  and  C_12 
REMARK    5  A    between atoms: C_13  and  C_14 
REMARK    6  A    between atoms: C_22  and  C_23 
REMARK       I    between atoms: C_23  and  N_24 
REMARK    7  A    between atoms: N_24  and  C_25 
REMARK    8  A    between atoms: C_26  and  O_27 
ROOT
HETATM    1  C   UNL     1      24.715  47.827  49.477  1.00  0.00     0.069 C 
HETATM    2  C   UNL     1      23.898  46.559  49.574  1.00  0.00     0.026 C 
HETATM    3  N   UNL     1      24.428  45.430  50.218  1.00  0.00    -0.301 N 
HETATM    4  C   UNL     1      23.678  44.266  50.422  1.00  0.00     0.323 C 
HETATM    5  O   UNL     1      24.078  43.259  51.003  1.00  0.00    -0.247 OA
HETATM    6  N   UNL     1      22.404  44.268  49.939  1.00  0.00    -0.330 N 
HETATM    7  C   UNL     1      21.902  45.187  48.949  1.00  0.00     0.161 C 
HETATM    8  C   UNL     1      22.669  46.465  49.023  1.00  0.00     0.059 C 
HETATM    9  H   UNL     1      21.931  43.384  50.061  1.00  0.00     0.165 HD
ENDROOT
BRANCH   8  10
HETATM   10  C   UNL     1      21.961  47.660  48.494  1.00  0.00     0.256 C 
HETATM   11  N   UNL     1      21.130  48.210  49.452  1.00  0.00    -0.321 N 
HETATM   12  H   UNL     1      20.907  47.621  50.245  1.00  0.00     0.169 HD
HETATM   13  O   UNL     1      22.060  47.965  47.314  1.00  0.00    -0.267 OA
BRANCH  11  14
HETATM   14  C   UNL     1      20.435  49.436  49.380  1.00  0.00     0.068 A 
HETATM   15  C   UNL     1      19.140  49.654  49.876  1.00  0.00     0.095 A 
HETATM   16  C   UNL     1      18.531  50.907  49.715  1.00  0.00     0.039 A 
HETATM   17  C   UNL     1      19.207  51.946  49.075  1.00  0.00     0.003 A 
HETATM   18  C   UNL     1      20.481  51.730  48.563  1.00  0.00     0.002 A 
HETATM   19  C   UNL     1      21.086  50.478  48.702  1.00  0.00     0.032 A 
BRANCH  15  20
HETATM   20  O   UNL     1      18.398  48.596  50.335  1.00  0.00    -0.354 OA
HETATM   21  C   UNL     1      17.606  48.000  49.307  1.00  0.00     0.210 C 
ENDBRANCH  15  20
ENDBRANCH  11  14
ENDBRANCH   8  10
BRANCH   7  22
HETATM   22  C   UNL     1      21.907  44.522  47.570  1.00  0.00    -0.016 A 
HETATM   23  C   UNL     1      20.740  44.438  46.770  1.00  0.00     0.056 A 
HETATM   24  C   UNL     1      20.811  43.807  45.511  1.00  0.00     0.017 A 
HETATM   25  C   UNL     1      22.004  43.259  45.045  1.00  0.00     0.001 A 
HETATM   26  C   UNL     1      23.147  43.327  45.831  1.00  0.00     0.001 A 
HETATM   27  C   UNL     1      23.100  43.949  47.077  1.00  0.00     0.010 A 
BRANCH  23  28
HETATM   28  C   UNL     1      19.407  44.983  47.235  1.00  0.00     0.418 C 
HETATM   29  F   UNL     1      19.311  46.329  47.033  1.00  0.00    -0.166 F 
HETATM   30  F   UNL     1      18.346  44.436  46.585  1.00  0.00    -0.166 F 
HETATM   31  F   UNL     1      19.166  44.795  48.563  1.00  0.00    -0.166 F 
ENDBRANCH  23  28
ENDBRANCH   7  22
BRANCH   3  32
HETATM   32  C   UNL     1      25.766  45.441  50.831  1.00  0.00     0.160 C 
BRANCH  32  33
HETATM   33  C   UNL     1      26.919  45.165  49.852  1.00  0.00     0.187 C 
BRANCH  33  34
HETATM   34  O   UNL     1      27.224  43.773  49.796  1.00  0.00    -0.394 OA
HETATM   35  C   UNL     1      27.507  43.242  51.084  1.00  0.00     0.201 C 
ENDBRANCH  33  34
ENDBRANCH  32  33
ENDBRANCH   3  32
TORSDOF 8
ENDMDL
MODEL 3
REMARK VINA RESULT:      -8.0      2.963      7.199
REMARK  8 active torsions:
REMARK  status: ('A' for Active; 'I' for Inactive)
REMARK    1  A    between atoms: N_3  and  C_4 
REMARK    2  A    between atoms: C_4  and  C_5 
REMARK    3  A    between atoms: C_5  and  O_6 
REMARK    4  A    between atoms: C_11  and  C_12 
REMARK    5  A    between atoms: C_13  and  C_14 
REMARK    6  A    between atoms: C_22  and  C_23 
REMARK       I    between atoms: C_23  and  N_24 
REMARK    7  A    between atoms: N_24  and  C_25 
REMARK    8  A    between atoms: C_26  and  O_27 
ROOT
HETATM    1  C   UNL     1      26.897  47.374  52.351  1.00  0.00     0.069 C 
HETATM    2  C   UNL     1      26.153  46.074  52.554  1.00  0.00     0.026 C 
HETATM    3  N   UNL     1      26.204  45.423  53.796  1.00  0.00    -0.301 N 
HETATM    4  C   UNL     1      25.456  44.272  54.067  1.00  0.00     0.323 C 
HETATM    5  O   UNL     1      25.438  43.676  55.142  1.00  0.00    -0.247 OA
HETATM    6  N   UNL     1      24.687  43.790  53.051  1.00  0.00    -0.330 N 
HETATM    7  C   UNL     1      24.854  44.132  51.661  1.00  0.00     0.161 C 
HETATM    8  C   UNL     1      25.458  45.492  51.553  1.00  0.00     0.059 C 
HETATM    9  H   UNL     1      24.217  42.927  53.283  1.00  0.00     0.165 HD
ENDROOT
BRANCH   8  10
HETATM   10  C   UNL     1      25.196  46.202  50.274  1.00  0.00     0.256 C 
HETATM   11  N   UNL     1      24.236  47.182  50.437  1.00  0.00    -0.321 N 
HETATM   12  H   UNL     1      23.669  47.120  51.273  1.00  0.00     0.169 HD
HETATM   13  O   UNL     1      25.711  45.813  49.235  1.00  0.00    -0.267 OA
BRANCH  11  14
HETATM   14  C   UNL     1      23.852  48.168  49.503  1.00  0.00     0.068 A 
HETATM   15  C   UNL     1      24.716  49.123  48.943  1.00  0.00     0.095 A 
HETATM   16  C   UNL     1      24.215  50.081  48.051  1.00  0.00     0.039 A 
HETATM   17  C   UNL     1      22.865  50.089  47.704  1.00  0.00     0.003 A 
HETATM   18  C   UNL     1      21.999  49.160  48.272  1.00  0.00     0.002 A 
HETATM   19  C   UNL     1      22.488  48.215  49.177  1.00  0.00     0.032 A 
BRANCH  15  20
HETATM   20  O   UNL     1      25.997  49.244  49.416  1.00  0.00    -0.354 OA
HETATM   21  C   UNL     1      26.883  49.813  48.451  1.00  0.00     0.210 C 
ENDBRANCH  15  20
ENDBRANCH  11  14
ENDBRANCH   8  10
BRANCH   7  22
HETATM   22  C   UNL     1      25.638  43.030  50.943  1.00  0.00    -0.016 A 
HETATM   23  C   UNL     1      25.077  42.278  49.880  1.00  0.00     0.056 A 
HETATM   24  C   UNL     1      25.850  41.272  49.264  1.00  0.00     0.017 A 
HETATM   25  C   UNL     1      27.149  41.000  49.688  1.00  0.00     0.001 A 
HETATM   26  C   UNL     1      27.698  41.725  50.738  1.00  0.00     0.001 A 
HETATM   27  C   UNL     1      26.952  42.726  51.358  1.00  0.00     0.010 A 
BRANCH  23  28
HETATM   28  C   UNL     1      23.660  42.502  49.398  1.00  0.00     0.418 C 
HETATM   29  F   UNL     1      22.770  42.522  50.431  1.00  0.00    -0.166 F 
HETATM   30  F   UNL     1      23.495  43.684  48.746  1.00  0.00    -0.166 F 
HETATM   31  F   UNL     1      23.208  41.541  48.545  1.00  0.00    -0.166 F 
ENDBRANCH  23  28
ENDBRANCH   7  22
BRANCH   3  32
HETATM   32  C   UNL     1      26.952  45.979  54.936  1.00  0.00     0.160 C 
BRANCH  32  33
HETATM   33  C   UNL     1      28.307  45.305  55.200  1.00  0.00     0.187 C 
BRANCH  33  34
HETATM   34  O   UNL     1      28.761  44.595  54.049  1.00  0.00    -0.394 OA
HETATM   35  C   UNL     1      29.153  43.267  54.369  1.00  0.00     0.201 C 
ENDBRANCH  33  34
ENDBRANCH  32  33
ENDBRANCH   3  32
TORSDOF 8
ENDMDL
MODEL 4
REMARK VINA RESULT:      -8.0      5.509      9.544
REMARK  8 active torsions:
REMARK  status: ('A' for Active; 'I' for Inactive)
REMARK    1  A    between atoms: N_3  and  C_4 
REMARK    2  A    between atoms: C_4  and  C_5 
REMARK    3  A    between atoms: C_5  and  O_6 
REMARK    4  A    between atoms: C_11  and  C_12 
REMARK    5  A    between atoms: C_13  and  C_14 
REMARK    6  A    between atoms: C_22  and  C_23 
REMARK       I    between atoms: C_23  and  N_24 
REMARK    7  A    between atoms: N_24  and  C_25 
REMARK    8  A    between atoms: C_26  and  O_27 
ROOT
HETATM    1  C   UNL     1      24.788  47.617  49.477  1.00  0.00     0.069 C 
HETATM    2  C   UNL     1      23.937  46.374  49.601  1.00  0.00     0.026 C 
HETATM    3  N   UNL     1      24.428  45.254  50.290  1.00  0.00    -0.301 N 
HETATM    4  C   UNL     1      23.646  44.116  50.518  1.00  0.00     0.323 C 
HETATM    5  O   UNL     1      24.010  43.119  51.138  1.00  0.00    -0.247 OA
HETATM    6  N   UNL     1      22.380  44.134  50.014  1.00  0.00    -0.330 N 
HETATM    7  C   UNL     1      21.918  45.033  48.986  1.00  0.00     0.161 C 
HETATM    8  C   UNL     1      22.715  46.293  49.033  1.00  0.00     0.059 C 
HETATM    9  H   UNL     1      21.883  43.267  50.157  1.00  0.00     0.165 HD
ENDROOT
BRANCH   8  10
HETATM   10  C   UNL     1      22.046  47.487  48.454  1.00  0.00     0.256 C 
HETATM   11  N   UNL     1      21.098  47.995  49.322  1.00  0.00    -0.321 N 
HETATM   12  H   UNL     1      20.798  47.381  50.069  1.00  0.00     0.169 HD
HETATM   13  O   UNL     1      22.274  47.825  47.301  1.00  0.00    -0.267 OA
BRANCH  11  14
HETATM   14  C   UNL     1      20.389  49.209  49.199  1.00  0.00     0.068 A 
HETATM   15  C   UNL     1      20.953  50.486  49.349  1.00  0.00     0.095 A 
HETATM   16  C   UNL     1      20.143  51.625  49.243  1.00  0.00     0.039 A 
HETATM   17  C   UNL     1      18.779  51.502  48.977  1.00  0.00     0.003 A 
HETATM   18  C   UNL     1      18.210  50.240  48.850  1.00  0.00     0.002 A 
HETATM   19  C   UNL     1      19.008  49.100  48.974  1.00  0.00     0.032 A 
BRANCH  15  20
HETATM   20  O   UNL     1      22.244  50.614  49.794  1.00  0.00    -0.354 OA
HETATM   21  C   UNL     1      23.135  51.039  48.762  1.00  0.00     0.210 C 
ENDBRANCH  15  20
ENDBRANCH  11  14
ENDBRANCH   8  10
BRANCH   7  22
HETATM   22  C   UNL     1      21.928  44.323  47.630  1.00  0.00    -0.016 A 
HETATM   23  C   UNL     1      20.780  44.268  46.800  1.00  0.00     0.056 A 
HETATM   24  C   UNL     1      20.855  43.594  45.564  1.00  0.00     0.017 A 
HETATM   25  C   UNL     1      22.032  42.974  45.150  1.00  0.00     0.001 A 
HETATM   26  C   UNL     1      23.156  43.014  45.965  1.00  0.00     0.001 A 
HETATM   27  C   UNL     1      23.105  43.679  47.190  1.00  0.00     0.010 A 
BRANCH  23  28
HETATM   28  C   UNL     1      19.463  44.891  47.209  1.00  0.00     0.418 C 
HETATM   29  F   UNL     1      18.411  44.341  46.537  1.00  0.00    -0.166 F 
HETATM   30  F   UNL     1      19.180  44.731  48.530  1.00  0.00    -0.166 F 
HETATM   31  F   UNL     1      19.387  46.230  46.972  1.00  0.00    -0.166 F 
ENDBRANCH  23  28
ENDBRANCH   7  22
BRANCH   3  32
HETATM   32  C   UNL     1      25.756  45.251  50.924  1.00  0.00     0.160 C 
BRANCH  32  33
HETATM   33  C   UNL     1      26.928  45.055  49.951  1.00  0.00     0.187 C 
BRANCH  33  34
HETATM   34  O   UNL     1      26.974  43.715  49.463  1.00  0.00    -0.394 OA
HETATM   35  C   UNL     1      27.353  42.796  50.478  1.00  0.00     0.201 C 
ENDBRANCH  33  34
ENDBRANCH  32  33
ENDBRANCH   3  32
TORSDOF 8
ENDMDL
MODEL 5
REMARK VINA RESULT:      -7.8      6.796     10.681
REMARK  8 active torsions:
REMARK  status: ('A' for Active; 'I' for Inactive)
REMARK    1  A    between atoms: N_3  and  C_4 
REMARK    2  A    between atoms: C_4  and  C_5 
REMARK    3  A    between atoms: C_5  and  O_6 
REMARK    4  A    between atoms: C_11  and  C_12 
REMARK    5  A    between atoms: C_13  and  C_14 
REMARK    6  A    between atoms: C_22  and  C_23 
REMARK       I    between atoms: C_23  and  N_24 
REMARK    7  A    between atoms: N_24  and  C_25 
REMARK    8  A    between atoms: C_26  and  O_27 
ROOT
HETATM    1  C   UNL     1      21.604  45.912  46.446  1.00  0.00     0.069 C 
HETATM    2  C   UNL     1      20.533  46.547  47.304  1.00  0.00     0.026 C 
HETATM    3  N   UNL     1      19.286  45.920  47.447  1.00  0.00    -0.301 N 
HETATM    4  C   UNL     1      18.296  46.413  48.305  1.00  0.00     0.323 C 
HETATM    5  O   UNL     1      17.199  45.893  48.493  1.00  0.00    -0.247 OA
HETATM    6  N   UNL     1      18.592  47.557  48.984  1.00  0.00    -0.330 N 
HETATM    7  C   UNL     1      19.647  48.473  48.631  1.00  0.00     0.161 C 
HETATM    8  C   UNL     1      20.729  47.734  47.919  1.00  0.00     0.059 C 
HETATM    9  H   UNL     1      17.822  47.898  49.542  1.00  0.00     0.165 HD
ENDROOT
BRANCH   8  10
HETATM   10  C   UNL     1      22.073  48.367  47.975  1.00  0.00     0.256 C 
HETATM   11  N   UNL     1      22.845  47.804  48.973  1.00  0.00    -0.321 N 
HETATM   12  H   UNL     1      22.351  47.265  49.673  1.00  0.00     0.169 HD
HETATM   13  O   UNL     1      22.326  49.340  47.281  1.00  0.00    -0.267 OA
BRANCH  11  14
HETATM   14  C   UNL     1      24.219  48.019  49.217  1.00  0.00     0.068 A 
HETATM   15  C   UNL     1      25.020  47.223  50.050  1.00  0.00     0.095 A 
HETATM   16  C   UNL     1      26.367  47.554  50.249  1.00  0.00     0.039 A 
HETATM   17  C   UNL     1      26.925  48.665  49.615  1.00  0.00     0.003 A 
HETATM   18  C   UNL     1      26.131  49.470  48.805  1.00  0.00     0.002 A 
HETATM   19  C   UNL     1      24.783  49.157  48.619  1.00  0.00     0.032 A 
BRANCH  15  20
HETATM   20  O   UNL     1      24.443  46.247  50.822  1.00  0.00    -0.354 OA
HETATM   21  C   UNL     1      24.617  44.943  50.270  1.00  0.00     0.210 C 
ENDBRANCH  15  20
ENDBRANCH  11  14
ENDBRANCH   8  10
BRANCH   7  22
HETATM   22  C   UNL     1      19.069  49.659  47.854  1.00  0.00    -0.016 A 
HETATM   23  C   UNL     1      18.891  50.934  48.448  1.00  0.00     0.056 A 
HETATM   24  C   UNL     1      18.349  51.983  47.678  1.00  0.00     0.017 A 
HETATM   25  C   UNL     1      17.977  51.786  46.350  1.00  0.00     0.001 A 
HETATM   26  C   UNL     1      18.137  50.536  45.767  1.00  0.00     0.001 A 
HETATM   27  C   UNL     1      18.675  49.485  46.509  1.00  0.00     0.010 A 
BRANCH  23  28
HETATM   28  C   UNL     1      19.243  51.201  49.895  1.00  0.00     0.418 C 
HETATM   29  F   UNL     1      20.592  51.202  50.097  1.00  0.00    -0.166 F 
HETATM   30  F   UNL     1      18.802  52.407  50.342  1.00  0.00    -0.166 F 
HETATM   31  F   UNL     1      18.744  50.278  50.765  1.00  0.00    -0.166 F 
ENDBRANCH  23  28
ENDBRANCH   7  22
BRANCH   3  32
HETATM   32  C   UNL     1      18.982  44.634  46.798  1.00  0.00     0.160 C 
BRANCH  32  33
HETATM   33  C   UNL     1      18.247  44.755  45.454  1.00  0.00     0.187 C 
BRANCH  33  34
HETATM   34  O   UNL     1      16.939  44.191  45.530  1.00  0.00    -0.394 OA
HETATM   35  C   UNL     1      16.289  44.192  44.266  1.00  0.00     0.201 C 
ENDBRANCH  33  34
ENDBRANCH  32  33
ENDBRANCH   3  32
TORSDOF 8
ENDMDL
MODEL 6
REMARK VINA RESULT:      -7.1     15.147     16.748
REMARK  8 active torsions:
REMARK  status: ('A' for Active; 'I' for Inactive)
REMARK    1  A    between atoms: N_3  and  C_4 
REMARK    2  A    between atoms: C_4  and  C_5 
REMARK    3  A    between atoms: C_5  and  O_6 
REMARK    4  A    between atoms: C_11  and  C_12 
REMARK    5  A    between atoms: C_13  and  C_14 
REMARK    6  A    between atoms: C_22  and  C_23 
REMARK       I    between atoms: C_23  and  N_24 
REMARK    7  A    between atoms: N_24  and  C_25 
REMARK    8  A    between atoms: C_26  and  O_27 
ROOT
HETATM    1  C   UNL     1      36.247  44.906  69.038  1.00  0.00     0.069 C 
HETATM    2  C   UNL     1      35.751  44.437  67.690  1.00  0.00     0.026 C 
HETATM    3  N   UNL     1      34.606  43.629  67.605  1.00  0.00    -0.301 N 
HETATM    4  C   UNL     1      34.048  43.250  66.379  1.00  0.00     0.323 C 
HETATM    5  O   UNL     1      33.034  42.570  66.243  1.00  0.00    -0.247 OA
HETATM    6  N   UNL     1      34.688  43.684  65.258  1.00  0.00    -0.330 N 
HETATM    7  C   UNL     1      36.046  44.167  65.221  1.00  0.00     0.161 C 
HETATM    8  C   UNL     1      36.403  44.747  66.548  1.00  0.00     0.059 C 
HETATM    9  H   UNL     1      34.278  43.332  64.404  1.00  0.00     0.165 HD
ENDROOT
BRANCH   8  10
HETATM   10  C   UNL     1      37.503  45.746  66.529  1.00  0.00     0.256 C 
HETATM   11  N   UNL     1      37.060  46.963  66.049  1.00  0.00    -0.321 N 
HETATM   12  H   UNL     1      36.181  46.955  65.546  1.00  0.00     0.169 HD
HETATM   13  O   UNL     1      38.648  45.408  66.794  1.00  0.00    -0.267 OA
BRANCH  11  14
HETATM   14  C   UNL     1      37.762  48.188  66.044  1.00  0.00     0.068 A 
HETATM   15  C   UNL     1      37.546  49.240  66.948  1.00  0.00     0.095 A 
HETATM   16  C   UNL     1      38.277  50.429  66.826  1.00  0.00     0.039 A 
HETATM   17  C   UNL     1      39.229  50.574  65.817  1.00  0.00     0.003 A 
HETATM   18  C   UNL     1      39.433  49.544  64.905  1.00  0.00     0.002 A 
HETATM   19  C   UNL     1      38.693  48.364  65.009  1.00  0.00     0.032 A 
BRANCH  15  20
HETATM   20  O   UNL     1      36.488  49.184  67.820  1.00  0.00    -0.354 OA
HETATM   21  C   UNL     1      36.598  50.143  68.871  1.00  0.00     0.210 C 
ENDBRANCH  15  20
ENDBRANCH  11  14
ENDBRANCH   8  10
BRANCH   7  22
HETATM   22  C   UNL     1      36.982  43.056  64.740  1.00  0.00    -0.016 A 
HETATM   23  C   UNL     1      37.996  43.290  63.776  1.00  0.00     0.056 A 
HETATM   24  C   UNL     1      38.822  42.222  63.371  1.00  0.00     0.017 A 
HETATM   25  C   UNL     1      38.654  40.941  63.894  1.00  0.00     0.001 A 
HETATM   26  C   UNL     1      37.654  40.704  64.828  1.00  0.00     0.001 A 
HETATM   27  C   UNL     1      36.828  41.747  65.245  1.00  0.00     0.010 A 
BRANCH  23  28
HETATM   28  C   UNL     1      38.206  44.650  63.146  1.00  0.00     0.418 C 
HETATM   29  F   UNL     1      38.649  44.550  61.860  1.00  0.00    -0.166 F 
HETATM   30  F   UNL     1      37.070  45.396  63.087  1.00  0.00    -0.166 F 
HETATM   31  F   UNL     1      39.125  45.422  63.790  1.00  0.00    -0.166 F 
ENDBRANCH  23  28
ENDBRANCH   7  22
BRANCH   3  32
HETATM   32  C   UNL     1      33.845  43.231  68.801  1.00  0.00     0.160 C 
BRANCH  32  33
HETATM   33  C   UNL     1      33.058  44.370  69.466  1.00  0.00     0.187 C 
BRANCH  33  34
HETATM   34  O   UNL     1      31.967  43.863  70.232  1.00  0.00    -0.394 OA
HETATM   35  C   UNL     1      31.103  43.052  69.449  1.00  0.00     0.201 C 
ENDBRANCH  33  34
ENDBRANCH  32  33
ENDBRANCH   3  32
TORSDOF 8
ENDMDL
MODEL 7
REMARK VINA RESULT:      -7.1     15.299     17.316
REMARK  8 active torsions:
REMARK  status: ('A' for Active; 'I' for Inactive)
REMARK    1  A    between atoms: N_3  and  C_4 
REMARK    2  A    between atoms: C_4  and  C_5 
REMARK    3  A    between atoms: C_5  and  O_6 
REMARK    4  A    between atoms: C_11  and  C_12 
REMARK    5  A    between atoms: C_13  and  C_14 
REMARK    6  A    between atoms: C_22  and  C_23 
REMARK       I    between atoms: C_23  and  N_24 
REMARK    7  A    between atoms: N_24  and  C_25 
REMARK    8  A    between atoms: C_26  and  O_27 
ROOT
HETATM    1  C   UNL     1      36.545  41.634  65.264  1.00  0.00     0.069 C 
HETATM    2  C   UNL     1      37.066  42.892  64.608  1.00  0.00     0.026 C 
HETATM    3  N   UNL     1      38.018  42.805  63.581  1.00  0.00    -0.301 N 
HETATM    4  C   UNL     1      38.460  43.930  62.875  1.00  0.00     0.323 C 
HETATM    5  O   UNL     1      39.268  43.912  61.949  1.00  0.00    -0.247 OA
HETATM    6  N   UNL     1      37.937  45.130  63.251  1.00  0.00    -0.330 N 
HETATM    7  C   UNL     1      37.277  45.382  64.507  1.00  0.00     0.161 C 
HETATM    8  C   UNL     1      36.664  44.118  65.008  1.00  0.00     0.059 C 
HETATM    9  H   UNL     1      38.334  45.912  62.749  1.00  0.00     0.165 HD
ENDROOT
BRANCH   8  10
HETATM   10  C   UNL     1      35.528  44.294  65.950  1.00  0.00     0.256 C 
HETATM   11  N   UNL     1      35.978  44.510  67.238  1.00  0.00    -0.321 N 
HETATM   12  H   UNL     1      36.943  44.265  67.423  1.00  0.00     0.169 HD
HETATM   13  O   UNL     1      34.379  44.121  65.569  1.00  0.00    -0.267 OA
BRANCH  11  14
HETATM   14  C   UNL     1      35.211  44.887  68.361  1.00  0.00     0.068 A 
HETATM   15  C   UNL     1      34.316  44.045  69.040  1.00  0.00     0.095 A 
HETATM   16  C   UNL     1      33.576  44.539  70.123  1.00  0.00     0.039 A 
HETATM   17  C   UNL     1      33.729  45.860  70.542  1.00  0.00     0.003 A 
HETATM   18  C   UNL     1      34.598  46.706  69.860  1.00  0.00     0.002 A 
HETATM   19  C   UNL     1      35.323  46.225  68.767  1.00  0.00     0.032 A 
BRANCH  15  20
HETATM   20  O   UNL     1      34.018  42.809  68.526  1.00  0.00    -0.354 OA
HETATM   21  C   UNL     1      32.619  42.635  68.303  1.00  0.00     0.210 C 
ENDBRANCH  15  20
ENDBRANCH  11  14
ENDBRANCH   8  10
BRANCH   7  22
HETATM   22  C   UNL     1      38.250  46.048  65.483  1.00  0.00    -0.016 A 
HETATM   23  C   UNL     1      38.091  47.391  65.907  1.00  0.00     0.056 A 
HETATM   24  C   UNL     1      39.026  47.947  66.804  1.00  0.00     0.017 A 
HETATM   25  C   UNL     1      40.106  47.202  67.273  1.00  0.00     0.001 A 
HETATM   26  C   UNL     1      40.274  45.890  66.851  1.00  0.00     0.001 A 
HETATM   27  C   UNL     1      39.359  45.320  65.967  1.00  0.00     0.010 A 
BRANCH  23  28
HETATM   28  C   UNL     1      36.959  48.262  65.406  1.00  0.00     0.418 C 
HETATM   29  F   UNL     1      37.018  49.520  65.929  1.00  0.00    -0.166 F 
HETATM   30  F   UNL     1      36.960  48.422  64.056  1.00  0.00    -0.166 F 
HETATM   31  F   UNL     1      35.719  47.793  65.723  1.00  0.00    -0.166 F 
ENDBRANCH  23  28
ENDBRANCH   7  22
BRANCH   3  32
HETATM   32  C   UNL     1      38.523  41.510  63.095  1.00  0.00     0.160 C 
BRANCH  32  33
HETATM   33  C   UNL     1      39.901  41.115  63.647  1.00  0.00     0.187 C 
BRANCH  33  34
HETATM   34  O   UNL     1      40.002  39.702  63.817  1.00  0.00    -0.394 OA
HETATM   35  C   UNL     1      39.268  39.253  64.948  1.00  0.00     0.201 C 
ENDBRANCH  33  34
ENDBRANCH  32  33
ENDBRANCH   3  32
TORSDOF 8
ENDMDL
MODEL 8
REMARK VINA RESULT:      -7.1      6.618     11.608
REMARK  8 active torsions:
REMARK  status: ('A' for Active; 'I' for Inactive)
REMARK    1  A    between atoms: N_3  and  C_4 
REMARK    2  A    between atoms: C_4  and  C_5 
REMARK    3  A    between atoms: C_5  and  O_6 
REMARK    4  A    between atoms: C_11  and  C_12 
REMARK    5  A    between atoms: C_13  and  C_14 
REMARK    6  A    between atoms: C_22  and  C_23 
REMARK       I    between atoms: C_23  and  N_24 
REMARK    7  A    between atoms: N_24  and  C_25 
REMARK    8  A    between atoms: C_26  and  O_27 
ROOT
HETATM    1  C   UNL     1      22.428  44.359  48.110  1.00  0.00     0.069 C 
HETATM    2  C   UNL     1      22.586  45.834  48.399  1.00  0.00     0.026 C 
HETATM    3  N   UNL     1      23.492  46.264  49.381  1.00  0.00    -0.301 N 
HETATM    4  C   UNL     1      23.748  47.619  49.619  1.00  0.00     0.323 C 
HETATM    5  O   UNL     1      24.550  48.054  50.443  1.00  0.00    -0.247 OA
HETATM    6  N   UNL     1      23.052  48.513  48.864  1.00  0.00    -0.330 N 
HETATM    7  C   UNL     1      21.849  48.209  48.130  1.00  0.00     0.161 C 
HETATM    8  C   UNL     1      21.847  46.764  47.757  1.00  0.00     0.059 C 
HETATM    9  H   UNL     1      23.232  49.474  49.118  1.00  0.00     0.165 HD
ENDROOT
BRANCH   8  10
HETATM   10  C   UNL     1      21.010  46.415  46.580  1.00  0.00     0.256 C 
HETATM   11  N   UNL     1      19.773  45.940  46.973  1.00  0.00    -0.321 N 
HETATM   12  H   UNL     1      19.691  45.647  47.939  1.00  0.00     0.169 HD
HETATM   13  O   UNL     1      21.484  46.449  45.453  1.00  0.00    -0.267 OA
BRANCH  11  14
HETATM   14  C   UNL     1      18.658  45.673  46.150  1.00  0.00     0.068 A 
HETATM   15  C   UNL     1      17.618  46.580  45.889  1.00  0.00     0.095 A 
HETATM   16  C   UNL     1      16.538  46.193  45.085  1.00  0.00     0.039 A 
HETATM   17  C   UNL     1      16.491  44.914  44.529  1.00  0.00     0.003 A 
HETATM   18  C   UNL     1      17.506  44.004  44.801  1.00  0.00     0.002 A 
HETATM   19  C   UNL     1      18.576  44.377  45.619  1.00  0.00     0.032 A 
BRANCH  15  20
HETATM   20  O   UNL     1      17.558  47.765  46.577  1.00  0.00    -0.354 OA
HETATM   21  C   UNL     1      16.433  47.830  47.454  1.00  0.00     0.210 C 
ENDBRANCH  15  20
ENDBRANCH  11  14
ENDBRANCH   8  10
BRANCH   7  22
HETATM   22  C   UNL     1      20.623  48.662  48.926  1.00  0.00    -0.016 A 
HETATM   23  C   UNL     1      20.243  50.025  49.014  1.00  0.00     0.056 A 
HETATM   24  C   UNL     1      19.105  50.376  49.769  1.00  0.00     0.017 A 
HETATM   25  C   UNL     1      18.356  49.410  50.436  1.00  0.00     0.001 A 
HETATM   26  C   UNL     1      18.731  48.075  50.365  1.00  0.00     0.001 A 
HETATM   27  C   UNL     1      19.851  47.705  49.621  1.00  0.00     0.010 A 
BRANCH  23  28
HETATM   28  C   UNL     1      21.036  51.124  48.340  1.00  0.00     0.418 C 
HETATM   29  F   UNL     1      21.344  50.809  47.050  1.00  0.00    -0.166 F 
HETATM   30  F   UNL     1      20.371  52.309  48.282  1.00  0.00    -0.166 F 
HETATM   31  F   UNL     1      22.227  51.395  48.944  1.00  0.00    -0.166 F 
ENDBRANCH  23  28
ENDBRANCH   7  22
BRANCH   3  32
HETATM   32  C   UNL     1      24.324  45.316  50.140  1.00  0.00     0.160 C 
BRANCH  32  33
HETATM   33  C   UNL     1      25.695  45.024  49.510  1.00  0.00     0.187 C 
BRANCH  33  34
HETATM   34  O   UNL     1      26.207  43.768  49.951  1.00  0.00    -0.394 OA
HETATM   35  C   UNL     1      25.568  43.324  51.140  1.00  0.00     0.201 C 
ENDBRANCH  33  34
ENDBRANCH  32  33
ENDBRANCH   3  32
TORSDOF 8
ENDMDL
MODEL 9
REMARK VINA RESULT:      -7.0      6.339      9.689
REMARK  8 active torsions:
REMARK  status: ('A' for Active; 'I' for Inactive)
REMARK    1  A    between atoms: N_3  and  C_4 
REMARK    2  A    between atoms: C_4  and  C_5 
REMARK    3  A    between atoms: C_5  and  O_6 
REMARK    4  A    between atoms: C_11  and  C_12 
REMARK    5  A    between atoms: C_13  and  C_14 
REMARK    6  A    between atoms: C_22  and  C_23 
REMARK       I    between atoms: C_23  and  N_24 
REMARK    7  A    between atoms: N_24  and  C_25 
REMARK    8  A    between atoms: C_26  and  O_27 
ROOT
HETATM    1  C   UNL     1      22.140  44.848  45.747  1.00  0.00     0.069 C 
HETATM    2  C   UNL     1      21.083  45.842  46.169  1.00  0.00     0.026 C 
HETATM    3  N   UNL     1      20.257  46.441  45.205  1.00  0.00    -0.301 N 
HETATM    4  C   UNL     1      19.201  47.291  45.550  1.00  0.00     0.323 C 
HETATM    5  O   UNL     1      18.428  47.820  44.753  1.00  0.00    -0.247 OA
HETATM    6  N   UNL     1      19.023  47.535  46.878  1.00  0.00    -0.330 N 
HETATM    7  C   UNL     1      20.016  47.302  47.897  1.00  0.00     0.161 C 
HETATM    8  C   UNL     1      20.927  46.205  47.461  1.00  0.00     0.059 C 
HETATM    9  H   UNL     1      18.286  48.200  47.065  1.00  0.00     0.165 HD
ENDROOT
BRANCH   8  10
HETATM   10  C   UNL     1      21.623  45.485  48.559  1.00  0.00     0.256 C 
HETATM   11  N   UNL     1      22.933  45.909  48.679  1.00  0.00    -0.321 N 
HETATM   12  H   UNL     1      23.315  46.415  47.890  1.00  0.00     0.169 HD
HETATM   13  O   UNL     1      21.071  44.561  49.139  1.00  0.00    -0.267 OA
BRANCH  11  14
HETATM   14  C   UNL     1      23.846  45.585  49.705  1.00  0.00     0.068 A 
HETATM   15  C   UNL     1      24.502  46.522  50.520  1.00  0.00     0.095 A 
HETATM   16  C   UNL     1      25.420  46.088  51.485  1.00  0.00     0.039 A 
HETATM   17  C   UNL     1      25.682  44.729  51.654  1.00  0.00     0.003 A 
HETATM   18  C   UNL     1      25.052  43.797  50.836  1.00  0.00     0.002 A 
HETATM   19  C   UNL     1      24.151  44.224  49.858  1.00  0.00     0.032 A 
BRANCH  15  20
HETATM   20  O   UNL     1      24.397  47.861  50.240  1.00  0.00    -0.354 OA
HETATM   21  C   UNL     1      25.514  48.351  49.497  1.00  0.00     0.210 C 
ENDBRANCH  15  20
ENDBRANCH  11  14
ENDBRANCH   8  10
BRANCH   7  22
HETATM   22  C   UNL     1      20.722  48.615  48.245  1.00  0.00    -0.016 A 
HETATM   23  C   UNL     1      20.261  49.467  49.280  1.00  0.00     0.056 A 
HETATM   24  C   UNL     1      20.955  50.665  49.547  1.00  0.00     0.017 A 
HETATM   25  C   UNL     1      22.078  51.029  48.807  1.00  0.00     0.001 A 
HETATM   26  C   UNL     1      22.526  50.204  47.784  1.00  0.00     0.001 A 
HETATM   27  C   UNL     1      21.857  49.013  47.505  1.00  0.00     0.010 A 
BRANCH  23  28
HETATM   28  C   UNL     1      19.027  49.145  50.095  1.00  0.00     0.418 C 
HETATM   29  F   UNL     1      19.106  47.908  50.666  1.00  0.00    -0.166 F 
HETATM   30  F   UNL     1      18.819  50.012  51.121  1.00  0.00    -0.166 F 
HETATM   31  F   UNL     1      17.873  49.140  49.372  1.00  0.00    -0.166 F 
ENDBRANCH  23  28
ENDBRANCH   7  22
BRANCH   3  32
HETATM   32  C   UNL     1      20.371  46.116  43.773  1.00  0.00     0.160 C 
BRANCH  32  33
HETATM   33  C   UNL     1      19.506  44.931  43.317  1.00  0.00     0.187 C 
BRANCH  33  34
HETATM   34  O   UNL     1      20.314  43.857  42.840  1.00  0.00    -0.394 OA
HETATM   35  C   UNL     1      21.041  44.220  41.675  1.00  0.00     0.201 C 
ENDBRANCH  33  34
ENDBRANCH  32  33
ENDBRANCH   3  32
TORSDOF 8
ENDMDL
MODEL 10
REMARK VINA RESULT:      -7.0     11.164     14.973
REMARK  8 active torsions:
REMARK  status: ('A' for Active; 'I' for Inactive)
REMARK    1  A    between atoms: N_3  and  C_4 
REMARK    2  A    between atoms: C_4  and  C_5 
REMARK    3  A    between atoms: C_5  and  O_6 
REMARK    4  A    between atoms: C_11  and  C_12 
REMARK    5  A    between atoms: C_13  and  C_14 
REMARK    6  A    between atoms: C_22  and  C_23 
REMARK       I    between atoms: C_23  and  N_24 
REMARK    7  A    between atoms: N_24  and  C_25 
REMARK    8  A    between atoms: C_26  and  O_27 
ROOT
HETATM    1  C   UNL     1      14.529  50.146  45.472  1.00  0.00     0.069 C 
HETATM    2  C   UNL     1      16.010  50.450  45.484  1.00  0.00     0.026 C 
HETATM    3  N   UNL     1      16.774  50.264  44.322  1.00  0.00    -0.301 N 
HETATM    4  C   UNL     1      18.125  50.624  44.252  1.00  0.00     0.323 C 
HETATM    5  O   UNL     1      18.836  50.511  43.256  1.00  0.00    -0.247 OA
HETATM    6  N   UNL     1      18.678  51.144  45.383  1.00  0.00    -0.330 N 
HETATM    7  C   UNL     1      18.118  51.018  46.705  1.00  0.00     0.161 C 
HETATM    8  C   UNL     1      16.637  50.870  46.604  1.00  0.00     0.059 C 
HETATM    9  H   UNL     1      19.667  51.330  45.293  1.00  0.00     0.165 HD
ENDROOT
BRANCH   8  10
HETATM   10  C   UNL     1      15.876  51.273  47.816  1.00  0.00     0.256 C 
HETATM   11  N   UNL     1      15.797  52.648  47.919  1.00  0.00    -0.321 N 
HETATM   12  H   UNL     1      16.451  53.179  47.356  1.00  0.00     0.169 HD
HETATM   13  O   UNL     1      15.519  50.432  48.629  1.00  0.00    -0.267 OA
BRANCH  11  14
HETATM   14  C   UNL     1      15.018  53.395  48.829  1.00  0.00     0.068 A 
HETATM   15  C   UNL     1      14.072  54.367  48.466  1.00  0.00     0.095 A 
HETATM   16  C   UNL     1      13.382  55.076  49.458  1.00  0.00     0.039 A 
HETATM   17  C   UNL     1      13.619  54.817  50.808  1.00  0.00     0.003 A 
HETATM   18  C   UNL     1      14.570  53.872  51.175  1.00  0.00     0.002 A 
HETATM   19  C   UNL     1      15.276  53.176  50.191  1.00  0.00     0.032 A 
BRANCH  15  20
HETATM   20  O   UNL     1      13.967  54.761  47.157  1.00  0.00    -0.354 OA
HETATM   21  C   UNL     1      13.514  56.109  47.029  1.00  0.00     0.210 C 
ENDBRANCH  15  20
ENDBRANCH  11  14
ENDBRANCH   8  10
BRANCH   7  22
HETATM   22  C   UNL     1      18.820  49.889  47.463  1.00  0.00    -0.016 A 
HETATM   23  C   UNL     1      19.511  50.115  48.680  1.00  0.00     0.056 A 
HETATM   24  C   UNL     1      20.142  49.032  49.326  1.00  0.00     0.017 A 
HETATM   25  C   UNL     1      20.104  47.748  48.785  1.00  0.00     0.001 A 
HETATM   26  C   UNL     1      19.439  47.524  47.587  1.00  0.00     0.001 A 
HETATM   27  C   UNL     1      18.806  48.580  46.933  1.00  0.00     0.010 A 
BRANCH  23  28
HETATM   28  C   UNL     1      19.617  51.492  49.299  1.00  0.00     0.418 C 
HETATM   29  F   UNL     1      18.416  51.927  49.776  1.00  0.00    -0.166 F 
HETATM   30  F   UNL     1      20.473  51.543  50.354  1.00  0.00    -0.166 F 
HETATM   31  F   UNL     1      20.037  52.456  48.433  1.00  0.00    -0.166 F 
ENDBRANCH  23  28
ENDBRANCH   7  22
BRANCH   3  32
HETATM   32  C   UNL     1      16.174  49.794  43.063  1.00  0.00     0.160 C 
BRANCH  32  33
HETATM   33  C   UNL     1      15.551  50.902  42.200  1.00  0.00     0.187 C 
BRANCH  33  34
HETATM   34  O   UNL     1      16.399  51.238  41.103  1.00  0.00    -0.394 OA
HETATM   35  C   UNL     1      16.834  52.589  41.166  1.00  0.00     0.201 C 
ENDBRANCH  33  34
ENDBRANCH  32  33
ENDBRANCH   3  32
TORSDOF 8
ENDMDL
