MODEL 1
REMARK VINA RESULT:      -9.5      0.000      0.000
REMARK  7 active torsions:
REMARK  status: ('A' for Active; 'I' for Inactive)
REMARK    1  A    between atoms: C_3  and  N_4 
REMARK    2  A    between atoms: N_7  and  C_9 
REMARK    3  A    between atoms: N_12  and  C_13 
REMARK    4  A    between atoms: C_16  and  C_17 
REMARK       I    between atoms: C_17  and  N_18 
REMARK    5  A    between atoms: C_20  and  C_21 
REMARK    6  A    between atoms: C_21  and  O_22 
REMARK    7  A    between atoms: C_33  and  O_34 
ROOT
HETATM    1  C   UNL     1      22.128  48.397  48.092  1.00  0.00     0.191 C 
HETATM    2  C   UNL     1      23.568  48.809  48.446  1.00  0.00     0.053 C 
HETATM    3  C   UNL     1      24.131  48.035  49.635  1.00  0.00     0.125 C 
HETATM    4  N   UNL     1      23.971  46.606  49.375  1.00  0.00    -0.381 N 
HETATM    5  C   UNL     1      22.613  46.128  49.149  1.00  0.00     0.125 C 
HETATM    6  C   UNL     1      22.053  46.869  47.937  1.00  0.00     0.053 C 
ENDROOT
BRANCH   4   7
HETATM    7  C   UNL     1      24.887  45.764  50.013  1.00  0.00     0.030 A 
HETATM    8  C   UNL     1      24.543  44.915  51.077  1.00  0.00     0.030 A 
HETATM    9  C   UNL     1      25.485  44.055  51.659  1.00  0.00     0.019 A 
HETATM   10  C   UNL     1      26.785  44.006  51.155  1.00  0.00     0.032 A 
HETATM   11  C   UNL     1      27.160  44.858  50.118  1.00  0.00     0.019 A 
HETATM   12  C   UNL     1      26.216  45.722  49.555  1.00  0.00     0.030 A 
BRANCH  10  13
HETATM   13  C   UNL     1      27.817  43.126  51.742  1.00  0.00     0.253 C 
HETATM   14  N   UNL     1      28.505  43.527  52.892  1.00  0.00    -0.348 N 
HETATM   15  C   UNL     1      28.423  44.870  53.480  1.00  0.00     0.132 C 
HETATM   16  C   UNL     1      29.648  42.709  53.297  1.00  0.00     0.126 C 
HETATM   17  C   UNL     1      28.636  44.872  55.002  1.00  0.00     0.027 C 
HETATM   18  C   UNL     1      29.912  44.106  55.368  1.00  0.00     0.010 C 
HETATM   19  C   UNL     1      29.846  42.690  54.808  1.00  0.00     0.020 C 
HETATM   20  O   UNL     1      27.991  42.043  51.185  1.00  0.00    -0.267 OA
BRANCH  17  21
HETATM   21  C   UNL     1      28.653  46.303  55.548  1.00  0.00     0.170 C 
BRANCH  21  22
HETATM   22  O   UNL     1      28.516  46.325  56.962  1.00  0.00    -0.400 OA
HETATM   23  H   UNL     1      27.615  46.636  57.165  1.00  0.00     0.209 HD
ENDBRANCH  21  22
ENDBRANCH  17  21
ENDBRANCH  10  13
ENDBRANCH   4   7
BRANCH   1  24
HETATM   24  N   UNL     1      21.108  48.951  49.113  1.00  0.00    -0.064 N 
HETATM   25  C   UNL     1      20.761  50.433  48.822  1.00  0.00     0.255 C 
HETATM   26  C   UNL     1      19.788  50.996  49.876  1.00  0.00     0.150 C 
HETATM   27  N   UNL     1      18.548  50.191  49.960  1.00  0.00    -0.375 N 
HETATM   28  C   UNL     1      18.773  48.752  50.160  1.00  0.00     0.150 C 
HETATM   29  C   UNL     1      19.793  48.148  49.167  1.00  0.00     0.255 C 
HETATM   30  H   UNL     1      21.520  48.914  50.054  1.00  0.00     0.280 HD
BRANCH  27  31
HETATM   31  C   UNL     1      17.512  50.624  49.116  1.00  0.00     0.063 A 
HETATM   32  C   UNL     1      17.047  49.906  48.008  1.00  0.00     0.032 A 
HETATM   33  C   UNL     1      16.039  50.422  47.178  1.00  0.00     0.002 A 
HETATM   34  C   UNL     1      15.462  51.660  47.449  1.00  0.00     0.003 A 
HETATM   35  C   UNL     1      15.873  52.380  48.564  1.00  0.00     0.039 A 
HETATM   36  C   UNL     1      16.865  51.850  49.384  1.00  0.00     0.092 A 
BRANCH  36  37
HETATM   37  O   UNL     1      17.161  52.535  50.535  1.00  0.00    -0.358 OA
HETATM   38  H   UNL     1      16.374  52.409  51.097  1.00  0.00     0.218 HD
ENDBRANCH  36  37
ENDBRANCH  27  31
ENDBRANCH   1  24
TORSDOF 7
ENDMDL
MODEL 2
REMARK VINA RESULT:      -9.5      2.205     10.151
REMARK  7 active torsions:
REMARK  status: ('A' for Active; 'I' for Inactive)
REMARK    1  A    between atoms: C_3  and  N_4 
REMARK    2  A    between atoms: N_7  and  C_9 
REMARK    3  A    between atoms: N_12  and  C_13 
REMARK    4  A    between atoms: C_16  and  C_17 
REMARK       I    between atoms: C_17  and  N_18 
REMARK    5  A    between atoms: C_20  and  C_21 
REMARK    6  A    between atoms: C_21  and  O_22 
REMARK    7  A    between atoms: C_33  and  O_34 
ROOT
HETATM    1  C   UNL     1      26.193  42.311  50.706  1.00  0.00     0.191 C 
HETATM    2  C   UNL     1      24.680  42.552  50.858  1.00  0.00     0.053 C 
HETATM    3  C   UNL     1      24.316  44.035  50.884  1.00  0.00     0.125 C 
HETATM    4  N   UNL     1      24.903  44.676  49.709  1.00  0.00    -0.381 N 
HETATM    5  C   UNL     1      26.351  44.587  49.568  1.00  0.00     0.125 C 
HETATM    6  C   UNL     1      26.723  43.107  49.503  1.00  0.00     0.053 C 
ENDROOT
BRANCH   4   7
HETATM    7  C   UNL     1      24.248  45.823  49.250  1.00  0.00     0.030 A 
HETATM    8  C   UNL     1      23.160  45.788  48.363  1.00  0.00     0.030 A 
HETATM    9  C   UNL     1      22.505  46.960  47.964  1.00  0.00     0.019 A 
HETATM   10  C   UNL     1      22.909  48.192  48.481  1.00  0.00     0.032 A 
HETATM   11  C   UNL     1      24.004  48.258  49.341  1.00  0.00     0.019 A 
HETATM   12  C   UNL     1      24.658  47.083  49.721  1.00  0.00     0.030 A 
BRANCH  10  13
HETATM   13  C   UNL     1      22.259  49.458  48.081  1.00  0.00     0.253 C 
HETATM   14  N   UNL     1      21.035  49.824  48.652  1.00  0.00    -0.348 N 
HETATM   15  C   UNL     1      20.220  48.946  49.500  1.00  0.00     0.132 C 
HETATM   16  C   UNL     1      20.351  50.976  48.065  1.00  0.00     0.126 C 
HETATM   17  C   UNL     1      19.380  49.716  50.530  1.00  0.00     0.027 C 
HETATM   18  C   UNL     1      18.588  50.837  49.848  1.00  0.00     0.010 C 
HETATM   19  C   UNL     1      19.537  51.757  49.090  1.00  0.00     0.020 C 
HETATM   20  O   UNL     1      22.870  50.152  47.270  1.00  0.00    -0.267 OA
BRANCH  17  21
HETATM   21  C   UNL     1      18.468  48.766  51.311  1.00  0.00     0.170 C 
BRANCH  21  22
HETATM   22  O   UNL     1      18.745  48.802  52.705  1.00  0.00    -0.400 OA
HETATM   23  H   UNL     1      19.697  48.980  52.811  1.00  0.00     0.209 HD
ENDBRANCH  21  22
ENDBRANCH  17  21
ENDBRANCH  10  13
ENDBRANCH   4   7
BRANCH   1  24
HETATM   24  N   UNL     1      26.954  42.617  52.016  1.00  0.00    -0.064 N 
HETATM   25  C   UNL     1      27.845  43.877  51.875  1.00  0.00     0.255 C 
HETATM   26  C   UNL     1      28.644  44.143  53.164  1.00  0.00     0.150 C 
HETATM   27  N   UNL     1      27.755  44.280  54.340  1.00  0.00    -0.375 N 
HETATM   28  C   UNL     1      26.814  43.164  54.519  1.00  0.00     0.150 C 
HETATM   29  C   UNL     1      26.030  42.812  53.234  1.00  0.00     0.255 C 
HETATM   30  H   UNL     1      27.577  41.828  52.236  1.00  0.00     0.280 HD
BRANCH  27  31
HETATM   31  C   UNL     1      27.337  45.594  54.609  1.00  0.00     0.063 A 
HETATM   32  C   UNL     1      26.317  46.254  53.915  1.00  0.00     0.032 A 
HETATM   33  C   UNL     1      25.983  47.586  54.204  1.00  0.00     0.002 A 
HETATM   34  C   UNL     1      26.654  48.283  55.206  1.00  0.00     0.003 A 
HETATM   35  C   UNL     1      27.645  47.644  55.941  1.00  0.00     0.039 A 
HETATM   36  C   UNL     1      27.956  46.319  55.650  1.00  0.00     0.092 A 
BRANCH  36  37
HETATM   37  O   UNL     1      28.857  45.690  56.472  1.00  0.00    -0.358 OA
HETATM   38  H   UNL     1      29.399  46.417  56.832  1.00  0.00     0.218 HD
ENDBRANCH  36  37
ENDBRANCH  27  31
ENDBRANCH   1  24
TORSDOF 7
ENDMDL
MODEL 3
REMARK VINA RESULT:      -9.0      1.927     11.645
REMARK  7 active torsions:
REMARK  status: ('A' for Active; 'I' for Inactive)
REMARK    1  A    between atoms: C_3  and  N_4 
REMARK    2  A    between atoms: N_7  and  C_9 
REMARK    3  A    between atoms: N_12  and  C_13 
REMARK    4  A    between atoms: C_16  and  C_17 
REMARK       I    between atoms: C_17  and  N_18 
REMARK    5  A    between atoms: C_20  and  C_21 
REMARK    6  A    between atoms: C_21  and  O_22 
REMARK    7  A    between atoms: C_33  and  O_34 
ROOT
HETATM    1  C   UNL     1      25.966  46.087  50.263  1.00  0.00     0.191 C 
HETATM    2  C   UNL     1      25.046  45.182  49.426  1.00  0.00     0.053 C 
HETATM    3  C   UNL     1      23.582  45.614  49.477  1.00  0.00     0.125 C 
HETATM    4  N   UNL     1      23.505  47.029  49.121  1.00  0.00    -0.381 N 
HETATM    5  C   UNL     1      24.262  47.957  49.952  1.00  0.00     0.125 C 
HETATM    6  C   UNL     1      25.733  47.556  49.877  1.00  0.00     0.053 C 
ENDROOT
BRANCH   4   7
HETATM    7  C   UNL     1      22.294  47.452  48.565  1.00  0.00     0.030 A 
HETATM    8  C   UNL     1      22.080  48.751  48.077  1.00  0.00     0.030 A 
HETATM    9  C   UNL     1      20.863  49.118  47.487  1.00  0.00     0.019 A 
HETATM   10  C   UNL     1      19.847  48.172  47.342  1.00  0.00     0.032 A 
HETATM   11  C   UNL     1      20.023  46.883  47.843  1.00  0.00     0.019 A 
HETATM   12  C   UNL     1      21.236  46.532  48.442  1.00  0.00     0.030 A 
BRANCH  10  13
HETATM   13  C   UNL     1      18.542  48.513  46.739  1.00  0.00     0.253 C 
HETATM   14  N   UNL     1      17.781  49.561  47.268  1.00  0.00    -0.348 N 
HETATM   15  C   UNL     1      18.086  50.254  48.527  1.00  0.00     0.132 C 
HETATM   16  C   UNL     1      16.418  49.711  46.759  1.00  0.00     0.126 C 
HETATM   17  C   UNL     1      17.613  51.715  48.538  1.00  0.00     0.027 C 
HETATM   18  C   UNL     1      16.142  51.808  48.114  1.00  0.00     0.010 C 
HETATM   19  C   UNL     1      15.955  51.162  46.746  1.00  0.00     0.020 C 
HETATM   20  O   UNL     1      18.208  47.857  45.754  1.00  0.00    -0.267 OA
BRANCH  17  21
HETATM   21  C   UNL     1      17.853  52.356  49.907  1.00  0.00     0.170 C 
BRANCH  21  22
HETATM   22  O   UNL     1      16.740  53.135  50.324  1.00  0.00    -0.400 OA
HETATM   23  H   UNL     1      16.968  54.072  50.183  1.00  0.00     0.209 HD
ENDBRANCH  21  22
ENDBRANCH  17  21
ENDBRANCH  10  13
ENDBRANCH   4   7
BRANCH   1  24
HETATM   24  N   UNL     1      25.798  45.827  51.778  1.00  0.00    -0.064 N 
HETATM   25  C   UNL     1      26.303  44.416  52.172  1.00  0.00     0.255 C 
HETATM   26  C   UNL     1      26.080  44.142  53.671  1.00  0.00     0.150 C 
HETATM   27  N   UNL     1      26.732  45.168  54.517  1.00  0.00    -0.375 N 
HETATM   28  C   UNL     1      26.375  46.551  54.172  1.00  0.00     0.150 C 
HETATM   29  C   UNL     1      26.519  46.863  52.664  1.00  0.00     0.255 C 
HETATM   30  H   UNL     1      24.799  45.871  52.019  1.00  0.00     0.280 HD
BRANCH  27  31
HETATM   31  C   UNL     1      28.049  44.862  54.898  1.00  0.00     0.063 A 
HETATM   32  C   UNL     1      28.808  43.824  54.346  1.00  0.00     0.032 A 
HETATM   33  C   UNL     1      30.103  43.543  54.809  1.00  0.00     0.002 A 
HETATM   34  C   UNL     1      30.673  44.307  55.824  1.00  0.00     0.003 A 
HETATM   35  C   UNL     1      29.962  45.370  56.366  1.00  0.00     0.039 A 
HETATM   36  C   UNL     1      28.684  45.643  55.888  1.00  0.00     0.092 A 
BRANCH  36  37
HETATM   37  O   UNL     1      28.061  46.768  56.367  1.00  0.00    -0.358 OA
HETATM   38  H   UNL     1      27.483  46.436  57.078  1.00  0.00     0.218 HD
ENDBRANCH  36  37
ENDBRANCH  27  31
ENDBRANCH   1  24
TORSDOF 7
ENDMDL
MODEL 4
REMARK VINA RESULT:      -8.9      4.138     11.704
REMARK  7 active torsions:
REMARK  status: ('A' for Active; 'I' for Inactive)
REMARK    1  A    between atoms: C_3  and  N_4 
REMARK    2  A    between atoms: N_7  and  C_9 
REMARK    3  A    between atoms: N_12  and  C_13 
REMARK    4  A    between atoms: C_16  and  C_17 
REMARK       I    between atoms: C_17  and  N_18 
REMARK    5  A    between atoms: C_20  and  C_21 
REMARK    6  A    between atoms: C_21  and  O_22 
REMARK    7  A    between atoms: C_33  and  O_34 
ROOT
HETATM    1  C   UNL     1      26.407  42.422  50.940  1.00  0.00     0.191 C 
HETATM    2  C   UNL     1      26.874  43.836  51.331  1.00  0.00     0.053 C 
HETATM    3  C   UNL     1      26.472  44.897  50.309  1.00  0.00     0.125 C 
HETATM    4  N   UNL     1      25.034  44.792  50.073  1.00  0.00    -0.381 N 
HETATM    5  C   UNL     1      24.542  43.510  49.585  1.00  0.00     0.125 C 
HETATM    6  C   UNL     1      24.905  42.446  50.619  1.00  0.00     0.053 C 
ENDROOT
BRANCH   4   7
HETATM    7  C   UNL     1      24.399  45.964  49.655  1.00  0.00     0.030 A 
HETATM    8  C   UNL     1      24.832  47.249  50.018  1.00  0.00     0.030 A 
HETATM    9  C   UNL     1      24.191  48.399  49.539  1.00  0.00     0.019 A 
HETATM   10  C   UNL     1      23.120  48.279  48.653  1.00  0.00     0.032 A 
HETATM   11  C   UNL     1      22.652  47.016  48.298  1.00  0.00     0.019 A 
HETATM   12  C   UNL     1      23.290  45.875  48.793  1.00  0.00     0.030 A 
BRANCH  10  13
HETATM   13  C   UNL     1      22.403  49.461  48.130  1.00  0.00     0.253 C 
HETATM   14  N   UNL     1      21.136  49.785  48.627  1.00  0.00    -0.348 N 
HETATM   15  C   UNL     1      20.349  48.921  49.516  1.00  0.00     0.132 C 
HETATM   16  C   UNL     1      20.400  50.837  47.925  1.00  0.00     0.126 C 
HETATM   17  C   UNL     1      19.419  49.710  50.451  1.00  0.00     0.027 C 
HETATM   18  C   UNL     1      18.581  50.716  49.653  1.00  0.00     0.010 C 
HETATM   19  C   UNL     1      19.496  51.637  48.855  1.00  0.00     0.020 C 
HETATM   20  O   UNL     1      22.997  50.131  47.286  1.00  0.00    -0.267 OA
BRANCH  17  21
HETATM   21  C   UNL     1      18.543  48.763  51.275  1.00  0.00     0.170 C 
BRANCH  21  22
HETATM   22  O   UNL     1      18.809  48.881  52.667  1.00  0.00    -0.400 OA
HETATM   23  H   UNL     1      18.140  49.482  53.043  1.00  0.00     0.209 HD
ENDBRANCH  21  22
ENDBRANCH  17  21
ENDBRANCH  10  13
ENDBRANCH   4   7
BRANCH   1  24
HETATM   24  N   UNL     1      27.261  41.837  49.791  1.00  0.00    -0.064 N 
HETATM   25  C   UNL     1      27.997  40.547  50.231  1.00  0.00     0.255 C 
HETATM   26  C   UNL     1      28.891  40.001  49.101  1.00  0.00     0.150 C 
HETATM   27  N   UNL     1      28.115  39.746  47.866  1.00  0.00    -0.375 N 
HETATM   28  C   UNL     1      27.317  40.892  47.406  1.00  0.00     0.150 C 
HETATM   29  C   UNL     1      26.449  41.521  48.520  1.00  0.00     0.255 C 
HETATM   30  H   UNL     1      27.981  42.522  49.524  1.00  0.00     0.280 HD
BRANCH  27  31
HETATM   31  C   UNL     1      27.592  38.446  47.760  1.00  0.00     0.063 A 
HETATM   32  C   UNL     1      26.795  37.836  48.736  1.00  0.00     0.032 A 
HETATM   33  C   UNL     1      26.347  36.514  48.586  1.00  0.00     0.002 A 
HETATM   34  C   UNL     1      26.673  35.780  47.449  1.00  0.00     0.003 A 
HETATM   35  C   UNL     1      27.428  36.370  46.443  1.00  0.00     0.039 A 
HETATM   36  C   UNL     1      27.856  37.685  46.601  1.00  0.00     0.092 A 
BRANCH  36  37
HETATM   37  O   UNL     1      28.500  38.268  45.539  1.00  0.00    -0.358 OA
HETATM   38  H   UNL     1      28.680  39.178  45.840  1.00  0.00     0.218 HD
ENDBRANCH  36  37
ENDBRANCH  27  31
ENDBRANCH   1  24
TORSDOF 7
ENDMDL
MODEL 5
REMARK VINA RESULT:      -8.6     14.735     19.286
REMARK  7 active torsions:
REMARK  status: ('A' for Active; 'I' for Inactive)
REMARK    1  A    between atoms: C_3  and  N_4 
REMARK    2  A    between atoms: N_7  and  C_9 
REMARK    3  A    between atoms: N_12  and  C_13 
REMARK    4  A    between atoms: C_16  and  C_17 
REMARK       I    between atoms: C_17  and  N_18 
REMARK    5  A    between atoms: C_20  and  C_21 
REMARK    6  A    between atoms: C_21  and  O_22 
REMARK    7  A    between atoms: C_33  and  O_34 
ROOT
HETATM    1  C   UNL     1      38.988  53.494  43.584  1.00  0.00     0.191 C 
HETATM    2  C   UNL     1      38.712  52.293  42.663  1.00  0.00     0.053 C 
HETATM    3  C   UNL     1      37.539  51.439  43.138  1.00  0.00     0.125 C 
HETATM    4  N   UNL     1      36.383  52.309  43.339  1.00  0.00    -0.381 N 
HETATM    5  C   UNL     1      36.541  53.400  44.293  1.00  0.00     0.125 C 
HETATM    6  C   UNL     1      37.688  54.283  43.806  1.00  0.00     0.053 C 
ENDROOT
BRANCH   4   7
HETATM    7  C   UNL     1      35.132  51.700  43.210  1.00  0.00     0.030 A 
HETATM    8  C   UNL     1      34.041  51.991  44.044  1.00  0.00     0.030 A 
HETATM    9  C   UNL     1      32.791  51.388  43.850  1.00  0.00     0.019 A 
HETATM   10  C   UNL     1      32.604  50.505  42.786  1.00  0.00     0.032 A 
HETATM   11  C   UNL     1      33.677  50.177  41.960  1.00  0.00     0.019 A 
HETATM   12  C   UNL     1      34.923  50.774  42.171  1.00  0.00     0.030 A 
BRANCH  10  13
HETATM   13  C   UNL     1      31.309  49.833  42.547  1.00  0.00     0.253 C 
HETATM   14  N   UNL     1      30.285  50.510  41.876  1.00  0.00    -0.348 N 
HETATM   15  C   UNL     1      30.317  51.940  41.542  1.00  0.00     0.132 C 
HETATM   16  C   UNL     1      28.971  49.868  41.855  1.00  0.00     0.126 C 
HETATM   17  C   UNL     1      29.518  52.278  40.274  1.00  0.00     0.027 C 
HETATM   18  C   UNL     1      28.106  51.686  40.353  1.00  0.00     0.010 C 
HETATM   19  C   UNL     1      28.187  50.182  40.587  1.00  0.00     0.020 C 
HETATM   20  O   UNL     1      31.219  48.669  42.934  1.00  0.00    -0.267 OA
BRANCH  17  21
HETATM   21  C   UNL     1      29.490  53.790  40.034  1.00  0.00     0.170 C 
BRANCH  21  22
HETATM   22  O   UNL     1      30.570  54.445  40.687  1.00  0.00    -0.400 OA
HETATM   23  H   UNL     1      30.199  55.191  41.191  1.00  0.00     0.209 HD
ENDBRANCH  21  22
ENDBRANCH  17  21
ENDBRANCH  10  13
ENDBRANCH   4   7
BRANCH   1  24
HETATM   24  N   UNL     1      39.663  53.058  44.905  1.00  0.00    -0.064 N 
HETATM   25  C   UNL     1      41.163  52.733  44.697  1.00  0.00     0.255 C 
HETATM   26  C   UNL     1      41.815  52.244  46.004  1.00  0.00     0.150 C 
HETATM   27  N   UNL     1      41.657  53.231  47.096  1.00  0.00    -0.375 N 
HETATM   28  C   UNL     1      40.270  53.663  47.324  1.00  0.00     0.150 C 
HETATM   29  C   UNL     1      39.546  54.104  46.031  1.00  0.00     0.255 C 
HETATM   30  H   UNL     1      39.210  52.199  45.246  1.00  0.00     0.280 HD
BRANCH  27  31
HETATM   31  C   UNL     1      42.703  54.163  47.200  1.00  0.00     0.063 A 
HETATM   32  C   UNL     1      42.797  55.330  46.433  1.00  0.00     0.032 A 
HETATM   33  C   UNL     1      43.897  56.193  46.554  1.00  0.00     0.002 A 
HETATM   34  C   UNL     1      44.920  55.915  47.458  1.00  0.00     0.003 A 
HETATM   35  C   UNL     1      44.837  54.786  48.263  1.00  0.00     0.039 A 
HETATM   36  C   UNL     1      43.735  53.946  48.139  1.00  0.00     0.092 A 
BRANCH  36  37
HETATM   37  O   UNL     1      43.634  52.906  49.029  1.00  0.00    -0.358 OA
HETATM   38  H   UNL     1      44.174  53.189  49.789  1.00  0.00     0.218 HD
ENDBRANCH  36  37
ENDBRANCH  27  31
ENDBRANCH   1  24
TORSDOF 7
ENDMDL
MODEL 6
REMARK VINA RESULT:      -8.5     20.334     22.909
REMARK  7 active torsions:
REMARK  status: ('A' for Active; 'I' for Inactive)
REMARK    1  A    between atoms: C_3  and  N_4 
REMARK    2  A    between atoms: N_7  and  C_9 
REMARK    3  A    between atoms: N_12  and  C_13 
REMARK    4  A    between atoms: C_16  and  C_17 
REMARK       I    between atoms: C_17  and  N_18 
REMARK    5  A    between atoms: C_20  and  C_21 
REMARK    6  A    between atoms: C_21  and  O_22 
REMARK    7  A    between atoms: C_33  and  O_34 
ROOT
HETATM    1  C   UNL     1      38.069  44.352  63.538  1.00  0.00     0.191 C 
HETATM    2  C   UNL     1      39.602  44.221  63.548  1.00  0.00     0.053 C 
HETATM    3  C   UNL     1      40.091  43.050  64.397  1.00  0.00     0.125 C 
HETATM    4  N   UNL     1      39.395  41.840  63.962  1.00  0.00    -0.381 N 
HETATM    5  C   UNL     1      37.940  41.857  64.041  1.00  0.00     0.125 C 
HETATM    6  C   UNL     1      37.438  43.002  63.164  1.00  0.00     0.053 C 
ENDROOT
BRANCH   4   7
HETATM    7  C   UNL     1      40.071  40.637  64.182  1.00  0.00     0.030 A 
HETATM    8  C   UNL     1      39.913  39.503  63.369  1.00  0.00     0.030 A 
HETATM    9  C   UNL     1      40.645  38.330  63.600  1.00  0.00     0.019 A 
HETATM   10  C   UNL     1      41.581  38.288  64.634  1.00  0.00     0.032 A 
HETATM   11  C   UNL     1      41.738  39.390  65.473  1.00  0.00     0.019 A 
HETATM   12  C   UNL     1      40.992  40.549  65.242  1.00  0.00     0.030 A 
BRANCH  10  13
HETATM   13  C   UNL     1      42.368  37.072  64.926  1.00  0.00     0.253 C 
HETATM   14  N   UNL     1      41.788  36.020  65.644  1.00  0.00    -0.348 N 
HETATM   15  C   UNL     1      40.485  36.096  66.317  1.00  0.00     0.132 C 
HETATM   16  C   UNL     1      42.679  34.943  66.074  1.00  0.00     0.126 C 
HETATM   17  C   UNL     1      39.769  34.739  66.394  1.00  0.00     0.027 C 
HETATM   18  C   UNL     1      40.706  33.668  66.965  1.00  0.00     0.010 C 
HETATM   19  C   UNL     1      41.977  33.591  66.127  1.00  0.00     0.020 C 
HETATM   20  O   UNL     1      43.513  37.042  64.476  1.00  0.00    -0.267 OA
BRANCH  17  21
HETATM   21  C   UNL     1      38.473  34.851  67.201  1.00  0.00     0.170 C 
BRANCH  21  22
HETATM   22  O   UNL     1      37.470  33.975  66.705  1.00  0.00    -0.400 OA
HETATM   23  H   UNL     1      36.627  34.465  66.701  1.00  0.00     0.209 HD
ENDBRANCH  21  22
ENDBRANCH  17  21
ENDBRANCH  10  13
ENDBRANCH   4   7
BRANCH   1  24
HETATM   24  N   UNL     1      37.536  44.919  64.874  1.00  0.00    -0.064 N 
HETATM   25  C   UNL     1      38.640  45.683  65.648  1.00  0.00     0.255 C 
HETATM   26  C   UNL     1      38.118  46.195  67.004  1.00  0.00     0.150 C 
HETATM   27  N   UNL     1      36.925  47.056  66.840  1.00  0.00    -0.375 N 
HETATM   28  C   UNL     1      35.844  46.448  66.051  1.00  0.00     0.150 C 
HETATM   29  C   UNL     1      36.326  45.858  64.705  1.00  0.00     0.255 C 
HETATM   30  H   UNL     1      37.229  44.140  65.472  1.00  0.00     0.280 HD
BRANCH  27  31
HETATM   31  C   UNL     1      37.206  48.426  66.698  1.00  0.00     0.063 A 
HETATM   32  C   UNL     1      37.662  49.018  65.514  1.00  0.00     0.032 A 
HETATM   33  C   UNL     1      37.970  50.386  65.456  1.00  0.00     0.002 A 
HETATM   34  C   UNL     1      37.813  51.195  66.579  1.00  0.00     0.003 A 
HETATM   35  C   UNL     1      37.325  50.647  67.759  1.00  0.00     0.039 A 
HETATM   36  C   UNL     1      37.013  49.291  67.796  1.00  0.00     0.092 A 
BRANCH  36  37
HETATM   37  O   UNL     1      36.427  48.813  68.941  1.00  0.00    -0.358 OA
HETATM   38  H   UNL     1      35.470  48.896  68.772  1.00  0.00     0.218 HD
ENDBRANCH  36  37
ENDBRANCH  27  31
ENDBRANCH   1  24
TORSDOF 7
ENDMDL
MODEL 7
REMARK VINA RESULT:      -8.3      3.534     10.975
REMARK  7 active torsions:
REMARK  status: ('A' for Active; 'I' for Inactive)
REMARK    1  A    between atoms: C_3  and  N_4 
REMARK    2  A    between atoms: N_7  and  C_9 
REMARK    3  A    between atoms: N_12  and  C_13 
REMARK    4  A    between atoms: C_16  and  C_17 
REMARK       I    between atoms: C_17  and  N_18 
REMARK    5  A    between atoms: C_20  and  C_21 
REMARK    6  A    between atoms: C_21  and  O_22 
REMARK    7  A    between atoms: C_33  and  O_34 
ROOT
HETATM    1  C   UNL     1      27.151  43.490  51.830  1.00  0.00     0.191 C 
HETATM    2  C   UNL     1      27.704  44.375  50.698  1.00  0.00     0.053 C 
HETATM    3  C   UNL     1      26.617  44.867  49.746  1.00  0.00     0.125 C 
HETATM    4  N   UNL     1      25.564  45.503  50.534  1.00  0.00    -0.381 N 
HETATM    5  C   UNL     1      24.915  44.680  51.546  1.00  0.00     0.125 C 
HETATM    6  C   UNL     1      25.988  44.213  52.527  1.00  0.00     0.053 C 
ENDROOT
BRANCH   4   7
HETATM    7  C   UNL     1      24.814  46.480  49.873  1.00  0.00     0.030 A 
HETATM    8  C   UNL     1      23.598  46.211  49.224  1.00  0.00     0.030 A 
HETATM    9  C   UNL     1      22.856  47.230  48.611  1.00  0.00     0.019 A 
HETATM   10  C   UNL     1      23.307  48.549  48.671  1.00  0.00     0.032 A 
HETATM   11  C   UNL     1      24.525  48.839  49.283  1.00  0.00     0.019 A 
HETATM   12  C   UNL     1      25.262  47.813  49.879  1.00  0.00     0.030 A 
BRANCH  10  13
HETATM   13  C   UNL     1      22.568  49.657  48.029  1.00  0.00     0.253 C 
HETATM   14  N   UNL     1      21.293  50.004  48.489  1.00  0.00    -0.348 N 
HETATM   15  C   UNL     1      20.520  49.220  49.461  1.00  0.00     0.132 C 
HETATM   16  C   UNL     1      20.538  50.964  47.683  1.00  0.00     0.126 C 
HETATM   17  C   UNL     1      19.572  50.081  50.309  1.00  0.00     0.027 C 
HETATM   18  C   UNL     1      18.716  50.983  49.412  1.00  0.00     0.010 C 
HETATM   19  C   UNL     1      19.616  51.836  48.525  1.00  0.00     0.020 C 
HETATM   20  O   UNL     1      23.151  50.249  47.122  1.00  0.00    -0.267 OA
BRANCH  17  21
HETATM   21  C   UNL     1      18.712  49.205  51.225  1.00  0.00     0.170 C 
BRANCH  21  22
HETATM   22  O   UNL     1      18.968  47.822  51.018  1.00  0.00    -0.400 OA
HETATM   23  H   UNL     1      18.997  47.669  50.057  1.00  0.00     0.209 HD
ENDBRANCH  21  22
ENDBRANCH  17  21
ENDBRANCH  10  13
ENDBRANCH   4   7
BRANCH   1  24
HETATM   24  N   UNL     1      26.768  42.082  51.318  1.00  0.00    -0.064 N 
HETATM   25  C   UNL     1      25.786  42.159  50.123  1.00  0.00     0.255 C 
HETATM   26  C   UNL     1      25.364  40.753  49.655  1.00  0.00     0.150 C 
HETATM   27  N   UNL     1      26.536  39.922  49.296  1.00  0.00    -0.375 N 
HETATM   28  C   UNL     1      27.567  39.847  50.341  1.00  0.00     0.150 C 
HETATM   29  C   UNL     1      27.981  41.231  50.893  1.00  0.00     0.255 C 
HETATM   30  H   UNL     1      26.291  41.569  52.071  1.00  0.00     0.280 HD
BRANCH  27  31
HETATM   31  C   UNL     1      26.917  40.000  47.946  1.00  0.00     0.063 A 
HETATM   32  C   UNL     1      27.871  40.893  47.446  1.00  0.00     0.032 A 
HETATM   33  C   UNL     1      28.169  40.949  46.076  1.00  0.00     0.002 A 
HETATM   34  C   UNL     1      27.527  40.101  45.177  1.00  0.00     0.003 A 
HETATM   35  C   UNL     1      26.603  39.175  45.645  1.00  0.00     0.039 A 
HETATM   36  C   UNL     1      26.328  39.124  47.008  1.00  0.00     0.092 A 
BRANCH  36  37
HETATM   37  O   UNL     1      25.498  38.122  47.444  1.00  0.00    -0.358 OA
HETATM   38  H   UNL     1      26.104  37.451  47.809  1.00  0.00     0.218 HD
ENDBRANCH  36  37
ENDBRANCH  27  31
ENDBRANCH   1  24
TORSDOF 7
ENDMDL
MODEL 8
REMARK VINA RESULT:      -8.2     13.279     14.895
REMARK  7 active torsions:
REMARK  status: ('A' for Active; 'I' for Inactive)
REMARK    1  A    between atoms: C_3  and  N_4 
REMARK    2  A    between atoms: N_7  and  C_9 
REMARK    3  A    between atoms: N_12  and  C_13 
REMARK    4  A    between atoms: C_16  and  C_17 
REMARK       I    between atoms: C_17  and  N_18 
REMARK    5  A    between atoms: C_20  and  C_21 
REMARK    6  A    between atoms: C_21  and  O_22 
REMARK    7  A    between atoms: C_33  and  O_34 
ROOT
HETATM    1  C   UNL     1      31.829  49.128  41.891  1.00  0.00     0.191 C 
HETATM    2  C   UNL     1      33.238  48.880  41.324  1.00  0.00     0.053 C 
HETATM    3  C   UNL     1      34.062  50.159  41.203  1.00  0.00     0.125 C 
HETATM    4  N   UNL     1      34.056  50.839  42.497  1.00  0.00    -0.381 N 
HETATM    5  C   UNL     1      32.753  51.210  43.036  1.00  0.00     0.125 C 
HETATM    6  C   UNL     1      31.933  49.932  43.197  1.00  0.00     0.053 C 
ENDROOT
BRANCH   4   7
HETATM    7  C   UNL     1      35.156  51.660  42.758  1.00  0.00     0.030 A 
HETATM    8  C   UNL     1      36.140  51.960  41.803  1.00  0.00     0.030 A 
HETATM    9  C   UNL     1      37.203  52.825  42.096  1.00  0.00     0.019 A 
HETATM   10  C   UNL     1      37.276  53.437  43.348  1.00  0.00     0.032 A 
HETATM   11  C   UNL     1      36.328  53.135  44.324  1.00  0.00     0.019 A 
HETATM   12  C   UNL     1      35.280  52.260  44.025  1.00  0.00     0.030 A 
BRANCH  10  13
HETATM   13  C   UNL     1      38.383  54.346  43.709  1.00  0.00     0.253 C 
HETATM   14  N   UNL     1      39.485  53.857  44.419  1.00  0.00    -0.348 N 
HETATM   15  C   UNL     1      39.556  52.519  45.020  1.00  0.00     0.132 C 
HETATM   16  C   UNL     1      40.440  54.845  44.921  1.00  0.00     0.126 C 
HETATM   17  C   UNL     1      40.988  51.968  45.090  1.00  0.00     0.027 C 
HETATM   18  C   UNL     1      41.929  52.993  45.735  1.00  0.00     0.010 C 
HETATM   19  C   UNL     1      41.865  54.308  44.968  1.00  0.00     0.020 C 
HETATM   20  O   UNL     1      38.283  55.509  43.321  1.00  0.00    -0.267 OA
BRANCH  17  21
HETATM   21  C   UNL     1      41.020  50.624  45.824  1.00  0.00     0.170 C 
BRANCH  21  22
HETATM   22  O   UNL     1      39.977  49.763  45.386  1.00  0.00    -0.400 OA
HETATM   23  H   UNL     1      39.830  49.938  44.439  1.00  0.00     0.209 HD
ENDBRANCH  21  22
ENDBRANCH  17  21
ENDBRANCH  10  13
ENDBRANCH   4   7
BRANCH   1  24
HETATM   24  N   UNL     1      30.901  49.791  40.846  1.00  0.00    -0.064 N 
HETATM   25  C   UNL     1      30.336  48.751  39.847  1.00  0.00     0.255 C 
HETATM   26  C   UNL     1      29.459  49.425  38.775  1.00  0.00     0.150 C 
HETATM   27  N   UNL     1      28.353  50.199  39.382  1.00  0.00    -0.375 N 
HETATM   28  C   UNL     1      28.780  51.166  40.404  1.00  0.00     0.150 C 
HETATM   29  C   UNL     1      29.717  50.555  41.471  1.00  0.00     0.255 C 
HETATM   30  H   UNL     1      31.444  50.474  40.301  1.00  0.00     0.280 HD
BRANCH  27  31
HETATM   31  C   UNL     1      27.162  49.475  39.563  1.00  0.00     0.063 A 
HETATM   32  C   UNL     1      27.000  48.445  40.497  1.00  0.00     0.032 A 
HETATM   33  C   UNL     1      25.796  47.731  40.590  1.00  0.00     0.002 A 
HETATM   34  C   UNL     1      24.721  48.042  39.760  1.00  0.00     0.003 A 
HETATM   35  C   UNL     1      24.836  49.085  38.850  1.00  0.00     0.039 A 
HETATM   36  C   UNL     1      26.032  49.792  38.778  1.00  0.00     0.092 A 
BRANCH  36  37
HETATM   37  O   UNL     1      26.067  50.885  37.950  1.00  0.00    -0.358 OA
HETATM   38  H   UNL     1      26.025  51.646  38.558  1.00  0.00     0.218 HD
ENDBRANCH  36  37
ENDBRANCH  27  31
ENDBRANCH   1  24
TORSDOF 7
ENDMDL
MODEL 9
REMARK VINA RESULT:      -8.1      2.270     11.604
REMARK  7 active torsions:
REMARK  status: ('A' for Active; 'I' for Inactive)
REMARK    1  A    between atoms: C_3  and  N_4 
REMARK    2  A    between atoms: N_7  and  C_9 
REMARK    3  A    between atoms: N_12  and  C_13 
REMARK    4  A    between atoms: C_16  and  C_17 
REMARK       I    between atoms: C_17  and  N_18 
REMARK    5  A    between atoms: C_20  and  C_21 
REMARK    6  A    between atoms: C_21  and  O_22 
REMARK    7  A    between atoms: C_33  and  O_34 
ROOT
HETATM    1  C   UNL     1      24.421  43.986  49.463  1.00  0.00     0.191 C 
HETATM    2  C   UNL     1      23.085  43.227  49.545  1.00  0.00     0.053 C 
HETATM    3  C   UNL     1      21.878  44.159  49.626  1.00  0.00     0.125 C 
HETATM    4  N   UNL     1      21.952  45.110  48.518  1.00  0.00    -0.381 N 
HETATM    5  C   UNL     1      23.144  45.947  48.451  1.00  0.00     0.125 C 
HETATM    6  C   UNL     1      24.355  45.025  48.332  1.00  0.00     0.053 C 
ENDROOT
BRANCH   4   7
HETATM    7  C   UNL     1      20.732  45.634  48.083  1.00  0.00     0.030 A 
HETATM    8  C   UNL     1      19.487  45.181  48.548  1.00  0.00     0.030 A 
HETATM    9  C   UNL     1      18.289  45.767  48.118  1.00  0.00     0.019 A 
HETATM   10  C   UNL     1      18.322  46.848  47.236  1.00  0.00     0.032 A 
HETATM   11  C   UNL     1      19.542  47.299  46.737  1.00  0.00     0.019 A 
HETATM   12  C   UNL     1      20.730  46.698  47.163  1.00  0.00     0.030 A 
BRANCH  10  13
HETATM   13  C   UNL     1      17.086  47.491  46.742  1.00  0.00     0.253 C 
HETATM   14  N   UNL     1      16.655  48.698  47.303  1.00  0.00    -0.348 N 
HETATM   15  C   UNL     1      17.238  49.308  48.505  1.00  0.00     0.132 C 
HETATM   16  C   UNL     1      15.326  49.170  46.915  1.00  0.00     0.126 C 
HETATM   17  C   UNL     1      17.135  50.840  48.510  1.00  0.00     0.027 C 
HETATM   18  C   UNL     1      15.697  51.285  48.218  1.00  0.00     0.010 C 
HETATM   19  C   UNL     1      15.229  50.690  46.895  1.00  0.00     0.020 C 
HETATM   20  O   UNL     1      16.510  46.925  45.814  1.00  0.00    -0.267 OA
BRANCH  17  21
HETATM   21  C   UNL     1      17.654  51.417  49.831  1.00  0.00     0.170 C 
BRANCH  21  22
HETATM   22  O   UNL     1      19.073  51.383  49.896  1.00  0.00    -0.400 OA
HETATM   23  H   UNL     1      19.359  52.119  50.467  1.00  0.00     0.209 HD
ENDBRANCH  21  22
ENDBRANCH  17  21
ENDBRANCH  10  13
ENDBRANCH   4   7
BRANCH   1  24
HETATM   24  N   UNL     1      24.813  44.602  50.826  1.00  0.00    -0.064 N 
HETATM   25  C   UNL     1      25.060  43.507  51.895  1.00  0.00     0.255 C 
HETATM   26  C   UNL     1      25.394  44.128  53.264  1.00  0.00     0.150 C 
HETATM   27  N   UNL     1      26.565  45.031  53.183  1.00  0.00    -0.375 N 
HETATM   28  C   UNL     1      26.461  46.065  52.142  1.00  0.00     0.150 C 
HETATM   29  C   UNL     1      26.063  45.502  50.759  1.00  0.00     0.255 C 
HETATM   30  H   UNL     1      24.040  45.189  51.165  1.00  0.00     0.280 HD
BRANCH  27  31
HETATM   31  C   UNL     1      27.801  44.411  53.428  1.00  0.00     0.063 A 
HETATM   32  C   UNL     1      28.473  43.602  52.504  1.00  0.00     0.032 A 
HETATM   33  C   UNL     1      29.683  42.972  52.833  1.00  0.00     0.002 A 
HETATM   34  C   UNL     1      30.257  43.152  54.089  1.00  0.00     0.003 A 
HETATM   35  C   UNL     1      29.636  43.981  55.015  1.00  0.00     0.039 A 
HETATM   36  C   UNL     1      28.442  44.607  54.670  1.00  0.00     0.092 A 
BRANCH  36  37
HETATM   37  O   UNL     1      27.921  45.505  55.567  1.00  0.00    -0.358 OA
HETATM   38  H   UNL     1      28.698  45.997  55.891  1.00  0.00     0.218 HD
ENDBRANCH  36  37
ENDBRANCH  27  31
ENDBRANCH   1  24
TORSDOF 7
ENDMDL
MODEL 10
REMARK VINA RESULT:      -8.0     13.272     14.985
REMARK  7 active torsions:
REMARK  status: ('A' for Active; 'I' for Inactive)
REMARK    1  A    between atoms: C_3  and  N_4 
REMARK    2  A    between atoms: N_7  and  C_9 
REMARK    3  A    between atoms: N_12  and  C_13 
REMARK    4  A    between atoms: C_16  and  C_17 
REMARK       I    between atoms: C_17  and  N_18 
REMARK    5  A    between atoms: C_20  and  C_21 
REMARK    6  A    between atoms: C_21  and  O_22 
REMARK    7  A    between atoms: C_33  and  O_34 
ROOT
HETATM    1  C   UNL     1      32.068  51.136  40.504  1.00  0.00     0.191 C 
HETATM    2  C   UNL     1      32.159  52.078  41.718  1.00  0.00     0.053 C 
HETATM    3  C   UNL     1      33.206  51.633  42.736  1.00  0.00     0.125 C 
HETATM    4  N   UNL     1      34.476  51.440  42.040  1.00  0.00    -0.381 N 
HETATM    5  C   UNL     1      34.487  50.468  40.953  1.00  0.00     0.125 C 
HETATM    6  C   UNL     1      33.470  50.924  39.910  1.00  0.00     0.053 C 
ENDROOT
BRANCH   4   7
HETATM    7  C   UNL     1      35.627  51.598  42.818  1.00  0.00     0.030 A 
HETATM    8  C   UNL     1      36.869  51.034  42.483  1.00  0.00     0.030 A 
HETATM    9  C   UNL     1      38.008  51.256  43.269  1.00  0.00     0.019 A 
HETATM   10  C   UNL     1      37.927  52.082  44.391  1.00  0.00     0.032 A 
HETATM   11  C   UNL     1      36.701  52.631  44.761  1.00  0.00     0.019 A 
HETATM   12  C   UNL     1      35.569  52.391  43.977  1.00  0.00     0.030 A 
BRANCH  10  13
HETATM   13  C   UNL     1      39.096  52.336  45.259  1.00  0.00     0.253 C 
HETATM   14  N   UNL     1      39.541  53.646  45.464  1.00  0.00    -0.348 N 
HETATM   15  C   UNL     1      39.051  54.814  44.721  1.00  0.00     0.132 C 
HETATM   16  C   UNL     1      40.817  53.809  46.161  1.00  0.00     0.126 C 
HETATM   17  C   UNL     1      39.112  56.114  45.538  1.00  0.00     0.027 C 
HETATM   18  C   UNL     1      40.505  56.301  46.148  1.00  0.00     0.010 C 
HETATM   19  C   UNL     1      40.870  55.085  46.991  1.00  0.00     0.020 C 
HETATM   20  O   UNL     1      39.602  51.351  45.794  1.00  0.00    -0.267 OA
BRANCH  17  21
HETATM   21  C   UNL     1      38.697  57.315  44.683  1.00  0.00     0.170 C 
BRANCH  21  22
HETATM   22  O   UNL     1      37.763  58.143  45.363  1.00  0.00    -0.400 OA
HETATM   23  H   UNL     1      37.715  57.836  46.286  1.00  0.00     0.209 HD
ENDBRANCH  21  22
ENDBRANCH  17  21
ENDBRANCH  10  13
ENDBRANCH   4   7
BRANCH   1  24
HETATM   24  N   UNL     1      31.357  49.810  40.863  1.00  0.00    -0.064 N 
HETATM   25  C   UNL     1      30.099  50.057  41.732  1.00  0.00     0.255 C 
HETATM   26  C   UNL     1      29.428  48.729  42.133  1.00  0.00     0.150 C 
HETATM   27  N   UNL     1      29.075  47.916  40.947  1.00  0.00    -0.375 N 
HETATM   28  C   UNL     1      30.190  47.688  40.016  1.00  0.00     0.150 C 
HETATM   29  C   UNL     1      30.940  48.983  39.631  1.00  0.00     0.255 C 
HETATM   30  H   UNL     1      31.998  49.224  41.414  1.00  0.00     0.280 HD
BRANCH  27  31
HETATM   31  C   UNL     1      27.783  48.144  40.444  1.00  0.00     0.063 A 
HETATM   32  C   UNL     1      27.480  49.071  39.440  1.00  0.00     0.032 A 
HETATM   33  C   UNL     1      26.158  49.282  39.019  1.00  0.00     0.002 A 
HETATM   34  C   UNL     1      25.111  48.558  39.584  1.00  0.00     0.003 A 
HETATM   35  C   UNL     1      25.381  47.602  40.555  1.00  0.00     0.039 A 
HETATM   36  C   UNL     1      26.698  47.396  40.953  1.00  0.00     0.092 A 
BRANCH  36  37
HETATM   37  O   UNL     1      26.937  46.366  41.828  1.00  0.00    -0.358 OA
HETATM   38  H   UNL     1      26.724  46.742  42.702  1.00  0.00     0.218 HD
ENDBRANCH  36  37
ENDBRANCH  27  31
ENDBRANCH   1  24
TORSDOF 7
ENDMDL
