MODEL 1
REMARK VINA RESULT:      -7.6      0.000      0.000
REMARK  8 active torsions:
REMARK  status: ('A' for Active; 'I' for Inactive)
REMARK    1  A    between atoms: C_2  and  C_3 
REMARK    2  A    between atoms: C_3  and  C_4 
REMARK    3  A    between atoms: C_4  and  N_5 
REMARK    4  A    between atoms: N_5  and  C_6 
REMARK    5  A    between atoms: C_8  and  N_9 
REMARK    6  A    between atoms: N_9  and  C_10 
REMARK    7  A    between atoms: C_10  and  C_11 
REMARK    8  A    between atoms: C_12  and  O_13 
ROOT
HETATM    1  C   UNL     1      27.926  42.023  53.435  1.00  0.00     0.181 A 
HETATM    2  N   UNL     1      27.027  43.025  53.429  1.00  0.00    -0.207 NA
HETATM    3  C   UNL     1      27.333  44.148  54.107  1.00  0.00     0.119 A 
HETATM    4  C   UNL     1      28.568  44.314  54.770  1.00  0.00     0.031 A 
HETATM    5  C   UNL     1      29.429  43.202  54.775  1.00  0.00     0.048 A 
HETATM    6  N   UNL     1      29.068  42.097  54.114  1.00  0.00    -0.330 N 
HETATM    7  H   UNL     1      29.650  41.271  54.126  1.00  0.00     0.168 HD
HETATM    8  C   UNL     1      29.025  45.494  55.406  1.00  0.00     0.017 A 
HETATM    9  C   UNL     1      30.255  45.535  56.066  1.00  0.00     0.001 A 
HETATM   10  C   UNL     1      31.066  44.406  56.097  1.00  0.00     0.002 A 
HETATM   11  C   UNL     1      30.660  43.243  55.447  1.00  0.00     0.030 A 
ENDROOT
BRANCH   3  12
HETATM   12  N   UNL     1      26.342  45.125  54.081  1.00  0.00    -0.272 NA
HETATM   13  H   UNL     1      26.779  46.024  53.891  1.00  0.00     0.129 HD
BRANCH  12  14
HETATM   14  C   UNL     1      25.208  44.869  53.178  1.00  0.00     0.135 C 
BRANCH  14  15
HETATM   15  C   UNL     1      25.192  45.739  51.936  1.00  0.00    -0.012 A 
HETATM   16  C   UNL     1      24.340  45.397  50.860  1.00  0.00     0.075 A 
HETATM   17  C   UNL     1      24.352  46.163  49.690  1.00  0.00     0.037 A 
HETATM   18  C   UNL     1      25.223  47.246  49.563  1.00  0.00     0.003 A 
HETATM   19  C   UNL     1      26.098  47.562  50.597  1.00  0.00     0.001 A 
HETATM   20  C   UNL     1      26.092  46.807  51.770  1.00  0.00     0.011 A 
BRANCH  16  21
HETATM   21  O   UNL     1      23.553  44.290  51.049  1.00  0.00    -0.355 OA
HETATM   22  C   UNL     1      22.757  43.851  49.953  1.00  0.00     0.210 C 
ENDBRANCH  16  21
ENDBRANCH  14  15
ENDBRANCH  12  14
ENDBRANCH   3  12
BRANCH   1  23
HETATM   23  N   UNL     1      27.702  40.835  52.754  1.00  0.00    -0.262 NA
HETATM   24  H   UNL     1      28.119  40.021  53.192  1.00  0.00     0.130 HD
BRANCH  23  25
HETATM   25  C   UNL     1      27.966  40.872  51.313  1.00  0.00     0.095 C 
BRANCH  25  26
HETATM   26  C   UNL     1      26.675  40.579  50.539  1.00  0.00     0.014 C 
BRANCH  26  27
HETATM   27  C   UNL     1      25.895  41.849  50.192  1.00  0.00    -0.003 C 
HETATM   28  C   UNL     1      26.822  42.954  49.710  1.00  0.00     0.005 C 
ENDBRANCH  26  27
ENDBRANCH  25  26
ENDBRANCH  23  25
ENDBRANCH   1  23
TORSDOF 8
ENDMDL
MODEL 2
REMARK VINA RESULT:      -7.6      2.240      6.331
REMARK  8 active torsions:
REMARK  status: ('A' for Active; 'I' for Inactive)
REMARK    1  A    between atoms: C_2  and  C_3 
REMARK    2  A    between atoms: C_3  and  C_4 
REMARK    3  A    between atoms: C_4  and  N_5 
REMARK    4  A    between atoms: N_5  and  C_6 
REMARK    5  A    between atoms: C_8  and  N_9 
REMARK    6  A    between atoms: N_9  and  C_10 
REMARK    7  A    between atoms: C_10  and  C_11 
REMARK    8  A    between atoms: C_12  and  O_13 
ROOT
HETATM    1  C   UNL     1      26.390  44.152  49.877  1.00  0.00     0.181 A 
HETATM    2  N   UNL     1      26.481  43.960  51.206  1.00  0.00    -0.207 NA
HETATM    3  C   UNL     1      26.963  42.779  51.639  1.00  0.00     0.119 A 
HETATM    4  C   UNL     1      27.409  41.777  50.751  1.00  0.00     0.031 A 
HETATM    5  C   UNL     1      27.230  42.033  49.380  1.00  0.00     0.048 A 
HETATM    6  N   UNL     1      26.718  43.208  48.998  1.00  0.00    -0.330 N 
HETATM    7  H   UNL     1      26.548  43.409  48.023  1.00  0.00     0.168 HD
HETATM    8  C   UNL     1      28.035  40.559  51.110  1.00  0.00     0.017 A 
HETATM    9  C   UNL     1      28.405  39.620  50.145  1.00  0.00     0.001 A 
HETATM   10  C   UNL     1      28.173  39.876  48.799  1.00  0.00     0.002 A 
HETATM   11  C   UNL     1      27.594  41.083  48.413  1.00  0.00     0.030 A 
ENDROOT
BRANCH   3  12
HETATM   12  N   UNL     1      26.998  42.644  53.024  1.00  0.00    -0.272 NA
HETATM   13  H   UNL     1      27.749  42.003  53.268  1.00  0.00     0.129 HD
BRANCH  12  14
HETATM   14  C   UNL     1      27.079  43.898  53.792  1.00  0.00     0.135 C 
BRANCH  14  15
HETATM   15  C   UNL     1      28.366  44.064  54.577  1.00  0.00    -0.012 A 
HETATM   16  C   UNL     1      28.594  45.264  55.289  1.00  0.00     0.075 A 
HETATM   17  C   UNL     1      29.798  45.450  55.977  1.00  0.00     0.037 A 
HETATM   18  C   UNL     1      30.791  44.471  55.938  1.00  0.00     0.003 A 
HETATM   19  C   UNL     1      30.596  43.307  55.203  1.00  0.00     0.001 A 
HETATM   20  C   UNL     1      29.397  43.110  54.516  1.00  0.00     0.011 A 
BRANCH  16  21
HETATM   21  O   UNL     1      27.586  46.194  55.234  1.00  0.00    -0.355 OA
HETATM   22  C   UNL     1      27.942  47.533  54.905  1.00  0.00     0.210 C 
ENDBRANCH  16  21
ENDBRANCH  14  15
ENDBRANCH  12  14
ENDBRANCH   3  12
BRANCH   1  23
HETATM   23  N   UNL     1      25.918  45.341  49.340  1.00  0.00    -0.262 NA
HETATM   24  H   UNL     1      26.588  45.825  48.750  1.00  0.00     0.130 HD
BRANCH  23  25
HETATM   25  C   UNL     1      25.273  46.253  50.288  1.00  0.00     0.095 C 
BRANCH  25  26
HETATM   26  C   UNL     1      26.197  47.441  50.580  1.00  0.00     0.014 C 
BRANCH  26  27
HETATM   27  C   UNL     1      26.238  48.452  49.432  1.00  0.00    -0.003 C 
HETATM   28  C   UNL     1      27.667  48.858  49.103  1.00  0.00     0.005 C 
ENDBRANCH  26  27
ENDBRANCH  25  26
ENDBRANCH  23  25
ENDBRANCH   1  23
TORSDOF 8
ENDMDL
MODEL 3
REMARK VINA RESULT:      -7.6      2.381      6.080
REMARK  8 active torsions:
REMARK  status: ('A' for Active; 'I' for Inactive)
REMARK    1  A    between atoms: C_2  and  C_3 
REMARK    2  A    between atoms: C_3  and  C_4 
REMARK    3  A    between atoms: C_4  and  N_5 
REMARK    4  A    between atoms: N_5  and  C_6 
REMARK    5  A    between atoms: C_8  and  N_9 
REMARK    6  A    between atoms: N_9  and  C_10 
REMARK    7  A    between atoms: C_10  and  C_11 
REMARK    8  A    between atoms: C_12  and  O_13 
ROOT
HETATM    1  C   UNL     1      27.306  42.428  50.546  1.00  0.00     0.181 A 
HETATM    2  N   UNL     1      27.791  42.432  51.801  1.00  0.00    -0.207 NA
HETATM    3  C   UNL     1      27.565  43.522  52.559  1.00  0.00     0.119 A 
HETATM    4  C   UNL     1      26.806  44.618  52.094  1.00  0.00     0.031 A 
HETATM    5  C   UNL     1      26.381  44.559  50.754  1.00  0.00     0.048 A 
HETATM    6  N   UNL     1      26.657  43.469  50.031  1.00  0.00    -0.330 N 
HETATM    7  H   UNL     1      26.393  43.411  49.057  1.00  0.00     0.168 HD
HETATM    8  C   UNL     1      26.418  45.749  52.852  1.00  0.00     0.017 A 
HETATM    9  C   UNL     1      25.695  46.796  52.277  1.00  0.00     0.001 A 
HETATM   10  C   UNL     1      25.328  46.736  50.937  1.00  0.00     0.002 A 
HETATM   11  C   UNL     1      25.663  45.617  50.177  1.00  0.00     0.030 A 
ENDROOT
BRANCH   3  12
HETATM   12  N   UNL     1      28.123  43.465  53.833  1.00  0.00    -0.272 NA
HETATM   13  H   UNL     1      27.857  42.584  54.264  1.00  0.00     0.129 HD
BRANCH  12  14
HETATM   14  C   UNL     1      29.576  43.694  53.911  1.00  0.00     0.135 C 
BRANCH  14  15
HETATM   15  C   UNL     1      30.088  43.971  55.311  1.00  0.00    -0.012 A 
HETATM   16  C   UNL     1      29.799  45.212  55.923  1.00  0.00     0.075 A 
HETATM   17  C   UNL     1      30.307  45.498  57.195  1.00  0.00     0.037 A 
HETATM   18  C   UNL     1      31.125  44.578  57.852  1.00  0.00     0.003 A 
HETATM   19  C   UNL     1      31.453  43.374  57.239  1.00  0.00     0.001 A 
HETATM   20  C   UNL     1      30.950  43.077  55.972  1.00  0.00     0.011 A 
BRANCH  16  21
HETATM   21  O   UNL     1      29.029  46.077  55.187  1.00  0.00    -0.355 OA
HETATM   22  C   UNL     1      28.029  46.819  55.877  1.00  0.00     0.210 C 
ENDBRANCH  16  21
ENDBRANCH  14  15
ENDBRANCH  12  14
ENDBRANCH   3  12
BRANCH   1  23
HETATM   23  N   UNL     1      27.480  41.343  49.698  1.00  0.00    -0.262 NA
HETATM   24  H   UNL     1      26.654  41.101  49.160  1.00  0.00     0.130 HD
BRANCH  23  25
HETATM   25  C   UNL     1      28.101  40.161  50.300  1.00  0.00     0.095 C 
BRANCH  25  26
HETATM   26  C   UNL     1      28.841  39.356  49.225  1.00  0.00     0.014 C 
BRANCH  26  27
HETATM   27  C   UNL     1      29.199  37.942  49.689  1.00  0.00    -0.003 C 
HETATM   28  C   UNL     1      30.000  37.970  50.982  1.00  0.00     0.005 C 
ENDBRANCH  26  27
ENDBRANCH  25  26
ENDBRANCH  23  25
ENDBRANCH   1  23
TORSDOF 8
ENDMDL
MODEL 4
REMARK VINA RESULT:      -7.4      2.009      5.216
REMARK  8 active torsions:
REMARK  status: ('A' for Active; 'I' for Inactive)
REMARK    1  A    between atoms: C_2  and  C_3 
REMARK    2  A    between atoms: C_3  and  C_4 
REMARK    3  A    between atoms: C_4  and  N_5 
REMARK    4  A    between atoms: N_5  and  C_6 
REMARK    5  A    between atoms: C_8  and  N_9 
REMARK    6  A    between atoms: N_9  and  C_10 
REMARK    7  A    between atoms: C_10  and  C_11 
REMARK    8  A    between atoms: C_12  and  O_13 
ROOT
HETATM    1  C   UNL     1      26.603  43.759  53.473  1.00  0.00     0.181 A 
HETATM    2  N   UNL     1      27.347  42.822  52.857  1.00  0.00    -0.207 NA
HETATM    3  C   UNL     1      28.640  42.706  53.219  1.00  0.00     0.119 A 
HETATM    4  C   UNL     1      29.208  43.497  54.242  1.00  0.00     0.031 A 
HETATM    5  C   UNL     1      28.380  44.489  54.796  1.00  0.00     0.048 A 
HETATM    6  N   UNL     1      27.112  44.586  54.382  1.00  0.00    -0.330 N 
HETATM    7  H   UNL     1      26.502  45.309  54.739  1.00  0.00     0.168 HD
HETATM    8  C   UNL     1      30.516  43.369  54.769  1.00  0.00     0.017 A 
HETATM    9  C   UNL     1      30.987  44.234  55.759  1.00  0.00     0.001 A 
HETATM   10  C   UNL     1      30.165  45.238  56.258  1.00  0.00     0.002 A 
HETATM   11  C   UNL     1      28.860  45.363  55.785  1.00  0.00     0.030 A 
ENDROOT
BRANCH   3  12
HETATM   12  N   UNL     1      29.351  41.738  52.518  1.00  0.00    -0.272 NA
HETATM   13  H   UNL     1      30.287  41.676  52.910  1.00  0.00     0.129 HD
BRANCH  12  14
HETATM   14  C   UNL     1      28.713  40.415  52.418  1.00  0.00     0.135 C 
BRANCH  14  15
HETATM   15  C   UNL     1      28.975  39.694  51.109  1.00  0.00    -0.012 A 
HETATM   16  C   UNL     1      28.342  40.147  49.929  1.00  0.00     0.075 A 
HETATM   17  C   UNL     1      28.538  39.462  48.725  1.00  0.00     0.037 A 
HETATM   18  C   UNL     1      29.328  38.313  48.687  1.00  0.00     0.003 A 
HETATM   19  C   UNL     1      29.918  37.833  49.851  1.00  0.00     0.001 A 
HETATM   20  C   UNL     1      29.732  38.510  51.057  1.00  0.00     0.011 A 
BRANCH  16  21
HETATM   21  O   UNL     1      27.543  41.254  50.066  1.00  0.00    -0.355 OA
HETATM   22  C   UNL     1      26.144  41.087  49.856  1.00  0.00     0.210 C 
ENDBRANCH  16  21
ENDBRANCH  14  15
ENDBRANCH  12  14
ENDBRANCH   3  12
BRANCH   1  23
HETATM   23  N   UNL     1      25.261  43.940  53.173  1.00  0.00    -0.262 NA
HETATM   24  H   UNL     1      24.650  43.224  53.554  1.00  0.00     0.130 HD
BRANCH  23  25
HETATM   25  C   UNL     1      24.957  44.222  51.768  1.00  0.00     0.095 C 
BRANCH  25  26
HETATM   26  C   UNL     1      25.094  45.725  51.497  1.00  0.00     0.014 C 
BRANCH  26  27
HETATM   27  C   UNL     1      25.934  46.026  50.254  1.00  0.00    -0.003 C 
HETATM   28  C   UNL     1      26.808  44.839  49.875  1.00  0.00     0.005 C 
ENDBRANCH  26  27
ENDBRANCH  25  26
ENDBRANCH  23  25
ENDBRANCH   1  23
TORSDOF 8
ENDMDL
MODEL 5
REMARK VINA RESULT:      -7.4      2.370      5.438
REMARK  8 active torsions:
REMARK  status: ('A' for Active; 'I' for Inactive)
REMARK    1  A    between atoms: C_2  and  C_3 
REMARK    2  A    between atoms: C_3  and  C_4 
REMARK    3  A    between atoms: C_4  and  N_5 
REMARK    4  A    between atoms: N_5  and  C_6 
REMARK    5  A    between atoms: C_8  and  N_9 
REMARK    6  A    between atoms: N_9  and  C_10 
REMARK    7  A    between atoms: C_10  and  C_11 
REMARK    8  A    between atoms: C_12  and  O_13 
ROOT
HETATM    1  C   UNL     1      27.033  44.856  52.900  1.00  0.00     0.181 A 
HETATM    2  N   UNL     1      27.468  43.731  52.305  1.00  0.00    -0.207 NA
HETATM    3  C   UNL     1      28.559  43.130  52.818  1.00  0.00     0.119 A 
HETATM    4  C   UNL     1      29.215  43.616  53.970  1.00  0.00     0.031 A 
HETATM    5  C   UNL     1      28.731  44.826  54.499  1.00  0.00     0.048 A 
HETATM    6  N   UNL     1      27.665  45.402  53.937  1.00  0.00    -0.330 N 
HETATM    7  H   UNL     1      27.313  46.288  54.274  1.00  0.00     0.168 HD
HETATM    8  C   UNL     1      30.290  42.991  54.647  1.00  0.00     0.017 A 
HETATM    9  C   UNL     1      30.890  43.583  55.760  1.00  0.00     0.001 A 
HETATM   10  C   UNL     1      30.424  44.803  56.236  1.00  0.00     0.002 A 
HETATM   11  C   UNL     1      29.342  45.422  55.613  1.00  0.00     0.030 A 
ENDROOT
BRANCH   3  12
HETATM   12  N   UNL     1      28.967  41.990  52.130  1.00  0.00    -0.272 NA
HETATM   13  H   UNL     1      29.679  41.517  52.681  1.00  0.00     0.129 HD
BRANCH  12  14
HETATM   14  C   UNL     1      27.895  41.068  51.718  1.00  0.00     0.135 C 
BRANCH  14  15
HETATM   15  C   UNL     1      27.943  40.673  50.254  1.00  0.00    -0.012 A 
HETATM   16  C   UNL     1      28.692  39.539  49.866  1.00  0.00     0.075 A 
HETATM   17  C   UNL     1      28.784  39.192  48.514  1.00  0.00     0.037 A 
HETATM   18  C   UNL     1      28.167  39.979  47.540  1.00  0.00     0.003 A 
HETATM   19  C   UNL     1      27.468  41.123  47.907  1.00  0.00     0.001 A 
HETATM   20  C   UNL     1      27.366  41.476  49.253  1.00  0.00     0.011 A 
BRANCH  16  21
HETATM   21  O   UNL     1      29.306  38.851  50.882  1.00  0.00    -0.355 OA
HETATM   22  C   UNL     1      29.779  37.538  50.598  1.00  0.00     0.210 C 
ENDBRANCH  16  21
ENDBRANCH  14  15
ENDBRANCH  12  14
ENDBRANCH   3  12
BRANCH   1  23
HETATM   23  N   UNL     1      25.910  45.536  52.449  1.00  0.00    -0.262 NA
HETATM   24  H   UNL     1      25.032  45.074  52.663  1.00  0.00     0.130 HD
BRANCH  23  25
HETATM   25  C   UNL     1      25.961  45.988  51.057  1.00  0.00     0.095 C 
BRANCH  25  26
HETATM   26  C   UNL     1      26.304  47.481  51.006  1.00  0.00     0.014 C 
BRANCH  26  27
HETATM   27  C   UNL     1      26.194  48.064  49.596  1.00  0.00    -0.003 C 
HETATM   28  C   UNL     1      27.469  48.790  49.194  1.00  0.00     0.005 C 
ENDBRANCH  26  27
ENDBRANCH  25  26
ENDBRANCH  23  25
ENDBRANCH   1  23
TORSDOF 8
ENDMDL
MODEL 6
REMARK VINA RESULT:      -7.3      2.573      7.214
REMARK  8 active torsions:
REMARK  status: ('A' for Active; 'I' for Inactive)
REMARK    1  A    between atoms: C_2  and  C_3 
REMARK    2  A    between atoms: C_3  and  C_4 
REMARK    3  A    between atoms: C_4  and  N_5 
REMARK    4  A    between atoms: N_5  and  C_6 
REMARK    5  A    between atoms: C_8  and  N_9 
REMARK    6  A    between atoms: N_9  and  C_10 
REMARK    7  A    between atoms: C_10  and  C_11 
REMARK    8  A    between atoms: C_12  and  O_13 
ROOT
HETATM    1  C   UNL     1      24.663  46.738  50.653  1.00  0.00     0.181 A 
HETATM    2  N   UNL     1      25.775  46.415  51.339  1.00  0.00    -0.207 NA
HETATM    3  C   UNL     1      26.108  45.113  51.421  1.00  0.00     0.119 A 
HETATM    4  C   UNL     1      25.360  44.103  50.778  1.00  0.00     0.031 A 
HETATM    5  C   UNL     1      24.183  44.516  50.127  1.00  0.00     0.048 A 
HETATM    6  N   UNL     1      23.877  45.817  50.099  1.00  0.00    -0.330 N 
HETATM    7  H   UNL     1      23.023  46.142  49.667  1.00  0.00     0.168 HD
HETATM    8  C   UNL     1      25.694  42.729  50.709  1.00  0.00     0.017 A 
HETATM    9  C   UNL     1      24.858  41.808  50.074  1.00  0.00     0.001 A 
HETATM   10  C   UNL     1      23.676  42.235  49.480  1.00  0.00     0.002 A 
HETATM   11  C   UNL     1      23.340  43.587  49.498  1.00  0.00     0.030 A 
ENDROOT
BRANCH   3  12
HETATM   12  N   UNL     1      27.251  44.856  52.172  1.00  0.00    -0.272 NA
HETATM   13  H   UNL     1      28.001  45.455  51.837  1.00  0.00     0.129 HD
BRANCH  12  14
HETATM   14  C   UNL     1      27.095  44.944  53.634  1.00  0.00     0.135 C 
BRANCH  14  15
HETATM   15  C   UNL     1      28.376  44.709  54.412  1.00  0.00    -0.012 A 
HETATM   16  C   UNL     1      28.989  43.435  54.371  1.00  0.00     0.075 A 
HETATM   17  C   UNL     1      30.143  43.192  55.122  1.00  0.00     0.037 A 
HETATM   18  C   UNL     1      30.677  44.189  55.939  1.00  0.00     0.003 A 
HETATM   19  C   UNL     1      30.056  45.430  56.022  1.00  0.00     0.001 A 
HETATM   20  C   UNL     1      28.906  45.685  55.275  1.00  0.00     0.011 A 
BRANCH  16  21
HETATM   21  O   UNL     1      28.370  42.499  53.582  1.00  0.00    -0.355 OA
HETATM   22  C   UNL     1      29.184  41.756  52.680  1.00  0.00     0.210 C 
ENDBRANCH  16  21
ENDBRANCH  14  15
ENDBRANCH  12  14
ENDBRANCH   3  12
BRANCH   1  23
HETATM   23  N   UNL     1      24.251  48.055  50.505  1.00  0.00    -0.262 NA
HETATM   24  H   UNL     1      23.655  48.389  51.255  1.00  0.00     0.130 HD
BRANCH  23  25
HETATM   25  C   UNL     1      23.715  48.406  49.187  1.00  0.00     0.095 C 
BRANCH  25  26
HETATM   26  C   UNL     1      24.384  49.688  48.678  1.00  0.00     0.014 C 
BRANCH  26  27
HETATM   27  C   UNL     1      23.444  50.545  47.827  1.00  0.00    -0.003 C 
HETATM   28  C   UNL     1      22.294  51.096  48.656  1.00  0.00     0.005 C 
ENDBRANCH  26  27
ENDBRANCH  25  26
ENDBRANCH  23  25
ENDBRANCH   1  23
TORSDOF 8
ENDMDL
MODEL 7
REMARK VINA RESULT:      -7.1      2.468      4.003
REMARK  8 active torsions:
REMARK  status: ('A' for Active; 'I' for Inactive)
REMARK    1  A    between atoms: C_2  and  C_3 
REMARK    2  A    between atoms: C_3  and  C_4 
REMARK    3  A    between atoms: C_4  and  N_5 
REMARK    4  A    between atoms: N_5  and  C_6 
REMARK    5  A    between atoms: C_8  and  N_9 
REMARK    6  A    between atoms: N_9  and  C_10 
REMARK    7  A    between atoms: C_10  and  C_11 
REMARK    8  A    between atoms: C_12  and  O_13 
ROOT
HETATM    1  C   UNL     1      25.398  43.761  52.027  1.00  0.00     0.181 A 
HETATM    2  N   UNL     1      25.018  44.915  51.448  1.00  0.00    -0.207 NA
HETATM    3  C   UNL     1      25.430  46.067  52.011  1.00  0.00     0.119 A 
HETATM    4  C   UNL     1      26.274  46.092  53.142  1.00  0.00     0.031 A 
HETATM    5  C   UNL     1      26.581  44.846  53.719  1.00  0.00     0.048 A 
HETATM    6  N   UNL     1      26.122  43.731  53.143  1.00  0.00    -0.330 N 
HETATM    7  H   UNL     1      26.299  42.823  53.551  1.00  0.00     0.168 HD
HETATM    8  C   UNL     1      26.852  47.243  53.731  1.00  0.00     0.017 A 
HETATM    9  C   UNL     1      27.645  47.153  54.876  1.00  0.00     0.001 A 
HETATM   10  C   UNL     1      27.895  45.914  55.456  1.00  0.00     0.002 A 
HETATM   11  C   UNL     1      27.372  44.760  54.876  1.00  0.00     0.030 A 
ENDROOT
BRANCH   3  12
HETATM   12  N   UNL     1      24.972  47.217  51.374  1.00  0.00    -0.272 NA
HETATM   13  H   UNL     1      25.759  47.845  51.234  1.00  0.00     0.129 HD
BRANCH  12  14
HETATM   14  C   UNL     1      24.213  47.006  50.130  1.00  0.00     0.135 C 
BRANCH  14  15
HETATM   15  C   UNL     1      24.015  48.260  49.302  1.00  0.00    -0.012 A 
HETATM   16  C   UNL     1      25.144  49.003  48.886  1.00  0.00     0.075 A 
HETATM   17  C   UNL     1      24.973  50.188  48.163  1.00  0.00     0.037 A 
HETATM   18  C   UNL     1      23.692  50.662  47.877  1.00  0.00     0.003 A 
HETATM   19  C   UNL     1      22.575  49.963  48.321  1.00  0.00     0.001 A 
HETATM   20  C   UNL     1      22.733  48.778  49.040  1.00  0.00     0.011 A 
BRANCH  16  21
HETATM   21  O   UNL     1      26.364  48.493  49.253  1.00  0.00    -0.355 OA
HETATM   22  C   UNL     1      27.519  49.276  48.970  1.00  0.00     0.210 C 
ENDBRANCH  16  21
ENDBRANCH  14  15
ENDBRANCH  12  14
ENDBRANCH   3  12
BRANCH   1  23
HETATM   23  N   UNL     1      25.031  42.527  51.509  1.00  0.00    -0.262 NA
HETATM   24  H   UNL     1      25.202  41.747  52.136  1.00  0.00     0.130 HD
BRANCH  23  25
HETATM   25  C   UNL     1      25.500  42.245  50.151  1.00  0.00     0.095 C 
BRANCH  25  26
HETATM   26  C   UNL     1      24.302  41.986  49.229  1.00  0.00     0.014 C 
BRANCH  26  27
HETATM   27  C   UNL     1      22.995  42.552  49.788  1.00  0.00    -0.003 C 
HETATM   28  C   UNL     1      22.545  43.779  49.010  1.00  0.00     0.005 C 
ENDBRANCH  26  27
ENDBRANCH  25  26
ENDBRANCH  23  25
ENDBRANCH   1  23
TORSDOF 8
ENDMDL
MODEL 8
REMARK VINA RESULT:      -7.1      3.592      7.960
REMARK  8 active torsions:
REMARK  status: ('A' for Active; 'I' for Inactive)
REMARK    1  A    between atoms: C_2  and  C_3 
REMARK    2  A    between atoms: C_3  and  C_4 
REMARK    3  A    between atoms: C_4  and  N_5 
REMARK    4  A    between atoms: N_5  and  C_6 
REMARK    5  A    between atoms: C_8  and  N_9 
REMARK    6  A    between atoms: N_9  and  C_10 
REMARK    7  A    between atoms: C_10  and  C_11 
REMARK    8  A    between atoms: C_12  and  O_13 
ROOT
HETATM    1  C   UNL     1      23.392  48.311  49.728  1.00  0.00     0.181 A 
HETATM    2  N   UNL     1      24.465  48.078  50.505  1.00  0.00    -0.207 NA
HETATM    3  C   UNL     1      24.983  46.834  50.506  1.00  0.00     0.119 A 
HETATM    4  C   UNL     1      24.466  45.803  49.692  1.00  0.00     0.031 A 
HETATM    5  C   UNL     1      23.310  46.113  48.952  1.00  0.00     0.048 A 
HETATM    6  N   UNL     1      22.814  47.353  49.007  1.00  0.00    -0.330 N 
HETATM    7  H   UNL     1      21.968  47.598  48.512  1.00  0.00     0.168 HD
HETATM    8  C   UNL     1      25.010  44.506  49.537  1.00  0.00     0.017 A 
HETATM    9  C   UNL     1      24.392  43.549  48.730  1.00  0.00     0.001 A 
HETATM   10  C   UNL     1      23.223  43.865  48.046  1.00  0.00     0.002 A 
HETATM   11  C   UNL     1      22.685  45.146  48.148  1.00  0.00     0.030 A 
ENDROOT
BRANCH   3  12
HETATM   12  N   UNL     1      26.072  46.663  51.356  1.00  0.00    -0.272 NA
HETATM   13  H   UNL     1      26.810  47.301  51.070  1.00  0.00     0.129 HD
BRANCH  12  14
HETATM   14  C   UNL     1      25.787  46.768  52.797  1.00  0.00     0.135 C 
BRANCH  14  15
HETATM   15  C   UNL     1      26.909  46.275  53.690  1.00  0.00    -0.012 A 
HETATM   16  C   UNL     1      27.276  44.910  53.654  1.00  0.00     0.075 A 
HETATM   17  C   UNL     1      28.276  44.433  54.508  1.00  0.00     0.037 A 
HETATM   18  C   UNL     1      28.893  45.290  55.420  1.00  0.00     0.003 A 
HETATM   19  C   UNL     1      28.507  46.624  55.496  1.00  0.00     0.001 A 
HETATM   20  C   UNL     1      27.513  47.111  54.647  1.00  0.00     0.011 A 
BRANCH  16  21
HETATM   21  O   UNL     1      26.585  44.128  52.764  1.00  0.00    -0.355 OA
HETATM   22  C   UNL     1      27.220  42.942  52.296  1.00  0.00     0.210 C 
ENDBRANCH  16  21
ENDBRANCH  14  15
ENDBRANCH  12  14
ENDBRANCH   3  12
BRANCH   1  23
HETATM   23  N   UNL     1      22.800  49.564  49.655  1.00  0.00    -0.262 NA
HETATM   24  H   UNL     1      21.886  49.618  50.093  1.00  0.00     0.130 HD
BRANCH  23  25
HETATM   25  C   UNL     1      22.805  50.190  48.331  1.00  0.00     0.095 C 
BRANCH  25  26
HETATM   26  C   UNL     1      21.379  50.593  47.939  1.00  0.00     0.014 C 
BRANCH  26  27
HETATM   27  C   UNL     1      20.643  51.325  49.065  1.00  0.00    -0.003 C 
HETATM   28  C   UNL     1      19.494  52.162  48.523  1.00  0.00     0.005 C 
ENDBRANCH  26  27
ENDBRANCH  25  26
ENDBRANCH  23  25
ENDBRANCH   1  23
TORSDOF 8
ENDMDL
MODEL 9
REMARK VINA RESULT:      -7.1      1.944      5.378
REMARK  8 active torsions:
REMARK  status: ('A' for Active; 'I' for Inactive)
REMARK    1  A    between atoms: C_2  and  C_3 
REMARK    2  A    between atoms: C_3  and  C_4 
REMARK    3  A    between atoms: C_4  and  N_5 
REMARK    4  A    between atoms: N_5  and  C_6 
REMARK    5  A    between atoms: C_8  and  N_9 
REMARK    6  A    between atoms: N_9  and  C_10 
REMARK    7  A    between atoms: C_10  and  C_11 
REMARK    8  A    between atoms: C_12  and  O_13 
ROOT
HETATM    1  C   UNL     1      28.526  41.112  52.299  1.00  0.00     0.181 A 
HETATM    2  N   UNL     1      27.887  42.015  51.534  1.00  0.00    -0.207 NA
HETATM    3  C   UNL     1      27.697  41.718  50.234  1.00  0.00     0.119 A 
HETATM    4  C   UNL     1      28.102  40.485  49.677  1.00  0.00     0.031 A 
HETATM    5  C   UNL     1      28.811  39.619  50.529  1.00  0.00     0.048 A 
HETATM    6  N   UNL     1      29.003  39.972  51.804  1.00  0.00    -0.330 N 
HETATM    7  H   UNL     1      29.536  39.385  52.432  1.00  0.00     0.168 HD
HETATM    8  C   UNL     1      27.843  40.036  48.360  1.00  0.00     0.017 A 
HETATM    9  C   UNL     1      28.326  38.808  47.902  1.00  0.00     0.001 A 
HETATM   10  C   UNL     1      29.065  37.991  48.749  1.00  0.00     0.002 A 
HETATM   11  C   UNL     1      29.303  38.389  50.063  1.00  0.00     0.030 A 
ENDROOT
BRANCH   3  12
HETATM   12  N   UNL     1      27.057  42.713  49.501  1.00  0.00    -0.272 NA
HETATM   13  H   UNL     1      26.890  42.366  48.560  1.00  0.00     0.129 HD
BRANCH  12  14
HETATM   14  C   UNL     1      25.834  43.270  50.103  1.00  0.00     0.135 C 
BRANCH  14  15
HETATM   15  C   UNL     1      25.936  44.737  50.476  1.00  0.00    -0.012 A 
HETATM   16  C   UNL     1      25.423  45.175  51.718  1.00  0.00     0.075 A 
HETATM   17  C   UNL     1      25.468  46.532  52.053  1.00  0.00     0.037 A 
HETATM   18  C   UNL     1      25.987  47.464  51.153  1.00  0.00     0.003 A 
HETATM   19  C   UNL     1      26.451  47.050  49.910  1.00  0.00     0.001 A 
HETATM   20  C   UNL     1      26.414  45.698  49.567  1.00  0.00     0.011 A 
BRANCH  16  21
HETATM   21  O   UNL     1      24.887  44.200  52.521  1.00  0.00    -0.355 OA
HETATM   22  C   UNL     1      25.356  44.119  53.863  1.00  0.00     0.210 C 
ENDBRANCH  16  21
ENDBRANCH  14  15
ENDBRANCH  12  14
ENDBRANCH   3  12
BRANCH   1  23
HETATM   23  N   UNL     1      28.755  41.327  53.650  1.00  0.00    -0.262 NA
HETATM   24  H   UNL     1      28.130  40.814  54.264  1.00  0.00     0.130 HD
BRANCH  23  25
HETATM   25  C   UNL     1      28.884  42.730  54.055  1.00  0.00     0.095 C 
BRANCH  25  26
HETATM   26  C   UNL     1      30.339  43.032  54.429  1.00  0.00     0.014 C 
BRANCH  26  27
HETATM   27  C   UNL     1      30.457  43.916  55.672  1.00  0.00    -0.003 C 
HETATM   28  C   UNL     1      31.479  43.360  56.653  1.00  0.00     0.005 C 
ENDBRANCH  26  27
ENDBRANCH  25  26
ENDBRANCH  23  25
ENDBRANCH   1  23
TORSDOF 8
ENDMDL
MODEL 10
REMARK VINA RESULT:      -7.0      3.189      4.648
REMARK  8 active torsions:
REMARK  status: ('A' for Active; 'I' for Inactive)
REMARK    1  A    between atoms: C_2  and  C_3 
REMARK    2  A    between atoms: C_3  and  C_4 
REMARK    3  A    between atoms: C_4  and  N_5 
REMARK    4  A    between atoms: N_5  and  C_6 
REMARK    5  A    between atoms: C_8  and  N_9 
REMARK    6  A    between atoms: N_9  and  C_10 
REMARK    7  A    between atoms: C_10  and  C_11 
REMARK    8  A    between atoms: C_12  and  O_13 
ROOT
HETATM    1  C   UNL     1      26.279  44.606  50.166  1.00  0.00     0.181 A 
HETATM    2  N   UNL     1      25.437  45.640  49.985  1.00  0.00    -0.207 NA
HETATM    3  C   UNL     1      25.220  46.464  51.028  1.00  0.00     0.119 A 
HETATM    4  C   UNL     1      25.878  46.300  52.267  1.00  0.00     0.031 A 
HETATM    5  C   UNL     1      26.699  45.165  52.392  1.00  0.00     0.048 A 
HETATM    6  N   UNL     1      26.859  44.358  51.338  1.00  0.00    -0.330 N 
HETATM    7  H   UNL     1      27.417  43.518  51.406  1.00  0.00     0.168 HD
HETATM    8  C   UNL     1      25.804  47.177  53.376  1.00  0.00     0.017 A 
HETATM    9  C   UNL     1      26.471  46.895  54.570  1.00  0.00     0.001 A 
HETATM   10  C   UNL     1      27.238  45.742  54.685  1.00  0.00     0.002 A 
HETATM   11  C   UNL     1      27.360  44.880  53.597  1.00  0.00     0.030 A 
ENDROOT
BRANCH   3  12
HETATM   12  N   UNL     1      24.315  47.490  50.774  1.00  0.00    -0.272 NA
HETATM   13  H   UNL     1      24.800  48.379  50.861  1.00  0.00     0.129 HD
BRANCH  12  14
HETATM   14  C   UNL     1      23.573  47.396  49.506  1.00  0.00     0.135 C 
BRANCH  14  15
HETATM   15  C   UNL     1      22.894  48.685  49.084  1.00  0.00    -0.012 A 
HETATM   16  C   UNL     1      23.676  49.843  48.869  1.00  0.00     0.075 A 
HETATM   17  C   UNL     1      23.057  51.050  48.528  1.00  0.00     0.037 A 
HETATM   18  C   UNL     1      21.667  51.127  48.430  1.00  0.00     0.003 A 
HETATM   19  C   UNL     1      20.886  50.006  48.685  1.00  0.00     0.001 A 
HETATM   20  C   UNL     1      21.493  48.796  49.023  1.00  0.00     0.011 A 
BRANCH  16  21
HETATM   21  O   UNL     1      25.029  49.690  49.035  1.00  0.00    -0.355 OA
HETATM   22  C   UNL     1      25.869  50.010  47.931  1.00  0.00     0.210 C 
ENDBRANCH  16  21
ENDBRANCH  14  15
ENDBRANCH  12  14
ENDBRANCH   3  12
BRANCH   1  23
HETATM   23  N   UNL     1      26.573  43.714  49.145  1.00  0.00    -0.262 NA
HETATM   24  H   UNL     1      25.987  43.818  48.322  1.00  0.00     0.130 HD
BRANCH  23  25
HETATM   25  C   UNL     1      26.701  42.311  49.546  1.00  0.00     0.095 C 
BRANCH  25  26
HETATM   26  C   UNL     1      27.302  41.493  48.397  1.00  0.00     0.014 C 
BRANCH  26  27
HETATM   27  C   UNL     1      26.855  40.029  48.419  1.00  0.00    -0.003 C 
HETATM   28  C   UNL     1      26.597  39.550  49.840  1.00  0.00     0.005 C 
ENDBRANCH  26  27
ENDBRANCH  25  26
ENDBRANCH  23  25
ENDBRANCH   1  23
TORSDOF 8
ENDMDL
